# generated using pymatgen
data_Mn4H53C65N3O19
_symmetry_space_group_name_H-M   'P 1'
_cell_length_a   13.59391323
_cell_length_b   15.42625785
_cell_length_c   24.10787414
_cell_angle_alpha   100.17212817
_cell_angle_beta   93.54370114
_cell_angle_gamma   102.05686948
_symmetry_Int_Tables_number   1
_chemical_formula_structural   Mn4H53C65N3O19
_chemical_formula_sum   'Mn8 H106 C130 N6 O38'
_cell_volume   4840.61731403
_cell_formula_units_Z   2
loop_
 _symmetry_equiv_pos_site_id
 _symmetry_equiv_pos_as_xyz
  1  'x, y, z'
loop_
 _atom_site_type_symbol
 _atom_site_label
 _atom_site_symmetry_multiplicity
 _atom_site_fract_x
 _atom_site_fract_y
 _atom_site_fract_z
 _atom_site_occupancy
 _atom_site_pbe_bader_charge
 _atom_site_pbe_bader_spin_density
 _atom_site_pbe_cm5_charge
 _atom_site_pbe_ddec_charge
 _atom_site_pbe_ddec_spin_density
 _atom_site_pbe_ddec_sum_bond_order
 _atom_site_pbe_magmom
Mn  Mn0  1  0.82499045  0.35487929  0.67451875  1  1.518004  4.546067  0.616094  1.028736  4.66908  2.271346  4.453
Mn  Mn1  1  0.17500301  0.64512123  0.32548035  1  1.518051  4.546111  0.616076  1.0286  4.669132  2.271398  4.453
Mn  Mn2  1  0.63231837  0.44411441  0.72646764  1  1.54479  4.495776  0.628448  1.047531  4.619845  2.36001  4.427
Mn  Mn3  1  0.36768223  0.55588546  0.27353418  1  1.544828  4.495773  0.628456  1.047573  4.619838  2.360035  4.427
Mn  Mn4  1  0.39166454  0.34287027  0.67065449  1  1.522718  4.510403  0.6073  1.001442  4.629099  2.36835  4.441
Mn  Mn5  1  0.60833621  0.65713028  0.32934783  1  1.522574  4.510461  0.607295  1.001491  4.62916  2.368162  4.441
Mn  Mn6  1  0.18216377  0.29627065  0.73484295  1  1.56735  4.561608  0.617243  1.080128  4.689237  2.31416  4.497
Mn  Mn7  1  0.81783318  0.70372585  0.26515419  1  1.567386  4.561627  0.617264  1.080231  4.689238  2.314055  4.497
H  H8  1  0.69278664  0.64153860  0.68725406  1  0.115472  9.5e-05  0.106818  0.112072  -0.000645  1.038196  0.0
H  H9  1  0.30721192  0.35846465  0.31274474  1  0.115169  9.6e-05  0.106836  0.112117  -0.000645  1.038103  0.0
H  H10  1  0.72251860  0.80672052  0.68837879  1  0.045344  3.8e-05  0.096378  0.092731  -2e-05  1.031587  0.0
H  H11  1  0.27748191  0.19328477  0.31162115  1  0.045348  3.8e-05  0.096397  0.09276  -2e-05  1.031621  0.0
H  H12  1  0.03256484  0.81172116  0.65790442  1  0.063033  3.2e-05  0.09708  0.09443  -3e-05  1.024763  0.0
H  H13  1  0.96744238  0.18827540  0.34209524  1  0.063114  3.2e-05  0.097037  0.094357  -3e-05  1.024911  0.0
H  H14  1  0.00186286  0.64650530  0.65780577  1  0.068476  0.000348  0.103017  0.103248  -4e-05  1.007459  0.0
H  H15  1  0.99813621  0.35349120  0.34219478  1  0.068684  0.000348  0.103013  0.103233  -4e-05  1.007487  0.0
H  H16  1  0.74902393  0.91404273  0.63426525  1  0.044411  4.3e-05  0.097381  0.095359  0.0  1.014884  0.0
H  H17  1  0.25098130  0.08595450  0.36573233  1  0.04445  4.3e-05  0.097393  0.095327  0.0  1.014807  0.0
H  H18  1  0.77877612  0.07953497  0.63953350  1  0.090439  0.000271  0.09954  0.098192  -0.000162  1.055079  0.0
H  H19  1  0.22121849  0.92046149  0.36046809  1  0.090363  0.000271  0.099567  0.098227  -0.000162  1.055079  0.0
H  H20  1  0.07714341  0.11385057  0.72230831  1  0.113201  0.000676  0.104929  0.108614  0.000447  1.07243  0.0
H  H21  1  0.92284612  0.88614923  0.27769303  1  0.113069  0.000676  0.104953  0.108638  0.000446  1.072247  0.0
H  H22  1  0.04772515  0.94942630  0.71769845  1  0.03037  4.7e-05  0.093506  0.088388  -8e-06  1.040398  0.0
H  H23  1  0.95227861  0.05057428  0.28230193  1  0.030411  4.7e-05  0.093502  0.08841  -8e-06  1.040376  0.0
H  H24  1  0.76622209  0.52338958  0.89606257  1  0.104574  0.000256  0.105281  0.107729  -0.000202  1.014609  0.0
H  H25  1  0.23378485  0.47661778  0.10393665  1  0.104611  0.000256  0.105322  0.107768  -0.000202  1.014592  0.0
H  H26  1  0.85044780  0.55461468  0.99341601  1  0.029211  0.0001  0.092094  0.084177  4.3e-05  1.050191  0.0
H  H27  1  0.14955865  0.44539065  0.00658295  1  0.029097  0.0001  0.092093  0.084222  4.3e-05  1.050215  0.0
H  H28  1  0.08338390  0.42199220  0.93068241  1  0.04332  0.000101  0.096931  0.094269  1.9e-05  1.030861  0.0
H  H29  1  0.91661057  0.57800024  0.06931498  1  0.043282  0.000101  0.096947  0.094312  1.9e-05  1.030855  0.0
H  H30  1  0.99317949  0.38553534  0.83525203  1  0.129739  0.000206  0.110942  0.116978  -0.00047  1.011827  0.0
H  H31  1  0.00681583  0.61446048  0.16474454  1  0.129816  0.000206  0.110985  0.117067  -0.00047  1.011763  0.0
H  H32  1  0.43638484  0.24181694  0.55774033  1  0.130219  0.000829  0.116034  0.122499  0.000309  0.99989  0.0
H  H33  1  0.56360479  0.75818017  0.44225988  1  0.130083  0.00083  0.116005  0.122432  0.000309  0.99993  0.0
H  H34  1  0.39031067  0.09836530  0.48996777  1  0.065493  5.3e-05  0.10187  0.101045  -5e-05  1.015697  0.0
H  H35  1  0.60968725  0.90163525  0.51003029  1  0.065633  5.3e-05  0.101913  0.101081  -5e-05  1.015631  0.0
H  H36  1  0.64869964  0.01659024  0.56087784  1  0.053563  2.1e-05  0.099571  0.096526  -6.1e-05  1.033252  0.0
H  H37  1  0.35129776  0.98341372  0.43911560  1  0.053514  2.1e-05  0.099581  0.096568  -6.1e-05  1.033239  0.0
H  H38  1  0.69218767  0.16136194  0.62924277  1  0.110207  0.000482  0.107392  0.106181  -0.000208  1.049965  0.0
H  H39  1  0.30780646  0.83863793  0.37075256  1  0.110137  0.000482  0.107339  0.106143  -0.000208  1.049993  0.0
H  H40  1  0.31016874  0.43778681  0.85575752  1  0.107463  0.000321  0.105313  0.107383  -0.000391  1.050156  0.0
H  H41  1  0.68984650  0.56221585  0.14424651  1  0.107143  0.000322  0.105312  0.107377  -0.000391  1.050304  0.0
H  H42  1  0.33769476  0.50069785  0.95840184  1  0.048594  0.0001  0.096147  0.094007  1.6e-05  1.029925  0.0
H  H43  1  0.66231989  0.49929941  0.04160238  1  0.04863  0.0001  0.096145  0.094058  1.6e-05  1.02976  0.0
H  H44  1  0.63980044  0.45158094  0.96164517  1  0.051912  9e-05  0.095341  0.091488  1.8e-05  1.039434  0.0
H  H45  1  0.36020829  0.54840956  0.03835304  1  0.052067  9e-05  0.095384  0.091565  1.8e-05  1.039409  0.0
H  H46  1  0.61114395  0.39259124  0.85899529  1  0.071663  0.000202  0.110397  0.115441  -0.000482  1.01047  0.0
H  H47  1  0.38886616  0.60740804  0.14100397  1  0.071771  0.000202  0.110402  0.115495  -0.000482  1.010519  0.0
H  H48  1  0.29048573  0.57842974  0.68503004  1  0.131695  0.000236  0.108389  0.115805  -0.000268  0.998239  0.0
H  H49  1  0.70951658  0.42156141  0.31496589  1  0.131702  0.000236  0.108395  0.115833  -0.000268  0.998303  0.0
H  H50  1  0.24165476  0.72467613  0.67998177  1  0.036219  8.3e-05  0.095527  0.091094  3.6e-05  1.023373  0.0
H  H51  1  0.75833981  0.27531633  0.32001190  1  0.036428  8.3e-05  0.095464  0.090985  3.6e-05  1.023404  0.0
H  H52  1  0.55158367  0.86634723  0.72986655  1  0.068843  7.2e-05  0.099929  0.100397  2.4e-05  1.006161  0.0
H  H53  1  0.44841602  0.13365804  0.27013626  1  0.068801  7.2e-05  0.099952  0.100428  2.4e-05  1.006204  0.0
H  H54  1  0.59740188  0.72036231  0.73887407  1  0.099855  0.000246  0.106045  0.108058  -0.000133  1.018691  0.0
H  H55  1  0.40259206  0.27964023  0.26112528  1  0.099995  0.000246  0.106044  0.108073  -0.000133  1.018492  0.0
H  H56  1  0.23589981  0.87168171  0.74371850  1  0.024922  0.000106  0.094152  0.091717  5e-05  1.01631  0.0
H  H57  1  0.76410784  0.12831686  0.25628348  1  0.024957  0.000106  0.094149  0.091732  5e-05  1.016309  0.0
H  H58  1  0.20167657  0.02364863  0.73915154  1  0.075153  0.000298  0.103455  0.107351  -0.000125  1.019414  0.0
H  H59  1  0.79832712  0.97634921  0.26085393  1  0.075106  0.000298  0.10348  0.107374  -0.000125  1.019481  0.0
H  H60  1  0.45809078  0.08309265  0.64636462  1  0.123226  0.000316  0.10154  0.10629  -9.6e-05  1.04977  0.0
H  H61  1  0.54190676  0.91690654  0.35363492  1  0.124287  0.000316  0.101539  0.106265  -9.6e-05  1.049775  0.0
H  H62  1  0.49531351  0.93317622  0.65151958  1  0.072175  8.3e-05  0.097725  0.096979  3e-05  1.012287  0.0
H  H63  1  0.50468627  0.06682299  0.34847924  1  0.072178  8.3e-05  0.097746  0.09699  3e-05  1.012225  0.0
H  H64  1  0.24906877  0.39633724  0.50750970  1  0.103423  0.000511  0.107073  0.113059  0.000148  0.993287  0.0
H  H65  1  0.75092754  0.60366328  0.49249284  1  0.103972  0.00051  0.10701  0.113007  0.000147  0.993305  0.0
H  H66  1  0.14167100  0.46918974  0.45333977  1  0.05576  0.000207  0.100501  0.10494  -4.8e-05  1.023871  0.0
H  H67  1  0.85832963  0.53081286  0.54665863  1  0.055818  0.000208  0.100513  0.104989  -4.8e-05  1.02387  0.0
H  H68  1  0.94372162  0.47299887  0.58725814  1  0.106317  0.000206  0.097652  0.098957  -0.000291  1.08107  0.0
H  H69  1  0.05627846  0.52699896  0.41274467  1  0.106345  0.000206  0.097624  0.098947  -0.000291  1.081091  0.0
H  H70  1  0.05162941  0.40020869  0.63974249  1  0.098512  0.002528  0.104183  0.099208  0.002008  1.040281  0.0
H  H71  1  0.94837317  0.59978986  0.36025596  1  0.098487  0.002529  0.104199  0.099224  0.002008  1.04021  0.0
H  H72  1  0.86027353  0.24035935  0.55339545  1  0.129986  0.000905  0.128014  0.0539  0.000102  0.986597  0.0
H  H73  1  0.13972094  0.75963980  0.44660810  1  0.129984  0.000906  0.127991  0.05393  0.000102  0.986593  0.0
H  H74  1  0.66564431  0.35031415  0.51302068  1  0.112619  0.000385  0.120189  0.146589  -0.000119  0.978925  0.0
H  H75  1  0.33435999  0.64969454  0.48697899  1  0.112421  0.000385  0.120248  0.146664  -0.000119  0.979104  0.0
H  H76  1  0.61520365  0.25768399  0.45530026  1  0.0534  0.000329  0.106857  0.118908  0.000201  0.984703  0.0
H  H77  1  0.38479911  0.74232132  0.54469855  1  0.05327  0.000329  0.106856  0.11887  0.000201  0.984803  0.0
H  H78  1  0.71136521  0.35032868  0.44485253  1  0.068132  0.000307  0.107029  0.12131  0.000178  0.986059  0.0
H  H79  1  0.28864289  0.64968070  0.55514946  1  0.067916  0.000307  0.107021  0.121342  0.000178  0.986082  0.0
H  H80  1  0.81572786  0.22400162  0.41406312  1  0.058392  0.000297  0.103783  0.115907  0.000167  0.992706  0.0
H  H81  1  0.18427460  0.77601177  0.58593825  1  0.058516  0.000297  0.103784  0.115843  0.000167  0.992719  0.0
H  H82  1  0.71940537  0.13930436  0.43258318  1  0.069936  0.000482  0.105444  0.121674  0.000296  0.997195  0.0
H  H83  1  0.28059737  0.86070095  0.56741645  1  0.069836  0.000482  0.105423  0.1216  0.000296  0.997246  0.0
H  H84  1  0.84457842  0.16477918  0.46803076  1  0.084569  0.000136  0.116458  0.127928  4.1e-05  0.979592  0.0
H  H85  1  0.15542622  0.83523086  0.53196866  1  0.084626  0.000136  0.116408  0.127874  4.1e-05  0.979591  0.0
H  H86  1  0.05489569  0.45361788  0.73926619  1  0.126516  0.001509  0.134815  0.062721  0.001137  1.00619  0.0
H  H87  1  0.94510341  0.54638198  0.26073639  1  0.126511  0.00151  0.134751  0.062621  0.001138  1.005997  0.0
H  H88  1  0.18490389  0.61574948  0.88363570  1  0.039988  0.000338  0.101034  0.10959  0.000199  0.985617  0.0
H  H89  1  0.81509939  0.38424908  0.11636443  1  0.040184  0.000338  0.101009  0.109538  0.000199  0.985655  0.0
H  H90  1  0.24909469  0.67518928  0.83410126  1  0.027779  0.000183  0.107535  0.11823  0.000108  0.981804  0.0
H  H91  1  0.75090682  0.32480792  0.16589740  1  0.027743  0.000183  0.107527  0.118186  0.000109  0.981829  0.0
H  H92  1  0.26980952  0.56658276  0.84074424  1  0.087517  0.00036  0.114756  0.135769  -1e-06  1.00829  0.0
H  H93  1  0.73018955  0.43341645  0.15925372  1  0.087785  0.00036  0.114761  0.135746  -1e-06  1.008329  0.0
H  H94  1  0.00404072  0.57777511  0.74904261  1  0.105039  0.000459  0.111263  0.133809  -0.000343  1.046649  0.0
H  H95  1  0.99595840  0.42222475  0.25095957  1  0.104987  0.000459  0.111265  0.133804  -0.000343  1.046489  0.0
H  H96  1  0.09800399  0.68038233  0.77234886  1  0.053914  0.000423  0.099652  0.107594  0.000281  0.996367  0.0
H  H97  1  0.90199395  0.31961551  0.22765096  1  0.053848  0.000423  0.099661  0.107595  0.000281  0.996373  0.0
H  H98  1  0.01846101  0.63495693  0.82153967  1  0.033481  0.000345  0.101883  0.115359  0.000187  0.978688  0.0
H  H99  1  0.98153734  0.36504292  0.17846330  1  0.03356  0.000345  0.101923  0.115394  0.000187  0.978626  0.0
H  H100  1  0.28035596  0.27019167  0.86121750  1  0.088318  0.001193  0.125539  0.048338  0.000607  1.003899  0.0
H  H101  1  0.71964233  0.72981088  0.13878495  1  0.088224  0.001194  0.125512  0.048277  0.000607  1.003828  0.0
H  H102  1  0.03192579  0.14406353  0.92193709  1  0.039193  0.000285  0.105566  0.11339  0.000176  0.978158  0.0
H  H103  1  0.96807614  0.85593904  0.07806759  1  0.039177  0.000285  0.105576  0.1134  0.000176  0.978209  0.0
H  H104  1  0.01313878  0.20673870  0.86767243  1  0.123674  0.000289  0.122433  0.14784  -0.000136  0.982138  0.0
H  H105  1  0.98685670  0.79325843  0.13233010  1  0.123579  0.000289  0.122407  0.147813  -0.000136  0.982181  0.0
H  H106  1  0.02601654  0.26027472  0.94079363  1  0.061612  0.000186  0.103448  0.112371  0.000114  1.00012  0.0
H  H107  1  0.97398084  0.73972715  0.05920911  1  0.06171  0.000186  0.103424  0.112338  0.000114  1.000237  0.0
H  H108  1  0.20754023  0.29425714  0.99302798  1  0.061705  0.000436  0.105839  0.118196  0.000272  0.986771  0.0
H  H109  1  0.79246126  0.70574948  0.00697507  1  0.061798  0.000436  0.10585  0.118189  0.000272  0.98684  0.0
H  H110  1  0.30503238  0.27000810  0.95053837  1  0.065399  0.000145  0.114419  0.128647  5.5e-05  0.991803  0.0
H  H111  1  0.69496475  0.72999244  0.04946130  1  0.065444  0.000145  0.114411  0.12862  5.5e-05  0.991718  0.0
H  H112  1  0.21859895  0.18018993  0.97182941  1  0.064375  0.000253  0.105858  0.115614  0.000142  0.976505  0.0
H  H113  1  0.78140179  0.81981333  0.02817073  1  0.064347  0.000253  0.105857  0.115613  0.000143  0.97646  0.0
C  C114  1  0.22631890  0.24562176  0.95833229  1  0.267132  0.000823  -0.122291  -0.27345  0.000819  3.941541  0.0
C  C115  1  0.77368283  0.75438284  0.04167095  1  0.267117  0.000823  -0.122272  -0.273352  0.000819  3.941572  0.0
C  C116  1  0.84570117  0.63428068  0.67323008  1  -0.044986  0.000101  -0.020565  -0.042945  -0.001536  3.979136  -0.001
C  C117  1  0.15429262  0.36571512  0.32676809  1  -0.044472  0.000101  -0.020567  -0.042947  -0.001535  3.979332  -0.001
C  C118  1  0.76676410  0.67974132  0.68075356  1  -0.073307  0.006814  -0.081237  -0.082111  0.005044  3.958113  0.004
C  C119  1  0.23323249  0.32025989  0.31924534  1  -0.073353  0.006813  -0.081206  -0.082154  0.005043  3.9581  0.004
C  C120  1  0.78384464  0.77174459  0.68109471  1  -0.062202  -0.000502  -0.091238  -0.134986  -0.000631  3.984493  -0.001
C  C121  1  0.21615653  0.22825733  0.31890447  1  -0.062195  -0.000502  -0.091274  -0.134969  -0.000631  3.984255  -0.001
C  C122  1  0.87983000  0.82131217  0.67371786  1  0.044652  0.007402  -0.004918  0.077248  0.005859  4.000459  0.005
C  C123  1  0.12017223  0.17868503  0.32628125  1  0.044559  0.007402  -0.004964  0.077129  0.005859  4.00023  0.005
C  C124  1  0.95831062  0.77493304  0.66536676  1  -0.074774  -0.001524  -0.096598  -0.145412  -0.001711  3.992103  -0.001
C  C125  1  0.04169178  0.22506484  0.33463243  1  -0.074889  -0.001523  -0.096602  -0.14538  -0.001711  3.99208  -0.001
C  C126  1  0.94153856  0.68266650  0.66514186  1  -0.002104  0.00757  -0.086867  -0.09324  0.005642  4.00186  0.005
C  C127  1  0.05845876  0.31732865  0.33485638  1  -0.002364  0.007569  -0.086818  -0.09314  0.005641  4.001864  0.005
C  C128  1  0.89673965  0.91938644  0.67554042  1  -0.017736  0.003907  -0.007143  0.073405  0.003089  4.009139  0.002
C  C129  1  0.10325982  0.08061142  0.32445781  1  -0.017764  0.003907  -0.00715  0.07339  0.003088  4.009184  0.002
C  C130  1  0.82089979  0.95783275  0.65406308  1  -0.084479  0.00044  -0.097349  -0.143063  0.000338  4.000565  0.0
C  C131  1  0.17909949  0.04216443  0.34593590  1  -0.084853  0.00044  -0.097359  -0.143004  0.000338  4.000507  0.0
C  C132  1  0.83745440  0.05054818  0.65665554  1  0.035032  0.003725  -0.089604  -0.090721  0.002665  3.999084  0.002
C  C133  1  0.16254145  0.94945031  0.34334592  1  0.035507  0.003724  -0.089624  -0.090745  0.002664  3.999138  0.002
C  C134  1  0.92958493  0.10854161  0.68112664  1  -0.069351  0.002602  -0.019911  -0.046464  0.001177  3.965618  0.001
C  C135  1  0.07041388  0.89145690  0.31887454  1  -0.069441  0.002601  -0.019925  -0.046568  0.001177  3.965587  0.001
C  C136  1  0.00499291  0.07071881  0.70312504  1  0.02506  0.004713  -0.083518  -0.087437  0.003472  3.968675  0.003
C  C137  1  0.99500388  0.92928038  0.29687488  1  0.025175  0.004713  -0.083533  -0.087444  0.003472  3.968387  0.003
C  C138  1  0.98870319  0.97778335  0.69997498  1  -0.104158  0.000577  -0.095929  -0.136206  0.000414  3.985114  0.0
C  C139  1  0.01129498  0.02221854  0.30002614  1  -0.104184  0.000577  -0.095899  -0.136166  0.000414  3.985004  0.0
C  C140  1  0.82478009  0.53581389  0.67379727  1  1.538813  0.031509  0.219739  0.57541  0.031222  4.178791  0.026
C  C141  1  0.17522072  0.46418331  0.32619970  1  1.538803  0.031513  0.219675  0.575257  0.031226  4.178942  0.026
C  C142  1  0.94573246  0.20858169  0.68348276  1  1.556678  0.024942  0.233235  0.618462  0.024177  4.149113  0.022
C  C143  1  0.05425776  0.79141810  0.31652026  1  1.556843  0.024935  0.233415  0.618747  0.024171  4.148782  0.022
C  C144  1  0.87398143  0.45255384  0.85942009  1  -0.060039  0.003261  -0.018014  -0.037417  0.001932  3.969485  0.001
C  C145  1  0.12602230  0.54744945  0.14057894  1  -0.06016  0.00326  -0.01799  -0.037288  0.001932  3.969579  0.001
C  C146  1  0.83533390  0.50066339  0.90464354  1  -0.06478  0.003834  -0.089127  -0.095314  0.002732  3.999929  0.002
C  C147  1  0.16466697  0.49933718  0.09535464  1  -0.064751  0.003834  -0.089199  -0.095428  0.002732  3.999968  0.002
C  C148  1  0.88384892  0.51836199  0.95923239  1  -0.045492  0.000101  -0.099891  -0.148746  6.4e-05  4.01276  0.0
C  C149  1  0.11615491  0.48163860  0.04076593  1  -0.045564  0.000101  -0.099913  -0.148861  6.5e-05  4.012965  0.0
C  C150  1  0.97416356  0.49053869  0.97088662  1  -0.034882  0.003488  -0.011015  0.062837  0.002754  4.006067  0.002
C  C151  1  0.02584220  0.50946058  0.02910996  1  0.000331  0.003474  -0.010946  0.063009  0.002754  4.005946  0.002
C  C152  1  0.01295467  0.44386480  0.92457887  1  -0.051056  0.000193  -0.09612  -0.139898  0.000137  3.98759  0.0
C  C153  1  0.98704046  0.55612763  0.07542104  1  -0.050808  0.000193  -0.096067  -0.139955  0.000137  3.987279  0.0
C  C154  1  0.96336191  0.42396085  0.87010973  1  -0.012213  0.003771  -0.081586  -0.08494  0.002676  3.968972  0.002
C  C155  1  0.03663955  0.57603634  0.12989059  1  -0.012217  0.003771  -0.081662  -0.085091  0.002676  3.968949  0.002
C  C156  1  0.82034378  0.43190349  0.80082802  1  1.559785  0.020921  0.225621  0.593602  0.020134  4.182606  0.018
C  C157  1  0.17965473  0.56809639  0.19916957  1  1.559729  0.020921  0.225606  0.593579  0.020133  4.182567  0.018
C  C158  1  0.56741418  0.21045126  0.59827131  1  -0.028257  0.000143  -0.013585  -0.043096  -0.00177  3.987779  -0.002
C  C159  1  0.43257805  0.78954723  0.40172750  1  -0.02812  0.000144  -0.013625  -0.04332  -0.001766  3.988084  -0.002
C  C160  1  0.48306264  0.19240107  0.55806349  1  -0.098141  0.010619  -0.069045  -0.067039  0.007934  3.951375  0.006
C  C161  1  0.51693052  0.80759810  0.44193420  1  -0.098206  0.010615  -0.069041  -0.066906  0.007931  3.951261  0.006
C  C162  1  0.45745307  0.11060660  0.51983279  1  0.019125  0.000632  -0.089608  -0.136607  0.000422  3.971084  0.0
C  C163  1  0.54253882  0.88939053  0.48016628  1  0.018964  0.000634  -0.089706  -0.136722  0.000424  3.970863  0.0
C  C164  1  0.51468358  0.04403906  0.51982141  1  -0.070476  0.011229  -0.005453  0.068303  0.008819  3.996369  0.006
C  C165  1  0.48530950  0.95595945  0.48017330  1  -0.036693  0.011175  -0.005312  0.068679  0.008815  3.996314  0.006
C  C166  1  0.60089602  0.06483028  0.55954978  1  -0.050512  -0.000271  -0.094248  -0.141731  -0.000483  3.986532  -0.001
C  C167  1  0.39909825  0.93517297  0.44044427  1  -0.049652  -0.000269  -0.094346  -0.141946  -0.00048  3.986773  -0.001
C  C168  1  0.62634987  0.14604265  0.59814327  1  -0.040527  0.010427  -0.081919  -0.09158  0.007767  3.988051  0.006
C  C169  1  0.37364612  0.85395588  0.40185323  1  -0.040597  0.010425  -0.081728  -0.091369  0.007765  3.98825  0.006
C  C170  1  0.59272182  0.29379488  0.64204331  1  1.508395  0.048876  0.231492  0.595338  0.047034  4.111482  0.04
C  C171  1  0.40727000  0.70620496  0.35795523  1  1.508017  0.04887  0.231541  0.595375  0.047023  4.111351  0.04
C  C172  1  0.45825609  0.40975057  0.85117329  1  -0.050159  0.003819  -0.018736  -0.03998  0.001824  3.987241  0.001
C  C173  1  0.54175852  0.59024604  0.14882670  1  -0.050153  0.00382  -0.018666  -0.039706  0.001825  3.9869  0.001
C  C174  1  0.38187426  0.44081377  0.87987520  1  -0.082146  0.0068  -0.089647  -0.110182  0.004906  4.013334  0.004
C  C175  1  0.61814215  0.55918419  0.12012502  1  -0.081962  0.006796  -0.089633  -0.110316  0.004904  4.013883  0.004
C  C176  1  0.39839329  0.47616286  0.93770085  1  -0.062889  0.000564  -0.099356  -0.143677  0.000426  3.998588  0.0
C  C177  1  0.60161954  0.52383574  0.06230136  1  -0.063367  0.000565  -0.099344  -0.143556  0.000427  3.998713  0.0
C  C178  1  0.49115885  0.48118299  0.96923394  1  -0.013964  0.008112  -0.009867  0.065783  0.006369  3.999969  0.005
C  C179  1  0.50884982  0.51881421  0.03077249  1  0.023828  0.008068  -0.009847  0.065549  0.006367  4.000174  0.005
C  C180  1  0.56675014  0.44930502  0.93949387  1  -0.077046  0.000993  -0.095822  -0.138074  0.00076  3.987812  0.0
C  C181  1  0.43325976  0.55069693  0.06051026  1  -0.076533  0.000995  -0.095908  -0.138089  0.000762  3.988069  0.0
C  C182  1  0.55121430  0.41502715  0.88161710  1  0.042111  0.006653  -0.081382  -0.082774  0.00497  3.975523  0.004
C  C183  1  0.44879624  0.58497750  0.11838819  1  0.042128  0.006651  -0.081443  -0.082989  0.004968  3.9756  0.004
C  C184  1  0.44238239  0.37387765  0.78909462  1  1.532331  0.036787  0.224569  0.593343  0.035072  4.160475  0.031
C  C185  1  0.55762481  0.62612226  0.21090916  1  1.532288  0.036786  0.224558  0.593325  0.035072  4.160149  0.031
C  C186  1  0.44710434  0.64080723  0.71156071  1  0.051304  0.002031  -0.0184  -0.03903  0.000933  3.97146  0.001
C  C187  1  0.55290388  0.35919338  0.28843904  1  0.051608  0.00203  -0.018379  -0.039019  0.000932  3.971388  0.001
C  C188  1  0.34647729  0.64233115  0.69571271  1  -0.084059  0.003702  -0.08234  -0.082339  0.002618  3.972555  0.002
C  C189  1  0.65352732  0.35766946  0.30428398  1  -0.084398  0.0037  -0.08231  -0.082307  0.002617  3.972825  0.002
C  C190  1  0.31994946  0.72396930  0.69275076  1  -0.125283  -0.000359  -0.098069  -0.151164  -0.00042  4.012967  0.0
C  C191  1  0.68004817  0.27603263  0.30724329  1  -0.12551  -0.000359  -0.098069  -0.151098  -0.00042  4.013182  0.0
C  C192  1  0.39383804  0.80542021  0.70362215  1  -0.006544  0.003178  -0.005639  0.071129  0.002519  4.018375  0.002
C  C193  1  0.60615985  0.19458034  0.29637715  1  -0.006699  0.003177  -0.00564  0.071122  0.002518  4.018382  0.002
C  C194  1  0.49427207  0.80316516  0.71996832  1  -0.019935  7e-06  -0.096995  -0.145068  -1.8e-05  4.00085  0.0
C  C195  1  0.50572800  0.19683540  0.28003191  1  -0.019811  8e-06  -0.097048  -0.145158  -1.8e-05  4.000843  0.0
C  C196  1  0.52020922  0.72210503  0.72490596  1  -0.097647  0.003706  -0.085532  -0.090865  0.002667  3.993961  0.002
C  C197  1  0.47979209  0.27789755  0.27509454  1  -0.09776  0.003705  -0.085523  -0.090865  0.002666  3.993604  0.002
C  C198  1  0.36843700  0.89215439  0.69829006  1  -0.015806  0.002957  -0.008921  0.067143  0.002347  4.021275  0.002
C  C199  1  0.63156051  0.10784480  0.30171072  1  -0.015786  0.002956  -0.008851  0.067151  0.002346  4.021167  0.002
C  C200  1  0.28402106  0.91753355  0.72167919  1  -0.004441  -6.5e-05  -0.099764  -0.149945  -9.3e-05  4.010924  0.0
C  C201  1  0.71597836  0.08246430  0.27832069  1  -0.004461  -6.5e-05  -0.099798  -0.149979  -9.3e-05  4.010869  0.0
C  C202  1  0.26452276  0.00195012  0.71923602  1  -0.041439  0.003548  -0.08944  -0.096047  0.002544  3.996538  0.002
C  C203  1  0.73547131  0.99804366  0.28076110  1  -0.041353  0.003547  -0.089418  -0.096025  0.002543  3.996707  0.002
C  C204  1  0.32733367  0.06213730  0.69233359  1  -0.08011  0.003073  -0.018407  -0.035776  0.001836  3.962558  0.002
C  C205  1  0.67266380  0.93786187  0.30766843  1  -0.080182  0.003075  -0.018481  -0.035904  0.001838  3.962757  0.002
C  C206  1  0.41001187  0.03627385  0.66757211  1  0.0261  0.003481  -0.083566  -0.081265  0.002504  3.967195  0.002
C  C207  1  0.58998674  0.96372669  0.33242764  1  0.024948  0.003481  -0.083597  -0.081243  0.002503  3.967231  0.002
C  C208  1  0.43058951  0.95263037  0.67082560  1  -0.124862  -0.000228  -0.093915  -0.143219  -0.000284  3.992487  0.0
C  C209  1  0.56940466  0.04736679  0.32917107  1  -0.124795  -0.000228  -0.093888  -0.143134  -0.000283  3.992367  0.0
C  C210  1  0.47645636  0.55249100  0.71160841  1  1.578075  0.019291  0.228499  0.597014  0.018873  4.174623  0.017
C  C211  1  0.52354715  0.44750553  0.28839192  1  1.578  0.019284  0.228578  0.597228  0.018863  4.174258  0.017
C  C212  1  0.30891697  0.15433521  0.69125643  1  1.564897  0.018799  0.228548  0.606075  0.017803  4.166572  0.017
C  C213  1  0.69108060  0.84566127  0.30874488  1  1.564939  0.018797  0.228528  0.606085  0.017803  4.166595  0.017
C  C214  1  0.15745349  0.39367030  0.57710162  1  0.042561  0.001849  -0.022114  -0.042191  0.000388  3.994721  0.0
C  C215  1  0.84254691  0.60632553  0.42289808  1  0.042267  0.00185  -0.02217  -0.042316  0.000389  3.994719  0.0
C  C216  1  0.18116206  0.41304150  0.52412797  1  -0.066423  0.005117  -0.084677  -0.091776  0.003843  3.987954  0.003
C  C217  1  0.81884066  0.58696716  0.47587536  1  -0.066933  0.005116  -0.084637  -0.091704  0.003842  3.9879  0.003
C  C218  1  0.12003963  0.45429163  0.49397100  1  -0.01737  0.000147  -0.091933  -0.130015  -1.1e-05  3.970427  0.0
C  C219  1  0.87996277  0.54571232  0.50602888  1  -0.017339  0.000149  -0.091959  -0.130128  -9e-06  3.970458  0.0
C  C220  1  0.03275941  0.47757395  0.51557381  1  -0.07669  0.004463  -0.008951  0.065463  0.003449  3.989433  0.003
C  C221  1  0.96723765  0.52242321  0.48442507  1  -0.043213  0.004444  -0.008971  0.065515  0.003447  3.989506  0.003
C  C222  1  0.00979793  0.45683769  0.56851826  1  -0.028661  0.000222  -0.098785  -0.144908  0.000191  3.994871  0.0
C  C223  1  0.99020186  0.54316488  0.43148342  1  -0.028666  0.000223  -0.098749  -0.144925  0.000192  3.99497  0.0
C  C224  1  0.07059223  0.41560712  0.59873708  1  -0.132653  0.006318  -0.087301  -0.091122  0.004871  3.983454  0.004
C  C225  1  0.92940999  0.58439008  0.40126244  1  -0.132337  0.006316  -0.087231  -0.091001  0.004869  3.983324  0.004
C  C226  1  0.22709083  0.35649048  0.61139351  1  1.518184  0.021596  0.217247  0.588148  0.022335  4.169008  0.018
C  C227  1  0.77290745  0.64350599  0.38860866  1  1.517698  0.021591  0.217351  0.588355  0.022326  4.168785  0.018
C  C228  1  0.80473233  0.28075374  0.54533857  1  1.351377  0.006212  0.187313  0.305446  0.006426  4.091715  0.006
C  C229  1  0.19527007  0.71925021  0.45466089  1  1.351945  0.006204  0.187328  0.305407  0.006422  4.092052  0.006
C  C230  1  0.68353264  0.30794322  0.47529395  1  0.243623  0.000358  -0.12678  -0.265579  0.000226  3.875278  0.0
C  C231  1  0.31647552  0.69206009  0.52470528  1  0.243798  0.000358  -0.126847  -0.26569  0.000225  3.875446  0.0
C  C232  1  0.78629838  0.19363644  0.44940330  1  0.248775  0.000766  -0.123663  -0.271368  0.000775  3.91947  0.0
C  C233  1  0.21370397  0.80637022  0.55059522  1  0.248656  0.000766  -0.123656  -0.271239  0.000775  3.919555  0.0
C  C234  1  0.11955950  0.47851703  0.77217156  1  1.3621  0.005556  0.191074  0.309032  0.005196  4.068179  0.005
C  C235  1  0.88043435  0.52148213  0.22782782  1  1.362218  0.005553  0.191207  0.309342  0.005193  4.06815  0.005
C  C236  1  0.21356739  0.60808171  0.84167844  1  0.304415  0.000373  -0.127914  -0.267042  0.000272  3.911297  0.0
C  C237  1  0.78643118  0.39191547  0.15831968  1  0.303925  0.000373  -0.127878  -0.266867  0.000271  3.911346  0.0
C  C238  1  0.05885641  0.61752400  0.78438370  1  0.276675  0.00104  -0.132393  -0.281565  0.000915  3.920473  0.001
C  C239  1  0.94114035  0.38247517  0.21561746  1  0.276736  0.00104  -0.13244  -0.281591  0.000915  3.920355  0.001
C  C240  1  0.19692054  0.25252024  0.85846608  1  1.38136  0.006383  0.18649  0.308147  0.006105  4.088167  0.006
C  C241  1  0.80308300  0.74747965  0.14153671  1  1.381523  0.006382  0.186483  0.308237  0.006104  4.088475  0.006
C  C242  1  0.05125838  0.21046216  0.90967244  1  0.262017  0.000322  -0.126132  -0.267641  0.000197  3.905711  0.0
C  C243  1  0.94874417  0.78953975  0.09033011  1  0.261999  0.000322  -0.126099  -0.267548  0.000197  3.905844  0.0
N  N244  1  0.76027470  0.26174561  0.49222773  1  -1.187594  0.007488  -0.277208  0.028009  0.005488  3.722554  0.006
N  N245  1  0.23972779  0.73825900  0.50777430  1  -1.187128  0.007486  -0.277173  0.02808  0.005487  3.72229  0.006
N  N246  1  0.13160382  0.56526319  0.79745726  1  -1.196668  0.006498  -0.282698  0.025442  0.004712  3.72595  0.005
N  N247  1  0.86839567  0.43473468  0.20254015  1  -1.196667  0.006497  -0.282753  0.025267  0.004711  3.726087  0.005
N  N248  1  0.15984848  0.23707192  0.90721769  1  -1.208758  0.005973  -0.286064  0.013917  0.004266  3.730777  0.004
N  N249  1  0.84015131  0.76293065  0.09278399  1  -1.208759  0.005974  -0.286096  0.013721  0.004266  3.730816  0.004
O  O250  1  0.73278416  0.49390262  0.67171726  1  -1.21379  0.078126  -0.307699  -0.574244  0.054272  2.385293  0.031
O  O251  1  0.26721449  0.50609793  0.32828124  1  -1.213804  0.078132  -0.307643  -0.574162  0.05427  2.385434  0.031
O  O252  1  0.89812634  0.49560170  0.67590028  1  -1.188515  0.074907  -0.307764  -0.565284  0.053461  2.291045  0.039
O  O253  1  0.10187342  0.50439751  0.32409936  1  -1.188435  0.074908  -0.307755  -0.565167  0.05346  2.291063  0.039
O  O254  1  0.87388030  0.23570658  0.65947629  1  -1.206971  0.080671  -0.321746  -0.589044  0.055495  2.345507  0.036
O  O255  1  0.12610815  0.76429522  0.34052854  1  -1.206963  0.080662  -0.32179  -0.589122  0.055485  2.345432  0.036
O  O256  1  0.02653243  0.26178699  0.70815872  1  -1.210812  0.075415  -0.306276  -0.573545  0.055126  2.348969  0.037
O  O257  1  0.97346302  0.73821285  0.29184246  1  -1.211061  0.075426  -0.306404  -0.573678  0.055126  2.348862  0.037
O  O258  1  0.74328651  0.46542468  0.79394749  1  -1.201217  0.074699  -0.307589  -0.563305  0.052519  2.313959  0.033
O  O259  1  0.25671596  0.53457992  0.20605537  1  -1.201165  0.074697  -0.30757  -0.563241  0.052517  2.313855  0.033
O  O260  1  0.85586338  0.38275140  0.76260645  1  -1.188504  0.069396  -0.305968  -0.556848  0.047058  2.321199  0.03
O  O261  1  0.14412691  0.61724505  0.23739081  1  -1.188484  0.069404  -0.305982  -0.556885  0.047059  2.321128  0.03
O  O262  1  0.66725519  0.30598565  0.68027444  1  -1.203197  0.111854  -0.29915  -0.571326  0.080565  2.350049  0.056
O  O263  1  0.33274090  0.69401353  0.31972462  1  -1.203167  0.111844  -0.299162  -0.571264  0.080563  2.350041  0.056
O  O264  1  0.53909097  0.35319742  0.64297734  1  -1.191678  0.10558  -0.29057  -0.550314  0.075837  2.349004  0.046
O  O265  1  0.46090417  0.64680380  0.35702025  1  -1.191268  0.105558  -0.290588  -0.550339  0.075843  2.349005  0.046
O  O266  1  0.51933143  0.36398522  0.76284026  1  -1.208496  0.08334  -0.305324  -0.577601  0.059266  2.362524  0.034
O  O267  1  0.48066570  0.63601196  0.23715655  1  -1.208403  0.083341  -0.305334  -0.577643  0.059268  2.362251  0.034
O  O268  1  0.35330841  0.35520937  0.76338860  1  -1.198623  0.104782  -0.288639  -0.57594  0.081108  2.388465  0.057
O  O269  1  0.64669743  0.64479391  0.23661426  1  -1.198726  0.10478  -0.28865  -0.575997  0.081109  2.388478  0.057
O  O270  1  0.41170568  0.48207854  0.68763783  1  -1.201022  0.062904  -0.299974  -0.543683  0.042256  2.364688  0.025
O  O271  1  0.58829873  0.51791595  0.31236521  1  -1.201001  0.062888  -0.299994  -0.543765  0.042247  2.364413  0.025
O  O272  1  0.56443961  0.55429967  0.73464687  1  -1.198231  0.07278  -0.314913  -0.567499  0.050435  2.290293  0.032
O  O273  1  0.43556524  0.44569620  0.26535261  1  -1.198134  0.072769  -0.314999  -0.567697  0.050434  2.290327  0.032
O  O274  1  0.37220440  0.20599461  0.66810591  1  -1.186087  0.066676  -0.304193  -0.552854  0.045809  2.367228  0.028
O  O275  1  0.62779036  0.79399917  0.33189290  1  -1.18628  0.066687  -0.304137  -0.552815  0.04581  2.367332  0.028
O  O276  1  0.23256997  0.17489702  0.71395826  1  -1.207023  0.06734  -0.308266  -0.583773  0.048919  2.364309  0.031
O  O277  1  0.76742334  0.82510011  0.28604252  1  -1.206851  0.067344  -0.308273  -0.583773  0.048919  2.364224  0.031
O  O278  1  0.30420535  0.33439396  0.59071507  1  -1.17313  0.074614  -0.310002  -0.542952  0.05245  2.187042  0.042
O  O279  1  0.69579714  0.66561400  0.40929066  1  -1.172897  0.07461  -0.310117  -0.543051  0.052449  2.186847  0.042
O  O280  1  0.21107742  0.35324225  0.66318179  1  -1.225677  0.103064  -0.311419  -0.605153  0.07747  2.399071  0.052
O  O281  1  0.78892569  0.64675898  0.33682154  1  -1.225506  0.103055  -0.311425  -0.605333  0.077475  2.399081  0.052
O  O282  1  0.78576275  0.33911584  0.58391144  1  -1.186788  0.051291  -0.28711  -0.462072  0.034653  2.404814  0.021
O  O283  1  0.21423400  0.66088940  0.41609083  1  -1.187443  0.051289  -0.287086  -0.462011  0.034648  2.405196  0.021
O  O284  1  0.17575758  0.42861607  0.78484866  1  -1.183466  0.046922  -0.28554  -0.461624  0.032794  2.390318  0.019
O  O285  1  0.82423980  0.57137637  0.21515053  1  -1.183545  0.046913  -0.285561  -0.461713  0.032794  2.390674  0.019
O  O286  1  0.14276667  0.24822358  0.81404822  1  -1.168451  0.045538  -0.275567  -0.442849  0.032145  2.388055  0.018
O  O287  1  0.85722512  0.75177625  0.18595156  1  -1.168592  0.045544  -0.275522  -0.442805  0.032147  2.38853  0.018
