# generated using pymatgen
data_NdH23C38(NO2)4
_symmetry_space_group_name_H-M   'P 1'
_cell_length_a   9.08391055
_cell_length_b   13.47248380
_cell_length_c   14.09735650
_cell_angle_alpha   96.80979075
_cell_angle_beta   96.39704494
_cell_angle_gamma   104.58873009
_symmetry_Int_Tables_number   1
_chemical_formula_structural   NdH23C38(NO2)4
_chemical_formula_sum   'Nd2 H46 C76 N8 O16'
_cell_volume   1639.85331252
_cell_formula_units_Z   2
loop_
 _symmetry_equiv_pos_site_id
 _symmetry_equiv_pos_as_xyz
  1  'x, y, z'
loop_
 _atom_site_type_symbol
 _atom_site_label
 _atom_site_symmetry_multiplicity
 _atom_site_fract_x
 _atom_site_fract_y
 _atom_site_fract_z
 _atom_site_occupancy
 _atom_site_hle17_bader_spin_density
 _atom_site_hle17_ddec_charge
 _atom_site_hle17_ddec_spin_density
 _atom_site_hle17_ddec_sum_bond_order
 _atom_site_hle17_magmom
 _atom_site_hse06_10hf_bader_spin_density
 _atom_site_hse06_10hf_ddec_charge
 _atom_site_hse06_10hf_ddec_spin_density
 _atom_site_hse06_10hf_ddec_sum_bond_order
 _atom_site_hse06_10hf_magmom
 _atom_site_hse06_bader_spin_density
 _atom_site_hse06_ddec_charge
 _atom_site_hse06_ddec_spin_density
 _atom_site_hse06_ddec_sum_bond_order
 _atom_site_hse06_magmom
 _atom_site_pbe_bader_spin_density
 _atom_site_pbe_cm5_charge
 _atom_site_pbe_ddec_charge
 _atom_site_pbe_ddec_spin_density
 _atom_site_pbe_ddec_sum_bond_order
 _atom_site_pbe_magmom
Nd  Nd0  1  0.36874688  0.35689895  0.51243949  1  0  2.193464  0  1.702723  0  0  2.000054  0  2.203598  0  0  2.050633  0  2.152584  0  0  1.490007  1.961489  0  2.243143  0
Nd  Nd1  1  0.63125440  0.64310150  0.48756102  1  0  2.193517  0  1.702673  0  0  2.000146  0  2.203477  0  0  2.050724  0  2.152467  0  0  1.490029  1.961643  0  2.242921  0
H  H2  1  0.46229531  0.56735859  0.05954848  1  0  0.086617  0  0.957692  0  0  0.097332  0  1.019169  0  0  0.099692  0  1.019163  0  0  0.10005  0.095546  0  1.01945  0
H  H3  1  0.53770454  0.43264109  0.94045254  1  0  0.08662  0  0.957681  0  0  0.097335  0  1.019158  0  0  0.099695  0  1.019153  0  0  0.100049  0.09555  0  1.019437  0
H  H4  1  0.31507488  0.21315501  0.83084558  1  0  0.107749  0  0.923462  0  0  0.119837  0  0.981305  0  0  0.123487  0  0.978026  0  0  0.112652  0.117989  0  0.982281  0
H  H5  1  0.68492165  0.78684466  0.16915733  1  0  0.107816  0  0.923458  0  0  0.119904  0  0.981296  0  0  0.123554  0  0.978018  0  0  0.112666  0.118056  0  0.982274  0
H  H6  1  0.12790861  0.03662805  0.09792025  1  0  0.110507  0  0.956072  0  0  0.117824  0  1.017994  0  0  0.121383  0  1.015459  0  0  0.107251  0.115196  0  1.02002  0
H  H7  1  0.87209060  0.96337551  0.90208189  1  0  0.110524  0  0.955999  0  0  0.117796  0  1.017969  0  0  0.121354  0  1.015433  0  0  0.107267  0.115152  0  1.020014  0
H  H8  1  0.49473292  0.55644561  0.23470975  1  0  0.102806  0  0.96383  0  0  0.111925  0  1.024977  0  0  0.115304  0  1.022988  0  0  0.11  0.10954  0  1.026345  0
H  H9  1  0.50526583  0.44355407  0.76529119  1  0  0.102794  0  0.963819  0  0  0.111908  0  1.024974  0  0  0.115287  0  1.022985  0  0  0.109999  0.109524  0  1.02634  0
H  H10  1  0.28205999  0.91290668  0.83610780  1  0  0.348939  0  0.939343  0  0  0.307157  0  1.039406  0  0  0.320374  0  1.026144  0  0  0.285997  0.297928  0  1.048481  0
H  H11  1  0.71794017  0.08709376  0.16389546  1  0  0.349061  0  0.939212  0  0  0.307199  0  1.039398  0  0  0.320414  0  1.026136  0  0  0.286026  0.297968  0  1.048475  0
H  H12  1  0.96630143  0.21996347  0.13424833  1  0  0.098247  0  0.962514  0  0  0.102899  0  1.031788  0  0  0.106306  0  1.028519  0  0  0.119782  0.100453  0  1.033904  0
H  H13  1  0.03369418  0.78003391  0.86574644  1  0  0.098243  0  0.962534  0  0  0.102892  0  1.031821  0  0  0.106299  0  1.028552  0  0  0.119755  0.100438  0  1.033947  0
H  H14  1  0.94254467  0.50201049  0.30599953  1  0  0.105631  0  0.943455  0  0  0.117952  0  1.002216  0  0  0.120968  0  0.999465  0  0  0.112668  0.115747  0  1.004265  0
H  H15  1  0.05746231  0.49798762  0.69400040  1  0  0.10562  0  0.943483  0  0  0.117894  0  1.002306  0  0  0.12094  0  0.999517  0  0  0.11265  0.115689  0  1.004354  0
H  H16  1  0.47743198  0.15779380  0.39205685  1  0  0.069909  0  0.97889  0  0  0.077204  0  1.048503  0  0  0.080137  0  1.044727  0  0  0.118568  0.07576  0  1.04971  0
H  H17  1  0.52256867  0.84220510  0.60794272  1  0  0.069853  0  0.978918  0  0  0.077143  0  1.048536  0  0  0.080075  0  1.044762  0  0  0.118541  0.075699  0  1.049742  0
H  H18  1  0.61846764  0.20675077  0.30130605  1  0  0.074946  0  0.963787  0  0  0.083928  0  1.029837  0  0  0.08649  0  1.027213  0  0  0.115169  0.082099  0  1.031521  0
H  H19  1  0.38153301  0.79324812  0.69869564  1  0  0.075027  0  0.963642  0  0  0.083944  0  1.029766  0  0  0.086505  0  1.027142  0  0  0.115172  0.082115  0  1.031449  0
H  H20  1  0.84477426  0.88201353  0.31452447  1  0  0.109588  0  0.953887  0  0  0.121134  0  1.012994  0  0  0.12373  0  1.01217  0  0  0.109097  0.119374  0  1.013378  0
H  H21  1  0.15522481  0.11798694  0.68547375  1  0  0.109653  0  0.953835  0  0  0.121171  0  1.012967  0  0  0.123767  0  1.012139  0  0  0.109123  0.119413  0  1.013346  0
H  H22  1  0.72862578  0.18186051  0.99288616  1  0  0.081587  0  0.958528  0  0  0.086328  0  1.028396  0  0  0.089061  0  1.026443  0  0  0.110173  0.084055  0  1.030192  0
H  H23  1  0.27137108  0.81813996  0.00711332  1  0  0.081548  0  0.958546  0  0  0.086307  0  1.028393  0  0  0.089038  0  1.026444  0  0  0.11014  0.084032  0  1.03019  0
H  H24  1  0.10729314  0.88711965  0.26895684  1  0  0.109316  0  0.933819  0  0  0.118892  0  0.994874  0  0  0.122369  0  0.991738  0  0  0.115163  0.117005  0  0.995871  0
H  H25  1  0.89270704  0.11288082  0.73104075  1  0  0.109325  0  0.933772  0  0  0.118868  0  0.994859  0  0  0.122343  0  0.991721  0  0  0.115162  0.116982  0  0.995853  0
H  H26  1  0.64069830  0.12796895  0.49983926  1  0  0.101563  0  0.948731  0  0  0.112158  0  1.011261  0  0  0.115153  0  1.009106  0  0  0.10972  0.110332  0  1.011906  0
H  H27  1  0.35930456  0.87202994  0.50016259  1  0  0.101587  0  0.948779  0  0  0.112179  0  1.011309  0  0  0.115177  0  1.009152  0  0  0.109723  0.110352  0  1.011955  0
H  H28  1  0.03503763  0.39341403  0.57598173  1  0  0.078282  0  0.981195  0  0  0.085595  0  1.04664  0  0  0.089039  0  1.042801  0  0  0.118679  0.083091  0  1.049266  0
H  H29  1  0.96496318  0.60658799  0.42401538  1  0  0.078243  0  0.981242  0  0  0.08558  0  1.046663  0  0  0.089009  0  1.042839  0  0  0.118664  0.083076  0  1.04929  0
H  H30  1  0.43762511  0.33270913  0.22318874  1  0  0.08539  0  0.972768  0  0  0.095321  0  1.035389  0  0  0.097306  0  1.03502  0  0  0.099812  0.094025  0  1.035348  0
H  H31  1  0.56237521  0.66729443  0.77681206  1  0  0.08544  0  0.972665  0  0  0.095321  0  1.035339  0  0  0.097307  0  1.03497  0  0  0.09979  0.094026  0  1.035298  0
H  H32  1  0.20711182  0.48277003  0.95790686  1  0  0.087365  0  0.938453  0  0  0.101194  0  0.991277  0  0  0.104074  0  0.989702  0  0  0.103943  0.09926  0  0.992264  0
H  H33  1  0.79288914  0.51722964  0.04209495  1  0  0.087359  0  0.93841  0  0  0.101206  0  0.991218  0  0  0.104086  0  0.989645  0  0  0.103946  0.099272  0  0.992206  0
H  H34  1  0.98723340  0.39459124  0.03360188  1  0  0.097066  0  0.952682  0  0  0.106456  0  1.015422  0  0  0.109123  0  1.015128  0  0  0.102834  0.104446  0  1.015817  0
H  H35  1  0.01276836  0.60540766  0.96639776  1  0  0.097068  0  0.952668  0  0  0.10645  0  1.01541  0  0  0.109117  0  1.015116  0  0  0.102839  0.104441  0  1.015806  0
H  H36  1  0.67417548  0.96997510  0.39607127  1  0  0.101378  0  0.940165  0  0  0.115221  0  0.996243  0  0  0.117416  0  0.996399  0  0  0.106025  0.112515  0  0.998697  0
H  H37  1  0.32582549  0.03002458  0.60392841  1  0  0.101347  0  0.940185  0  0  0.115186  0  0.996267  0  0  0.117381  0  0.996424  0  0  0.106023  0.112481  0  0.99872  0
H  H38  1  0.38714795  0.98025985  0.29217889  1  0  0.108634  0  0.947295  0  0  0.121488  0  0.999643  0  0  0.124005  0  1.000412  0  0  0.109919  0.11877  0  1.001541  0
H  H39  1  0.61285271  0.01973906  0.70781926  1  0  0.108697  0  0.947232  0  0  0.121546  0  0.999584  0  0  0.124063  0  1.000354  0  0  0.109929  0.118823  0  1.001487  0
H  H40  1  0.20820061  0.18951725  0.23052534  1  0  0.095496  0  0.961054  0  0  0.103596  0  1.024167  0  0  0.106363  0  1.024085  0  0  0.101201  0.101775  0  1.023937  0
H  H41  1  0.79180033  0.81048786  0.76947640  1  0  0.095442  0  0.961138  0  0  0.103555  0  1.024243  0  0  0.10632  0  1.024161  0  0  0.10117  0.101734  0  1.024013  0
H  H42  1  0.73556961  0.23778794  0.71089632  1  0  0.066767  0  0.964166  0  0  0.073428  0  1.034457  0  0  0.075968  0  1.032708  0  0  0.106639  0.071452  0  1.035827  0
H  H43  1  0.26442710  0.76220943  0.28910066  1  0  0.066723  0  0.964219  0  0  0.073378  0  1.034527  0  0  0.075917  0  1.032779  0  0  0.106642  0.071403  0  1.035895  0
H  H44  1  0.57458170  0.33023915  0.08063315  1  0  0.084836  0  0.957358  0  0  0.096032  0  1.01989  0  0  0.098651  0  1.019845  0  0  0.095836  0.094175  0  1.019978  0
H  H45  1  0.42541799  0.66976286  0.91936742  1  0  0.084838  0  0.957333  0  0  0.096016  0  1.019887  0  0  0.098637  0  1.019833  0  0  0.095831  0.094159  0  1.019974  0
H  H46  1  0.75240085  0.31029783  0.57655373  1  0  0.122662  0  0.96237  0  0  0.131061  0  1.021182  0  0  0.134683  0  1.019845  0  0  0.115703  0.128741  0  1.021947  0
H  H47  1  0.24759901  0.68970185  0.42344729  1  0  0.122641  0  0.962375  0  0  0.131027  0  1.021195  0  0  0.134648  0  1.01986  0  0  0.115706  0.128708  0  1.021959  0
C  C48  1  0.29466011  0.45219301  0.33548354  1  0  0.691834  0  3.878703  0  0  0.646849  0  4.166523  0  0  0.682027  0  4.155876  0  0  0.217477  0.622755  0  4.172736  0
C  C49  1  0.70533912  0.54780512  0.66451654  1  0  0.691846  0  3.878649  0  0  0.646868  0  4.166531  0  0  0.682046  0  4.155881  0  0  0.217572  0.622771  0  4.172752  0
C  C50  1  0.68299446  0.40891025  0.38240882  1  0  0.706141  0  3.875066  0  0  0.65657  0  4.169599  0  0  0.692268  0  4.159709  0  0  0.233669  0.632343  0  4.175774  0
C  C51  1  0.31700855  0.59109176  0.61759199  1  0  0.706287  0  3.874749  0  0  0.656686  0  4.169317  0  0  0.692384  0  4.159425  0  0  0.233717  0.632456  0  4.175495  0
C  C52  1  0.11419440  0.42574226  0.17746605  1  0  0.053856  0  3.734626  0  0  0.061987  0  3.963856  0  0  0.063821  0  3.989332  0  0  0.004619  0.060533  0  3.947228  0
C  C53  1  0.88580199  0.57425433  0.82253224  1  0  0.053689  0  3.734797  0  0  0.061942  0  3.963921  0  0  0.063774  0  3.989404  0  0  0.004597  0.06049  0  3.947291  0
C  C54  1  0.97747882  0.36966828  0.21743975  1  0  0.02107  0  3.759374  0  0  0.039369  0  4.001307  0  0  0.034589  0  4.024087  0  0  0.004175  0.041532  0  3.986816  0
C  C55  1  0.02252120  0.63032908  0.78255959  1  0  0.020904  0  3.759254  0  0  0.0392  0  4.001169  0  0  0.034418  0  4.023961  0  0  0.004103  0.041362  0  3.986675  0
C  C56  1  0.25974785  0.47179934  0.23417964  1  0  -0.105643  0  3.699172  0  0  -0.090448  0  3.934728  0  0  -0.099175  0  3.956905  0  0  -0.012856  -0.084795  0  3.920167  0
C  C57  1  0.74025028  0.52819879  0.76582107  1  0  -0.105377  0  3.699045  0  0  -0.090323  0  3.934729  0  0  -0.099047  0  3.956904  0  0  -0.012825  -0.084669  0  3.920168  0
C  C58  1  0.44497939  0.25253231  0.66797460  1  0  0.628921  0  3.966497  0  0  0.582547  0  4.260621  0  0  0.616745  0  4.252981  0  0  0.186007  0.559595  0  4.264913  0
C  C59  1  0.55501794  0.74746659  0.33202686  1  0  0.628962  0  3.96614  0  0  0.582598  0  4.260264  0  0  0.616794  0  4.252624  0  0  0.186037  0.559647  0  4.264562  0
C  C60  1  0.36474657  0.52785182  0.09198981  1  0  -0.073208  0  3.775902  0  0  -0.088438  0  4.030921  0  0  -0.091955  0  4.053641  0  0  -0.090201  -0.086027  0  4.015695  0
C  C61  1  0.63525329  0.47214786  0.90800979  1  0  -0.073225  0  3.775885  0  0  -0.088453  0  4.030905  0  0  -0.091971  0  4.053625  0  0  -0.0902  -0.086043  0  4.015678  0
C  C62  1  0.43437272  0.20975244  0.83665090  1  0  -0.052023  0  3.675631  0  0  -0.091686  0  3.925725  0  0  -0.087512  0  3.941941  0  0  -0.061461  -0.094177  0  3.914556  0
C  C63  1  0.56562492  0.79024724  0.16335067  1  0  -0.052209  0  3.67568  0  0  -0.091901  0  3.925755  0  0  -0.087729  0  3.941977  0  0  -0.061508  -0.094389  0  3.914585  0
C  C64  1  0.22597937  0.10177949  0.09585455  1  0  -0.041971  0  3.722837  0  0  -0.066896  0  3.968852  0  0  -0.065203  0  3.988345  0  0  -0.076293  -0.068098  0  3.9561  0
C  C65  1  0.77402095  0.89822407  0.90414624  1  0  -0.041923  0  3.722706  0  0  -0.066792  0  3.968729  0  0  -0.065101  0  3.988222  0  0  -0.07631  -0.067982  0  3.955985  0
C  C66  1  0.38261493  0.52315880  0.19067413  1  0  -0.062733  0  3.733399  0  0  -0.085643  0  3.982826  0  0  -0.085661  0  4.003893  0  0  -0.07919  -0.085547  0  3.968596  0
C  C67  1  0.61738524  0.47684166  0.80932559  1  0  -0.062769  0  3.733427  0  0  -0.085637  0  3.982884  0  0  -0.085656  0  4.003952  0  0  -0.0792  -0.085542  0  3.968653  0
C  C68  1  0.91545139  0.26300636  0.18599444  1  0  0.096563  0  3.632102  0  0  0.053494  0  3.891068  0  0  0.061306  0  3.904364  0  0  0.057425  0.049517  0  3.881156  0
C  C69  1  0.08455020  0.73699488  0.81400476  1  0  0.096652  0  3.63202  0  0  0.053565  0  3.891052  0  0  0.061378  0  3.904348  0  0  0.057467  0.049594  0  3.881146  0
C  C70  1  0.77145731  0.36053660  0.31445119  1  0  -0.1167  0  3.725701  0  0  -0.089258  0  3.963848  0  0  -0.102013  0  3.98772  0  0  -0.012837  -0.082128  0  3.948847  0
C  C71  1  0.22854698  0.63946307  0.68554944  1  0  -0.116877  0  3.725894  0  0  -0.08942  0  3.96401  0  0  -0.102178  0  3.987889  0  0  -0.012849  -0.082289  0  3.949012  0
C  C72  1  0.90195007  0.41856825  0.28203743  1  0  -0.0442  0  3.639544  0  0  -0.082699  0  3.883869  0  0  -0.077768  0  3.900369  0  0  -0.056591  -0.086289  0  3.873938  0
C  C73  1  0.09805740  0.58142832  0.71796022  1  0  -0.043965  0  3.639371  0  0  -0.082421  0  3.883677  0  0  -0.077511  0  3.900165  0  0  -0.056466  -0.086012  0  3.873752  0
C  C74  1  0.51506623  0.22567412  0.75881855  1  0  -0.115204  0  3.782049  0  0  -0.087689  0  4.016448  0  0  -0.099562  0  4.04053  0  0  -0.019402  -0.080223  0  4.000804  0
C  C75  1  0.48492920  0.77432558  0.24118074  1  0  -0.115157  0  3.781933  0  0  -0.087651  0  4.016348  0  0  -0.099522  0  4.040428  0  0  -0.019425  -0.080186  0  4.000704  0
C  C76  1  0.11138775  0.11347559  0.40962673  1  0  0.145729  0  3.748771  0  0  0.141269  0  3.987313  0  0  0.1459  0  4.007632  0  0  0.127167  0.138052  0  3.973604  0
C  C77  1  0.88861305  0.88652643  0.59037179  1  0  0.145763  0  3.748755  0  0  0.141228  0  3.987381  0  0  0.145886  0  4.007666  0  0  0.127171  0.137967  0  3.973731  0
C  C78  1  0.35675465  0.11430130  0.38057963  1  0  0.145761  0  3.728435  0  0  0.11388  0  3.991686  0  0  0.12204  0  4.006448  0  0  0.06076  0.109097  0  3.97977  0
C  C79  1  0.64324663  0.88569916  0.61942017  1  0  0.145844  0  3.728484  0  0  0.113983  0  3.991712  0  0  0.122144  0  4.006477  0  0  0.06082  0.1092  0  3.979791  0
C  C80  1  0.72097041  0.25423892  0.27943929  1  0  0.125684  0  3.704099  0  0  0.080819  0  3.961127  0  0  0.089347  0  3.978431  0  0  0.054428  0.076424  0  3.948452  0
C  C81  1  0.27903246  0.74575997  0.72056114  1  0  0.125639  0  3.704016  0  0  0.080847  0  3.961059  0  0  0.089376  0  3.978361  0  0  0.054407  0.076452  0  3.948385  0
C  C82  1  0.88912850  0.96119930  0.35258143  1  0  -0.085983  0  3.713501  0  0  -0.11085  0  3.968916  0  0  -0.113426  0  3.991274  0  0  -0.078542  -0.109048  0  3.953501  0
C  C83  1  0.11087008  0.03880273  0.64741694  1  0  -0.086043  0  3.713423  0  0  -0.110879  0  3.968808  0  0  -0.113453  0  3.991164  0  0  -0.078554  -0.109076  0  3.953392  0
C  C84  1  0.66526287  0.19463868  0.92698790  1  0  0.087996  0  3.673193  0  0  0.054864  0  3.933471  0  0  0.060965  0  3.948543  0  0  0.047045  0.051069  0  3.923612  0
C  C85  1  0.33473256  0.80536102  0.07301067  1  0  0.087997  0  3.67308  0  0  0.054823  0  3.933346  0  0  0.060926  0  3.948419  0  0  0.04705  0.051024  0  3.923504  0
C  C86  1  0.15096836  0.96358328  0.31295644  1  0  -0.033887  0  3.665056  0  0  -0.057783  0  3.9097  0  0  -0.055744  0  3.928292  0  0  -0.054215  -0.058771  0  3.896416  0
C  C87  1  0.84903230  0.03641563  0.68704029  1  0  -0.033913  0  3.665108  0  0  -0.057773  0  3.909712  0  0  -0.055728  0  3.928304  0  0  -0.054229  -0.058762  0  3.896424  0
C  C88  1  0.50931067  0.19259701  0.92269323  1  0  0.014524  0  3.779773  0  0  0.033136  0  4.019023  0  0  0.028898  0  4.042025  0  0  -0.000193  0.035323  0  4.004113  0
C  C89  1  0.49068809  0.80740268  0.07730629  1  0  0.014562  0  3.779641  0  0  0.033241  0  4.018787  0  0  0.029004  0  4.041789  0  0  -0.00015  0.035428  0  4.003878  0
C  C90  1  0.42944794  0.18233840  0.00861948  1  0  0.05548  0  3.752343  0  0  0.060969  0  3.984345  0  0  0.063614  0  4.009212  0  0  0.000215  0.059305  0  3.967515  0
C  C91  1  0.57055428  0.81766438  0.99138136  1  0  0.055521  0  3.752302  0  0  0.061013  0  3.984282  0  0  0.063658  0  4.009146  0  0  0.000217  0.059347  0  3.967457  0
C  C92  1  0.01142612  0.16586845  0.45486505  1  0  0.147419  0  3.737679  0  0  0.142928  0  3.974527  0  0  0.147004  0  3.995157  0  0  0.127939  0.139787  0  3.96082  0
C  C93  1  0.98857437  0.83413279  0.54513336  1  0  0.147386  0  3.737748  0  0  0.142905  0  3.974601  0  0  0.146974  0  3.995227  0  0  0.127954  0.139778  0  3.960902  0
C  C94  1  0.76103342  0.16605030  0.49785042  1  0  -0.047707  0  3.694104  0  0  -0.074747  0  3.950013  0  0  -0.073062  0  3.968357  0  0  -0.062695  -0.07551  0  3.936671  0
C  C95  1  0.23896975  0.83394937  0.50215083  1  0  -0.047754  0  3.694051  0  0  -0.074813  0  3.949957  0  0  -0.073129  0  3.968298  0  0  -0.062695  -0.075577  0  3.936615  0
C  C96  1  0.98038874  0.31353979  0.54227807  1  0  0.147011  0  3.706574  0  0  0.117982  0  3.960057  0  0  0.124623  0  3.976337  0  0  0.06057  0.114116  0  3.948721  0
C  C97  1  0.01961254  0.68646068  0.45772031  1  0  0.146922  0  3.706591  0  0  0.11787  0  3.960075  0  0  0.124524  0  3.976359  0  0  0.060528  0.114002  0  3.948743  0
C  C98  1  0.85342517  0.11285159  0.44992022  1  0  0.019649  0  3.799285  0  0  0.034939  0  4.033207  0  0  0.032285  0  4.058546  0  0  -0.002274  0.037099  0  4.015568  0
C  C99  1  0.14657611  0.88714887  0.55007957  1  0  0.019576  0  3.79934  0  0  0.034902  0  4.033225  0  0  0.032245  0  4.058566  0  0  -0.002308  0.03706  0  4.015583  0
C  C100  1  0.24572686  0.00031481  0.94425661  1  0  0.639088  0  3.829481  0  0  0.593302  0  4.124902  0  0  0.626466  0  4.116269  0  0  0.225338  0.570779  0  4.130276  0
C  C101  1  0.75428089  0.99968795  0.05574463  1  0  0.638859  0  3.829662  0  0  0.593099  0  4.125029  0  0  0.626268  0  4.116388  0  0  0.22529  0.570579  0  4.130401  0
C  C102  1  0.39912608  0.26745378  0.16485135  1  0  -0.043788  0  3.774314  0  0  -0.061184  0  4.03018  0  0  -0.060352  0  4.051417  0  0  -0.087338  -0.061563  0  4.015455  0
C  C103  1  0.60087314  0.73254979  0.83514866  1  0  -0.043761  0  3.774239  0  0  -0.061113  0  4.030097  0  0  -0.060283  0  4.051334  0  0  -0.087272  -0.061492  0  4.015371  0
C  C104  1  0.04916681  0.01162326  0.35709405  1  0  0.025305  0  3.776484  0  0  0.043101  0  4.004084  0  0  0.040513  0  4.028777  0  0  0.002778  0.04507  0  3.987253  0
C  C105  1  0.95083337  0.98837722  0.64290283  1  0  0.025296  0  3.776792  0  0  0.043123  0  4.004329  0  0  0.040527  0  4.029016  0  0  0.00281  0.045104  0  3.987507  0
C  C106  1  0.22250886  0.48088420  0.03549565  1  0  -0.046288  0  3.770246  0  0  -0.060861  0  4.019842  0  0  -0.060507  0  4.039739  0  0  -0.082037  -0.060968  0  4.006247  0
C  C107  1  0.77748989  0.51911549  0.96450458  1  0  -0.046301  0  3.770164  0  0  -0.060897  0  4.019778  0  0  -0.060542  0  4.039672  0  0  -0.082041  -0.061005  0  4.006183  0
C  C108  1  0.09843032  0.43080084  0.07817669  1  0  -0.11547  0  3.731574  0  0  -0.133767  0  3.976289  0  0  -0.13826  0  3.998553  0  0  -0.084696  -0.130375  0  3.961156  0
C  C109  1  0.90157286  0.56919884  0.92182315  1  0  -0.115381  0  3.731503  0  0  -0.13368  0  3.976151  0  0  -0.138173  0  3.998415  0  0  -0.084656  -0.130288  0  3.961016  0
C  C110  1  0.79531495  0.00959714  0.39809824  1  0  -0.090874  0  3.723712  0  0  -0.115669  0  3.981956  0  0  -0.118551  0  4.004709  0  0  -0.082544  -0.113662  0  3.967742  0
C  C111  1  0.20468712  0.99040254  0.60190082  1  0  -0.090789  0  3.72368  0  0  -0.115596  0  3.981887  0  0  -0.118485  0  4.004655  0  0  -0.082551  -0.11359  0  3.967672  0
C  C112  1  0.30568541  0.01494149  0.32550112  1  0  -0.116718  0  3.731992  0  0  -0.12872  0  3.983702  0  0  -0.136039  0  4.006262  0  0  -0.07944  -0.124042  0  3.969925  0
C  C113  1  0.69431082  0.98505743  0.67449742  1  0  -0.116814  0  3.731941  0  0  -0.128826  0  3.983636  0  0  -0.136144  0  4.006189  0  0  -0.079487  -0.124146  0  3.969861  0
C  C114  1  0.30360091  0.09811397  0.01535019  1  0  -0.113188  0  3.715228  0  0  -0.094859  0  3.944054  0  0  -0.104833  0  3.967424  0  0  -0.01601  -0.088429  0  3.928443  0
C  C115  1  0.69639877  0.90188803  0.98465250  1  0  -0.113129  0  3.715002  0  0  -0.09486  0  3.943871  0  0  -0.104835  0  3.967238  0  0  -0.016016  -0.08843  0  3.928256  0
C  C116  1  0.27139328  0.18623622  0.16951292  1  0  -0.078619  0  3.759656  0  0  -0.091777  0  4.015325  0  0  -0.095947  0  4.036932  0  0  -0.093626  -0.088938  0  4.000594  0
C  C117  1  0.72860766  0.81376889  0.83048881  1  0  -0.078687  0  3.759905  0  0  -0.091844  0  4.015529  0  0  -0.096013  0  4.037139  0  0  -0.093622  -0.089002  0  4.00079  0
C  C118  1  0.66987889  0.22446423  0.77062128  1  0  0.098507  0  3.737223  0  0  0.062758  0  3.998801  0  0  0.069857  0  4.015214  0  0  0.040812  0.058365  0  3.987618  0
C  C119  1  0.33011734  0.77553469  0.22937797  1  0  0.098579  0  3.737362  0  0  0.06283  0  3.998938  0  0  0.069928  0  4.015352  0  0  0.040807  0.058438  0  3.987753  0
C  C120  1  0.47680071  0.26536162  0.08513029  1  0  -0.132794  0  3.764528  0  0  -0.152552  0  4.01753  0  0  -0.158274  0  4.04081  0  0  -0.096833  -0.148363  0  4.001235  0
C  C121  1  0.52319819  0.73464117  0.91486961  1  0  -0.132821  0  3.764528  0  0  -0.152561  0  4.017507  0  0  -0.158279  0  4.040789  0  0  -0.09684  -0.148369  0  4.001211  0
C  C122  1  0.82390480  0.26732927  0.54240662  1  0  -0.114862  0  3.728596  0  0  -0.128662  0  3.984461  0  0  -0.135169  0  4.005194  0  0  -0.081737  -0.125254  0  3.970768  0
C  C123  1  0.17609585  0.73266963  0.45759437  1  0  -0.114688  0  3.728465  0  0  -0.128466  0  3.984326  0  0  -0.13497  0  4.005053  0  0  -0.081697  -0.12506  0  3.970633  0
N  N124  1  0.26334144  0.16339657  0.42027529  1  0  -0.420949  0  3.23758  0  0  -0.370301  0  3.507325  0  0  -0.384105  0  3.523698  0  0  -0.372287  -0.360433  0  3.495174  0
N  N125  1  0.73665590  0.83660235  0.57972262  1  0  -0.420947  0  3.237479  0  0  -0.370288  0  3.507242  0  0  -0.384096  0  3.523597  0  0  -0.372306  -0.360413  0  3.495105  0
N  N126  1  0.07291520  0.26419857  0.50186827  1  0  -0.402082  0  3.229702  0  0  -0.348448  0  3.491403  0  0  -0.361691  0  3.508475  0  0  -0.371975  -0.339744  0  3.479629  0
N  N127  1  0.92708387  0.73580190  0.49813066  1  0  -0.402029  0  3.229714  0  0  -0.348402  0  3.491421  0  0  -0.361643  0  3.508485  0  0  -0.37197  -0.339704  0  3.479643  0
N  N128  1  0.79058722  0.20668703  0.21660173  1  0  -0.295335  0  3.202522  0  0  -0.229963  0  3.458089  0  0  -0.244847  0  3.473561  0  0  -0.303653  -0.219996  0  3.446603  0
N  N129  1  0.20941454  0.79331187  0.78339721  1  0  -0.295324  0  3.202505  0  0  -0.230024  0  3.458105  0  0  -0.244907  0  3.473575  0  0  -0.303683  -0.220055  0  3.446618  0
N  N130  1  0.74488845  0.20997532  0.85276401  1  0  -0.312471  0  3.070547  0  0  -0.279909  0  3.346185  0  0  -0.289722  0  3.357797  0  0  -0.331465  -0.272976  0  3.336754  0
N  N131  1  0.25510825  0.79002204  0.14723580  1  0  -0.31242  0  3.070554  0  0  -0.279853  0  3.346193  0  0  -0.289666  0  3.357806  0  0  -0.331415  -0.27292  0  3.33676  0
O  O132  1  0.56611665  0.34881549  0.40720256  1  0  -0.71681  0  2.026424  0  0  -0.662623  0  2.286587  0  0  -0.688267  0  2.27701  0  0  -0.376569  -0.645276  0  2.293115  0
O  O133  1  0.43388494  0.65118574  0.59279664  1  0  -0.716897  0  2.02642  0  0  -0.662684  0  2.286569  0  0  -0.688328  0  2.27699  0  0  -0.376599  -0.645347  0  2.293097  0
O  O134  1  0.40467511  0.51620110  0.39505418  1  0  -0.813577  0  2.103667  0  0  -0.748464  0  2.361429  0  0  -0.773956  0  2.349049  0  0  -0.414201  -0.729948  0  2.369393  0
O  O135  1  0.59532302  0.48379703  0.60494511  1  0  -0.813616  0  2.103712  0  0  -0.748493  0  2.361485  0  0  -0.773985  0  2.349105  0  0  -0.414243  -0.729972  0  2.369454  0
O  O136  1  0.32828043  0.28955381  0.66895720  1  0  -0.69138  0  1.933886  0  0  -0.644161  0  2.167074  0  0  -0.667437  0  2.156891  0  0  -0.384282  -0.627996  0  2.173359  0
O  O137  1  0.67171722  0.71044589  0.33104154  1  0  -0.69139  0  1.933758  0  0  -0.644178  0  2.166944  0  0  -0.667455  0  2.156762  0  0  -0.384263  -0.628017  0  2.173222  0
O  O138  1  0.50748627  0.24264902  0.59174287  1  0  -0.693918  0  2.012588  0  0  -0.643812  0  2.262276  0  0  -0.668596  0  2.254468  0  0  -0.378974  -0.62646  0  2.266565  0
O  O139  1  0.49251452  0.75735298  0.40825849  1  0  -0.693978  0  2.012511  0  0  -0.643878  0  2.262202  0  0  -0.668662  0  2.254394  0  0  -0.379033  -0.626535  0  2.266493  0
O  O140  1  0.73039335  0.50656210  0.40967136  1  0  -0.71861  0  2.027174  0  0  -0.662103  0  2.277202  0  0  -0.687353  0  2.265397  0  0  -0.382212  -0.64379  0  2.284484  0
O  O141  1  0.26960809  0.49343602  0.59032818  1  0  -0.718667  0  2.026892  0  0  -0.662153  0  2.27696  0  0  -0.687411  0  2.265164  0  0  -0.382255  -0.643827  0  2.284243  0
O  O142  1  0.21991781  0.36752143  0.35839822  1  0  -0.676283  0  2.014126  0  0  -0.627987  0  2.256631  0  0  -0.653207  0  2.251337  0  0  -0.370949  -0.60985  0  2.259145  0
O  O143  1  0.78007890  0.63247593  0.64159947  1  0  -0.676374  0  2.014212  0  0  -0.628075  0  2.256736  0  0  -0.653299  0  2.25145  0  0  -0.371043  -0.609947  0  2.259251  0
O  O144  1  0.33207081  0.98679001  0.87553292  1  0  -0.550034  0  2.111173  0  0  -0.498682  0  2.335241  0  0  -0.521289  0  2.323235  0  0  -0.339658  -0.482683  0  2.343025  0
O  O145  1  0.66793077  0.01321120  0.12447124  1  0  -0.550087  0  2.110833  0  0  -0.498686  0  2.334928  0  0  -0.521298  0  2.322927  0  0  -0.339693  -0.48269  0  2.342718  0
O  O146  1  0.12669094  0.93468959  0.95165008  1  0  -0.556034  0  1.954898  0  0  -0.514162  0  2.171105  0  0  -0.53452  0  2.162893  0  0  -0.290047  -0.500196  0  2.176698  0
O  O147  1  0.87330243  0.06530774  0.04835517  1  0  -0.555897  0  1.955331  0  0  -0.514031  0  2.171537  0  0  -0.534388  0  2.16332  0  0  -0.290019  -0.500068  0  2.177133  0
