# generated using pymatgen
data_Zn2H20C23(N4F)2
_symmetry_space_group_name_H-M   'P 1'
_cell_length_a   14.99793317
_cell_length_b   15.07044450
_cell_length_c   15.06024837
_cell_angle_alpha   119.37633831
_cell_angle_beta   102.53056570
_cell_angle_gamma   106.79782805
_symmetry_Int_Tables_number   1
_chemical_formula_structural   Zn2H20C23(N4F)2
_chemical_formula_sum   'Zn4 H40 C46 N16 F4'
_cell_volume   2563.78336037
_cell_formula_units_Z   2
loop_
 _symmetry_equiv_pos_site_id
 _symmetry_equiv_pos_as_xyz
  1  'x, y, z'
loop_
 _atom_site_type_symbol
 _atom_site_label
 _atom_site_symmetry_multiplicity
 _atom_site_fract_x
 _atom_site_fract_y
 _atom_site_fract_z
 _atom_site_occupancy
 _atom_site_pbe_bader_charge
 _atom_site_pbe_bader_spin_density
 _atom_site_pbe_cm5_charge
 _atom_site_pbe_ddec_charge
 _atom_site_pbe_ddec_spin_density
 _atom_site_pbe_ddec_sum_bond_order
 _atom_site_pbe_magmom
C  C0  1  0.72671692  0.22860410  0.11824908  1  0.391559  0  0.004971  -0.059967  0  3.978367  0
C  C1  1  0.10283293  0.60149106  0.87576805  1  0.403538  0  0.00647  -0.057887  0  3.98065  0
C  C2  1  0.87658919  0.77427475  0.57953150  1  0.420262  0  0.095422  0.177532  0  3.95564  0
C  C3  1  0.20361235  0.31132653  0.41964918  1  0.471927  0  0.095672  0.17566  0  3.96369  0
C  C4  1  0.81231532  0.75793667  0.48280332  1  0.090786  0  -0.047455  -0.157493  0  4.122435  0
C  C5  1  0.28400718  0.34479098  0.51680972  1  0.026858  0  -0.048764  -0.160722  0  4.130643  0
C  C6  1  0.10409065  0.58850422  0.30871085  1  0.011737  0  -0.039072  0.012199  0  4.126203  0
C  C7  1  0.27704659  0.78838211  0.68898941  1  -0.010329  0  -0.039582  0.010434  0  4.12335  0
C  C8  1  0.39964045  0.26233006  0.44992085  1  0.069317  0  -0.12413  -0.220951  0  4.102528  0
C  C9  1  0.81006838  0.94657219  0.54865585  1  0.00075  0  -0.126443  -0.223688  0  4.102379  0
C  C10  1  0.37987616  0.33852444  0.52904883  1  0.365764  0  0.086279  0.245124  0  4.079124  0
C  C11  1  0.78318183  0.83520530  0.46875118  1  0.444564  0  0.085431  0.243485  0  4.079829  0
C  C12  1  0.49693557  0.27166909  0.44611768  1  0.019823  0  -0.125602  -0.226166  0  4.096829  0
C  C13  1  0.81331365  0.03982865  0.54265685  1  0.089794  0  -0.126721  -0.225049  0  4.09467  0
C  C14  1  0.59429486  0.33316650  0.52862110  1  0.468267  0  0.089532  0.243528  0  4.085842  0
C  C15  1  0.81507542  0.05364404  0.46040761  1  0.372952  0  0.08867  0.242062  0  4.076525  0
C  C16  1  0.07031097  0.69969625  0.05160878  1  -0.002173  0  -0.106303  -0.142993  0  4.056299  0
C  C17  1  0.64698649  0.01766407  0.94719476  1  -0.094128  0  -0.106409  -0.14432  0  4.058599  0
C  C18  1  0.12449255  0.67543540  0.11385301  1  -0.043117  0  -0.106979  -0.100952  0  4.106629  0
C  C19  1  0.55881783  0.00659099  0.88417927  1  0.042562  0  -0.106112  -0.098744  0  4.107812  0
C  C20  1  0.14426081  0.62522785  0.24710399  1  -0.044617  0  -0.098884  -0.130032  0  4.046554  0
C  C21  1  0.37518300  0.89003432  0.75066296  1  -0.043677  0  -0.099248  -0.129018  0  4.048602  0
C  C22  1  0.86143781  0.17112044  0.38591052  1  0.419151  0  0.009481  -0.030625  0  3.953277  0
C  C23  1  0.78526631  0.45963009  0.60395053  1  0.39732  0  0.009105  -0.031485  0  3.952693  0
C  C24  1  0.10560153  0.67234008  0.20167382  1  -0.010171  0  -0.10726  -0.101547  0  4.094196  0
C  C25  1  0.46846459  0.89904598  0.79833023  1  -0.025891  0  -0.107719  -0.104463  0  4.100267  0
C  C26  1  0.91707246  0.27348463  0.57187253  1  0.485135  0  0.016  -0.024924  0  3.94697  0
C  C27  1  0.70200895  0.33825955  0.41717851  1  0.436061  0  0.013601  -0.026089  0  3.944158  0
C  C28  1  0.02407472  0.70568478  0.88052559  1  0.425117  0  0.002396  -0.069006  0  3.998214  0
C  C29  1  0.82512719  0.14417950  0.11600643  1  0.432429  0  0.001503  -0.070359  0  3.999062  0
C  C30  1  0.72838099  0.12374646  0.05116555  1  0.025747  0  -0.043239  0.011684  0  4.148011  0
C  C31  1  0.06872329  0.67402205  0.94528563  1  0.002768  0  -0.04311  0.010958  0  4.153053  0
C  C32  1  0.85538601  0.16031916  0.47245186  1  0.006639  0  -0.04569  -0.101411  0  4.143683  0
C  C33  1  0.68849874  0.36796160  0.51604950  1  0.007282  0  -0.04371  -0.097619  0  4.137967  0
C  C34  1  0.78945148  0.64744087  0.39253903  1  0.40687  0  0.007649  -0.039246  0  4.018243  0
C  C35  1  0.25724075  0.40174716  0.60516785  1  0.424822  0  0.009111  -0.036243  0  4.021213  0
C  C36  1  0.12320809  0.51352797  0.33098324  1  0.424351  0  0.008227  -0.053538  0  3.946325  0
C  C37  1  0.17938479  0.78495838  0.66432582  1  0.408626  0  0.008316  -0.051045  0  3.952419  0
C  C38  1  0.25472776  0.67709034  0.65857141  1  0.434377  0  0.009775  -0.045501  0  3.929092  0
C  C39  1  0.02363510  0.59825525  0.34043220  1  0.401362  0  0.009237  -0.047563  0  3.937328  0
C  C40  1  0.93059824  0.87457663  0.70127339  1  0.00012  0  -0.15374  -0.208894  0  3.98604  0
C  C41  1  0.02624128  0.97476786  0.72982142  1  0.010985  0  -0.164457  -0.089795  0  3.959849  0
C  C42  1  0.07799073  0.07570967  0.85462338  1  -0.063585  0  -0.244316  -0.354154  0  3.991252  0
C  C43  1  0.19200816  0.25939815  0.30131019  1  0.007506  0  -0.153183  -0.206381  0  3.982742  0
C  C44  1  0.27809198  0.33626112  0.29317822  1  -0.024598  0  -0.165382  -0.091844  0  3.957604  0
C  C45  1  0.25866987  0.28858991  0.17124413  1  -0.048825  0  -0.245241  -0.356558  0  3.988852  0
F  F46  1  0.45922219  0.43107096  0.63230920  1  -0.629347  0  -0.11723  -0.156457  0  1.339578  0
F  F47  1  0.72714314  0.78515269  0.35690131  1  -0.621522  0  -0.114624  -0.15262  0  1.34883  0
F  F48  1  0.61188833  0.38049024  0.63884634  1  -0.626304  0  -0.112483  -0.147894  0  1.346545  0
F  F49  1  0.79220445  0.96194491  0.35521643  1  -0.626922  0  -0.112157  -0.148174  0  1.354574  0
H  H50  1  0.66622101  0.25237894  0.10340089  1  0.079023  0  0.117242  0.103902  0  0.998812  0
H  H51  1  0.13993064  0.55443975  0.88975530  1  0.081648  0  0.116839  0.103548  0  0.998804  0
H  H52  1  0.49312408  0.22959582  0.36113257  1  0.064601  0  0.102609  0.119342  0  0.993275  0
H  H53  1  0.83214379  0.11860475  0.62238008  1  0.066636  0  0.103938  0.122375  0  0.989074  0
H  H54  1  0.04707341  0.69705044  0.22230415  1  0.018817  0  0.097664  0.097082  0  0.989132  0
H  H55  1  0.47385517  0.82151903  0.78040246  1  0.030868  0  0.098246  0.098702  0  0.989935  0
H  H56  1  0.17908346  0.64511046  0.08899768  1  0.021715  0  0.096315  0.09341  0  0.995617  0
H  H57  1  0.55170944  0.08438395  0.90627226  1  0.032058  0  0.095799  0.093048  0  0.994267  0
H  H58  1  0.20218378  0.60038090  0.22472276  1  0.035959  0  0.096963  0.096485  0  0.99618  0
H  H59  1  0.37167705  0.96889161  0.77044811  1  0.036873  0  0.096422  0.095333  0  0.997285  0
H  H60  1  0.01795385  0.73294473  0.07848939  1  0.034717  0  0.096277  0.097208  0  0.996343  0
H  H61  1  0.65461455  0.93981706  0.92287666  1  0.053025  0  0.096374  0.097631  0  0.996797  0
H  H62  1  0.82530101  0.10531777  0.29542005  1  0.1074  0  0.117461  0.107323  0  1.009288  0
H  H63  1  0.80964109  0.50893417  0.69447482  1  0.117784  0  0.117753  0.109174  0  1.006621  0
H  H64  1  0.93529223  0.30609876  0.65920848  1  0.079157  0  0.1195  0.10555  0  0.995596  0
H  H65  1  0.64824180  0.27140908  0.32917078  1  0.098139  0  0.119777  0.10586  0  0.99665  0
H  H66  1  0.98687644  0.76058740  0.90037885  1  0.040921  0  0.114902  0.102925  0  1.000165  0
H  H67  1  0.85958213  0.08661922  0.09760224  1  0.052243  0  0.115803  0.104652  0  0.997801  0
H  H68  1  0.74326243  0.60147407  0.30300807  1  0.081727  0  0.118642  0.109934  0  0.994199  0
H  H69  1  0.29871064  0.44273912  0.69453184  1  0.09407  0  0.120852  0.111804  0  0.98877  0
H  H70  1  0.17907587  0.48168606  0.31869738  1  0.082059  0  0.113332  0.101252  0  1.032249  0
H  H71  1  0.15975221  0.85222043  0.67425025  1  0.081999  0  0.112526  0.098379  0  1.032035  0
H  H72  1  0.30592076  0.63947793  0.66248422  1  0.082744  0  0.116904  0.105892  0  1.006579  0
H  H73  1  0.98357225  0.64728019  0.33836075  1  0.089805  0  0.11719  0.105725  0  1.004249  0
H  H74  1  0.33113746  0.19164406  0.37166762  1  0.072855  0  0.103599  0.119393  0  1.002445  0
H  H75  1  0.84345739  0.97257952  0.63461003  1  0.061899  0  0.101306  0.115042  0  1.025492  0
H  H76  1  0.02488246  0.10966942  0.87914880  1  0.013447  0  0.084851  0.108694  0  1.005442  0
H  H77  1  0.10260409  0.04964387  0.90832606  1  -0.001499  0  0.083054  0.105125  0  1.014724  0
H  H78  1  0.14655306  0.14668197  0.87463054  1  0.046523  0  0.088419  0.116552  0  0.998418  0
H  H79  1  0.08086135  0.94312839  0.70631993  1  0.004942  0  0.086647  0.073619  0  1.009855  0
H  H80  1  0.00428993  0.00247533  0.67692229  1  0.037449  0  0.09095  0.084043  0  0.993858  0
H  H81  1  0.87664612  0.90585512  0.72809898  1  0.040632  0  0.099024  0.10167  0  0.974532  0
H  H82  1  0.95446545  0.84499524  0.75205788  1  0.014709  0  0.092667  0.085873  0  0.994265  0
H  H83  1  0.25298792  0.20210315  0.12543415  1  0.044778  0  0.08438  0.108503  0  1.008452  0
H  H84  1  0.18616838  0.28182681  0.12536486  1  -0.003667  0  0.083656  0.107604  0  1.011972  0
H  H85  1  0.32123826  0.34369719  0.16683415  1  0.017852  0  0.08832  0.115911  0  0.999655  0
H  H86  1  0.28463990  0.42321445  0.33836839  1  0.014855  0  0.088389  0.07662  0  0.99538  0
H  H87  1  0.35234228  0.34597701  0.33872315  1  0.050441  0  0.089792  0.085055  0  1.000183  0
H  H88  1  0.18888444  0.17400787  0.26222412  1  0.02461  0  0.096254  0.09704  0  0.978024  0
H  H89  1  0.11680044  0.24449635  0.25034765  1  0.006504  0  0.091477  0.083963  0  0.997541  0
N  N90  1  0.81457135  0.30383512  0.21385771  1  -0.808618  0  -0.272741  -0.171212  0  3.56569  0
N  N91  1  0.08053851  0.59172647  0.77908019  1  -0.799638  0  -0.274059  -0.172512  0  3.570795  0
N  N92  1  0.92325732  0.28153888  0.43135316  1  -0.798576  0  -0.279937  -0.185082  0  3.60782  0
N  N93  1  0.84958297  0.48358290  0.55979655  1  -0.786471  0  -0.281935  -0.189225  0  3.62411  0
N  N94  1  0.95739272  0.34404657  0.54538032  1  -0.791007  0  -0.279074  -0.170878  0  3.624235  0
N  N95  1  0.79853241  0.40875877  0.44547579  1  -0.788363  0  -0.278648  -0.171872  0  3.63237  0
N  N96  1  0.03181840  0.65695569  0.78185278  1  -0.780607  0  -0.271013  -0.179277  0  3.546302  0
N  N97  1  0.87635538  0.25166138  0.21257840  1  -0.802787  0  -0.270997  -0.180987  0  3.54527  0
N  N98  1  0.83575375  0.60145021  0.43112830  1  -0.802157  0  -0.27402  -0.174151  0  3.570537  0
N  N99  1  0.16787294  0.40116410  0.56494777  1  -0.8  0  -0.272209  -0.174198  0  3.553025  0
N  N100  1  0.05767081  0.47983875  0.36968289  1  -0.803347  0  -0.281679  -0.178965  0  3.624961  0
N  N101  1  0.10639370  0.68163972  0.62578978  1  -0.782155  0  -0.282376  -0.180718  0  3.630892  0
N  N102  1  0.15287444  0.61524909  0.62179762  1  -0.802429  0  -0.282115  -0.185102  0  3.636874  0
N  N103  1  0.99672767  0.53229417  0.37565240  1  -0.772278  0  -0.283778  -0.186089  0  3.644179  0
N  N104  1  0.88903927  0.67949524  0.54646959  1  -0.787625  0  -0.267038  -0.222482  0  3.495634  0
N  N105  1  0.13493345  0.34533710  0.45038956  1  -0.784244  0  -0.267328  -0.225367  0  3.496239  0
Zn  Zn106  1  0.85424194  0.45652573  0.35834899  1  1.189349  0  0.746645  0.606285  0  2.476142  0
Zn  Zn107  1  0.09104639  0.48833364  0.63567209  1  1.188437  0  0.746529  0.607699  0  2.46661  0
Zn  Zn108  1  0.00430434  0.33677561  0.36188068  1  1.186314  0  0.735477  0.606975  0  2.446773  0
Zn  Zn109  1  0.97039851  0.63741325  0.63327807  1  1.183958  0  0.73658  0.604671  0  2.459175  0
