# generated using pymatgen
data_Ag2P2H28C31(N2O3)2
_symmetry_space_group_name_H-M   'P 1'
_cell_length_a   9.61523968
_cell_length_b   13.71751228
_cell_length_c   14.03327509
_cell_angle_alpha   115.85572856
_cell_angle_beta   100.97055760
_cell_angle_gamma   95.52694608
_symmetry_Int_Tables_number   1
_chemical_formula_structural   Ag2P2H28C31(N2O3)2
_chemical_formula_sum   'Ag4 P4 H56 C62 N8 O12'
_cell_volume   1601.18567961
_cell_formula_units_Z   2
loop_
 _symmetry_equiv_pos_site_id
 _symmetry_equiv_pos_as_xyz
  1  'x, y, z'
loop_
 _atom_site_type_symbol
 _atom_site_label
 _atom_site_symmetry_multiplicity
 _atom_site_fract_x
 _atom_site_fract_y
 _atom_site_fract_z
 _atom_site_occupancy
 _atom_site_hle17_bader_spin_density
 _atom_site_hle17_ddec_charge
 _atom_site_hle17_ddec_spin_density
 _atom_site_hle17_ddec_sum_bond_order
 _atom_site_hle17_magmom
 _atom_site_hse06_10hf_bader_spin_density
 _atom_site_hse06_10hf_ddec_charge
 _atom_site_hse06_10hf_ddec_spin_density
 _atom_site_hse06_10hf_ddec_sum_bond_order
 _atom_site_hse06_10hf_magmom
 _atom_site_hse06_bader_spin_density
 _atom_site_hse06_ddec_charge
 _atom_site_hse06_ddec_spin_density
 _atom_site_hse06_ddec_sum_bond_order
 _atom_site_hse06_magmom
 _atom_site_pbe_bader_spin_density
 _atom_site_pbe_cm5_charge
 _atom_site_pbe_ddec_charge
 _atom_site_pbe_ddec_spin_density
 _atom_site_pbe_ddec_sum_bond_order
 _atom_site_pbe_magmom
Ag  Ag0  1  0.67898438  0.31017467  0.21897598  1  0  0.401196  0  1.631555  0  0  0.280573  0  2.098162  0  0  0.304238  0  2.052241  0  0  0.439978  0.266245  0  2.129348  0
Ag  Ag1  1  0.32101495  0.68982870  0.78102430  1  0  0.40127  0  1.631575  0  0  0.280626  0  2.098174  0  0  0.304289  0  2.05225  0  0  0.440008  0.266299  0  2.129363  0
Ag  Ag2  1  0.81939767  0.66360335  0.48329351  1  0  0.410046  0  1.568207  0  0  0.285301  0  2.017151  0  0  0.307587  0  1.975707  0  0  0.454637  0.270111  0  2.045232  0
Ag  Ag3  1  0.18060346  0.33639505  0.51670777  1  0  0.410036  0  1.568196  0  0  0.285305  0  2.017135  0  0  0.307587  0  1.975691  0  0  0.454628  0.27011  0  2.04522  0
P  P4  1  0.43471845  0.24894715  0.19335685  1  0  0.278856  0  3.774726  0  0  0.238947  0  4.254127  0  0  0.246137  0  4.249782  0  0  -0.031771  0.233523  0  4.256495  0
P  P5  1  0.56527921  0.75105788  0.80664462  1  0  0.278837  0  3.774721  0  0  0.239  0  4.254109  0  0  0.246191  0  4.249762  0  0  -0.031755  0.233576  0  4.25648  0
P  P6  1  0.68314330  0.79727137  0.48278697  1  0  0.285369  0  3.678167  0  0  0.244462  0  4.152068  0  0  0.252416  0  4.146836  0  0  -0.017073  0.238927  0  4.154812  0
P  P7  1  0.31685723  0.20272868  0.51721350  1  0  0.285342  0  3.678086  0  0  0.244475  0  4.152024  0  0  0.252425  0  4.146784  0  0  -0.017039  0.238934  0  4.154772  0
H  H8  1  0.37783363  0.38609556  0.35645606  1  0  0.101738  0  0.957877  0  0  0.119116  0  1.016285  0  0  0.118629  0  1.019039  0  0  0.110452  0.119527  0  1.014169  0
H  H9  1  0.62216584  0.61390450  0.64354499  1  0  0.101735  0  0.957864  0  0  0.119115  0  1.016271  0  0  0.118627  0  1.019025  0  0  0.110456  0.119528  0  1.014154  0
H  H10  1  0.26987103  0.25457348  0.30891442  1  0  0.112715  0  0.984398  0  0  0.125031  0  1.053985  0  0  0.126748  0  1.052641  0  0  0.112409  0.123695  0  1.054971  0
H  H11  1  0.73012783  0.74542824  0.69108725  1  0  0.112712  0  0.984392  0  0  0.125008  0  1.054027  0  0  0.126721  0  1.052685  0  0  0.112397  0.123673  0  1.055013  0
H  H12  1  0.13750631  0.29891584  0.19501088  1  0  0.089807  0  0.984438  0  0  0.097319  0  1.054547  0  0  0.09954  0  1.054031  0  0  0.098714  0.09596  0  1.054505  0
H  H13  1  0.86249388  0.70109086  0.80499520  1  0  0.089765  0  0.984489  0  0  0.097303  0  1.054566  0  0  0.099525  0  1.054049  0  0  0.098707  0.095944  0  1.054525  0
H  H14  1  0.45686882  0.29460902  0.01472270  1  0  0.082879  0  0.971532  0  0  0.092624  0  1.039858  0  0  0.095293  0  1.038231  0  0  0.096898  0.090584  0  1.041356  0
H  H15  1  0.54312786  0.70538856  0.98527622  1  0  0.082855  0  0.971556  0  0  0.092602  0  1.039884  0  0  0.095271  0  1.038256  0  0  0.096897  0.090576  0  1.04137  0
H  H16  1  0.60111580  0.07983171  0.16883777  1  0  0.086643  0  0.959246  0  0  0.095185  0  1.025628  0  0  0.098866  0  1.022842  0  0  0.094412  0.092497  0  1.027749  0
H  H17  1  0.39888246  0.92017167  0.83116380  1  0  0.086699  0  0.959238  0  0  0.095241  0  1.02561  0  0  0.098923  0  1.022824  0  0  0.094428  0.092555  0  1.027738  0
H  H18  1  0.14896484  0.09297735  0.08969867  1  0  0.095549  0  0.964411  0  0  0.105429  0  1.028109  0  0  0.108267  0  1.026627  0  0  0.100806  0.103457  0  1.029068  0
H  H19  1  0.85103406  0.90702435  0.91029800  1  0  0.095588  0  0.964354  0  0  0.105472  0  1.028038  0  0  0.108309  0  1.026555  0  0  0.100831  0.10349  0  1.029009  0
H  H20  1  0.52057292  0.14457609  0.43489334  1  0  0.104125  0  0.93648  0  0  0.121714  0  0.995484  0  0  0.122392  0  0.995925  0  0  0.114252  0.121392  0  0.994816  0
H  H21  1  0.47942655  0.85542397  0.56510700  1  0  0.104122  0  0.936469  0  0  0.121728  0  0.995453  0  0  0.122409  0  0.995895  0  0  0.114267  0.121408  0  0.994788  0
H  H22  1  0.35881857  0.11681882  0.33521581  1  0  0.11318  0  0.941436  0  0  0.131085  0  0.997941  0  0  0.131152  0  1.000184  0  0  0.118466  0.130985  0  0.99647  0
H  H23  1  0.64117857  0.88318042  0.66478315  1  0  0.113163  0  0.94145  0  0  0.131062  0  0.997958  0  0  0.13113  0  1.000201  0  0  0.118453  0.130962  0  0.996487  0
H  H24  1  0.97474347  0.35622578  0.08017419  1  0  0.093606  0  0.972889  0  0  0.102673  0  1.035433  0  0  0.105133  0  1.034914  0  0  0.098239  0.100737  0  1.036245  0
H  H25  1  0.02525455  0.64377678  0.91982843  1  0  0.093574  0  0.972948  0  0  0.102672  0  1.035451  0  0  0.105108  0  1.034956  0  0  0.098244  0.100734  0  1.036263  0
H  H26  1  0.28569094  0.34323828  0.89303879  1  0  0.092288  0  0.966149  0  0  0.10015  0  1.03057  0  0  0.102601  0  1.030411  0  0  0.098117  0.098442  0  1.030718  0
H  H27  1  0.71430317  0.65675766  0.10695909  1  0  0.092303  0  0.966085  0  0  0.100154  0  1.030516  0  0  0.102612  0  1.030354  0  0  0.098104  0.098447  0  1.030663  0
H  H28  1  0.53357204  0.87663929  0.09961634  1  0  0.084843  0  0.961817  0  0  0.099052  0  1.016436  0  0  0.101161  0  1.01664  0  0  0.098051  0.097307  0  1.01679  0
H  H29  1  0.46642790  0.12336241  0.90038262  1  0  0.084899  0  0.96179  0  0  0.09912  0  1.01639  0  0  0.101228  0  1.016595  0  0  0.098098  0.097376  0  1.016743  0
H  H30  1  0.08328441  0.88915741  0.01378309  1  0  0.090541  0  0.957848  0  0  0.101152  0  1.017637  0  0  0.103585  0  1.017185  0  0  0.100488  0.099397  0  1.018034  0
H  H31  1  0.91671240  0.11084429  0.98621117  1  0  0.090562  0  0.9578  0  0  0.101181  0  1.017575  0  0  0.103616  0  1.017119  0  0  0.100497  0.099426  0  1.017973  0
H  H32  1  0.97503212  0.55367183  0.62594776  1  0  0.081668  0  0.978696  0  0  0.083098  0  1.056934  0  0  0.085639  0  1.055439  0  0  0.106437  0.081426  0  1.057758  0
H  H33  1  0.02496947  0.44632822  0.37405357  1  0  0.081616  0  0.978727  0  0  0.083044  0  1.056956  0  0  0.085582  0  1.055468  0  0  0.10644  0.081374  0  1.057778  0
H  H34  1  0.58265947  0.46390790  0.39753308  1  0  0.072178  0  0.981922  0  0  0.079237  0  1.054333  0  0  0.082388  0  1.05113  0  0  0.104261  0.076818  0  1.05692  0
H  H35  1  0.41734127  0.53609299  0.60246992  1  0  0.072224  0  0.981873  0  0  0.079272  0  1.054295  0  0  0.082425  0  1.05109  0  0  0.104249  0.076855  0  1.056879  0
H  H36  1  0.67494470  0.26766246  0.56608380  1  0  0.094255  0  0.999909  0  0  0.104655  0  1.063013  0  0  0.106678  0  1.063721  0  0  0.100925  0.103237  0  1.062436  0
H  H37  1  0.32505644  0.73233594  0.43391606  1  0  0.094265  0  0.99993  0  0  0.104657  0  1.063037  0  0  0.106677  0  1.063752  0  0  0.100897  0.103237  0  1.06246  0
H  H38  1  0.04838839  0.37762027  0.92723924  1  0  0.095635  0  0.957632  0  0  0.104527  0  1.019422  0  0  0.10795  0  1.017092  0  0  0.101729  0.102114  0  1.021057  0
H  H39  1  0.95160723  0.62237733  0.07276025  1  0  0.095612  0  0.957641  0  0  0.104497  0  1.019436  0  0  0.10792  0  1.017106  0  0  0.101745  0.102086  0  1.021067  0
H  H40  1  0.27420822  0.78096552  0.01868606  1  0  0.090117  0  0.965862  0  0  0.100612  0  1.029786  0  0  0.103051  0  1.028158  0  0  0.099675  0.098751  0  1.031227  0
H  H41  1  0.72579113  0.21903783  0.98131138  1  0  0.09012  0  0.965779  0  0  0.100643  0  1.029667  0  0  0.103084  0  1.028041  0  0  0.099701  0.098777  0  1.031105  0
H  H42  1  0.90815814  0.39717354  0.66700676  1  0  0.103391  0  0.980491  0  0  0.110876  0  1.043438  0  0  0.113785  0  1.042118  0  0  0.104686  0.108662  0  1.044672  0
H  H43  1  0.09184218  0.60282569  0.33299262  1  0  0.103405  0  0.980494  0  0  0.110885  0  1.043457  0  0  0.113793  0  1.042138  0  0  0.104682  0.108674  0  1.044683  0
H  H44  1  0.61923330  0.59780863  0.28004001  1  0  0.074682  0  1.008956  0  0  0.078805  0  1.088218  0  0  0.081697  0  1.086088  0  0  0.089202  0.076685  0  1.089766  0
H  H45  1  0.38076594  0.40219060  0.71996066  1  0  0.074717  0  1.008943  0  0  0.078843  0  1.088192  0  0  0.081735  0  1.086059  0  0  0.08922  0.076716  0  1.089745  0
H  H46  1  0.45193380  0.89780550  0.40421406  1  0  0.085106  0  0.954372  0  0  0.094551  0  1.020878  0  0  0.096868  0  1.020511  0  0  0.097363  0.093166  0  1.020655  0
H  H47  1  0.54806931  0.10219620  0.59578603  1  0  0.085137  0  0.954378  0  0  0.094581  0  1.020875  0  0  0.096898  0  1.020508  0  0  0.097382  0.093199  0  1.020655  0
H  H48  1  0.69962253  0.93490899  0.36714020  1  0  0.089049  0  0.961908  0  0  0.101574  0  1.018719  0  0  0.104136  0  1.01819  0  0  0.097944  0.099594  0  1.01934  0
H  H49  1  0.30037417  0.06508858  0.63285587  1  0  0.089079  0  0.961961  0  0  0.10162  0  1.01874  0  0  0.104183  0  1.018212  0  0  0.097963  0.099637  0  1.019367  0
H  H50  1  0.87170481  0.96511549  0.68904468  1  0  0.09786  0  0.973827  0  0  0.108773  0  1.036179  0  0  0.111727  0  1.034435  0  0  0.099777  0.106717  0  1.037383  0
H  H51  1  0.12829557  0.03488788  0.31095646  1  0  0.097872  0  0.973801  0  0  0.108819  0  1.036113  0  0  0.111774  0  1.034369  0  0  0.099787  0.106761  0  1.037314  0
H  H52  1  0.43123279  0.52386226  0.10313516  1  0  0.089577  0  0.969937  0  0  0.10223  0  1.026691  0  0  0.104087  0  1.027514  0  0  0.0993  0.100755  0  1.026439  0
H  H53  1  0.56876387  0.47613533  0.89686589  1  0  0.089559  0  0.96997  0  0  0.102186  0  1.026755  0  0  0.104043  0  1.027576  0  0  0.099268  0.100709  0  1.026507  0
H  H54  1  0.26526660  0.82327446  0.22946309  1  0  0.084458  0  0.977886  0  0  0.094615  0  1.03979  0  0  0.096409  0  1.041048  0  0  0.097315  0.093343  0  1.039  0
H  H55  1  0.73473613  0.17672972  0.77053729  1  0  0.084456  0  0.977871  0  0  0.094632  0  1.039754  0  0  0.096417  0  1.041016  0  0  0.097318  0.093356  0  1.038971  0
H  H56  1  0.84256651  0.12238946  0.42805860  1  0  0.092006  0  0.954679  0  0  0.102668  0  1.014018  0  0  0.105643  0  1.012763  0  0  0.097647  0.100553  0  1.014967  0
H  H57  1  0.15743254  0.87760893  0.57193742  1  0  0.091995  0  0.954707  0  0  0.102667  0  1.014034  0  0  0.105642  0  1.01278  0  0  0.097663  0.100556  0  1.014992  0
H  H58  1  0.00960774  0.15253478  0.74892970  1  0  0.089774  0  0.945563  0  0  0.102915  0  0.999517  0  0  0.105192  0  0.99949  0  0  0.102032  0.101154  0  0.999798  0
H  H59  1  0.99039266  0.84746857  0.25106788  1  0  0.089797  0  0.945505  0  0  0.102947  0  0.999446  0  0  0.105224  0  0.999418  0  0  0.102022  0.101182  0  0.999726  0
H  H60  1  0.25398091  0.63536855  0.07741141  1  0  0.096645  0  0.962282  0  0  0.106829  0  1.023227  0  0  0.109835  0  1.021327  0  0  0.102625  0.104516  0  1.024796  0
H  H61  1  0.74601856  0.36463151  0.92259035  1  0  0.0966  0  0.962315  0  0  0.106798  0  1.023247  0  0  0.109823  0  1.021325  0  0  0.102618  0.104482  0  1.024815  0
H  H62  1  0.99743058  0.23095263  0.61898160  1  0  0.082092  0  0.985372  0  0  0.086728  0  1.062867  0  0  0.090483  0  1.059107  0  0  0.093156  0.084179  0  1.065149  0
H  H63  1  0.00256917  0.76904822  0.38101269  1  0  0.082092  0  0.985383  0  0  0.086726  0  1.062888  0  0  0.090478  0  1.059132  0  0  0.093159  0.084178  0  1.06517  0
C  C64  1  0.38045373  0.29791770  0.32519164  1  0  -0.189702  0  3.652139  0  0  -0.23551  0  3.901985  0  0  -0.23472  0  3.914952  0  0  -0.072201  -0.23591  0  3.892921  0
C  C65  1  0.61954681  0.70208235  0.67480812  1  0  -0.189647  0  3.652139  0  0  -0.235433  0  3.901917  0  0  -0.234661  0  3.914936  0  0  -0.072172  -0.235834  0  3.892853  0
C  C66  1  0.30845037  0.29124330  0.11203974  1  0  -0.098246  0  3.774689  0  0  -0.058466  0  4.007962  0  0  -0.06445  0  4.035346  0  0  -0.030019  -0.054417  0  3.989071  0
C  C67  1  0.69155069  0.70876254  0.88796254  1  0  -0.098269  0  3.774797  0  0  -0.058509  0  4.008114  0  0  -0.064492  0  4.035494  0  0  -0.030006  -0.054456  0  3.989222  0
C  C68  1  0.37970777  0.09946975  0.13439191  1  0  -0.099065  0  3.775041  0  0  -0.060652  0  4.011822  0  0  -0.066237  0  4.039019  0  0  -0.031889  -0.056722  0  3.992996  0
C  C69  1  0.62029284  0.90053444  0.86560961  1  0  -0.09909  0  3.774949  0  0  -0.0608  0  4.011888  0  0  -0.066382  0  4.039073  0  0  -0.031961  -0.056872  0  3.993079  0
C  C70  1  0.17257823  0.30970317  0.13034083  1  0  -0.074427  0  3.738164  0  0  -0.093637  0  3.979031  0  0  -0.094466  0  4.001543  0  0  -0.088009  -0.092724  0  3.962959  0
C  C71  1  0.82742304  0.69030351  0.86966397  1  0  -0.074456  0  3.73827  0  0  -0.093692  0  3.979165  0  0  -0.094518  0  4.001665  0  0  -0.088027  -0.092783  0  3.963095  0
C  C72  1  0.34918555  0.30452326  0.02669789  1  0  -0.089089  0  3.772927  0  0  -0.10687  0  4.012683  0  0  -0.108173  0  4.034626  0  0  -0.088185  -0.105793  0  3.998009  0
C  C73  1  0.65081504  0.69548094  0.97330649  1  0  -0.089011  0  3.773024  0  0  -0.106786  0  4.012781  0  0  -0.108089  0  4.034728  0  0  -0.088176  -0.105724  0  3.998102  0
C  C74  1  0.48745938  0.03797346  0.13686929  1  0  -0.078481  0  3.770261  0  0  -0.094889  0  4.009158  0  0  -0.096484  0  4.031799  0  0  -0.089429  -0.09363  0  3.993573  0
C  C75  1  0.51253890  0.96202991  0.86312943  1  0  -0.078545  0  3.770248  0  0  -0.094911  0  4.009169  0  0  -0.096508  0  4.031816  0  0  -0.089387  -0.093656  0  3.993596  0
C  C76  1  0.23357173  0.04571815  0.09077037  1  0  -0.064603  0  3.719273  0  0  -0.083337  0  3.956278  0  0  -0.084225  0  3.977545  0  0  -0.084531  -0.082569  0  3.941463  0
C  C77  1  0.76643082  0.95428518  0.90922464  1  0  -0.064686  0  3.71925  0  0  -0.08338  0  3.956297  0  0  -0.084266  0  3.977563  0  0  -0.084569  -0.082604  0  3.941487  0
C  C78  1  0.42841116  0.18000910  0.41475223  1  0  -0.16682  0  3.608233  0  0  -0.213384  0  3.859566  0  0  -0.211787  0  3.871907  0  0  -0.059946  -0.214554  0  3.851058  0
C  C79  1  0.57158831  0.81999096  0.58524882  1  0  -0.166741  0  3.608347  0  0  -0.2133  0  3.859661  0  0  -0.211698  0  3.871978  0  0  -0.059915  -0.214467  0  3.851153  0
C  C80  1  0.60634794  0.35005554  0.46793237  1  0  0.150853  0  3.812733  0  0  0.144506  0  4.059253  0  0  0.15145  0  4.080832  0  0  0.09851  0.139693  0  4.044789  0
C  C81  1  0.39365327  0.64994700  0.53206925  1  0  0.150876  0  3.812853  0  0  0.144544  0  4.059367  0  0  0.151488  0  4.080946  0  0  0.098482  0.13974  0  4.044899  0
C  C82  1  0.07933289  0.34099394  0.06440186  1  0  -0.067596  0  3.752228  0  0  -0.07717  0  3.995607  0  0  -0.080724  0  4.01873  0  0  -0.090223  -0.074484  0  3.979741  0
C  C83  1  0.92066938  0.65900859  0.93559918  1  0  -0.067489  0  3.752031  0  0  -0.077081  0  3.995409  0  0  -0.080615  0  4.018543  0  0  -0.09022  -0.074396  0  3.979544  0
C  C84  1  0.25430491  0.33321597  0.95939524  1  0  -0.071207  0  3.768426  0  0  -0.081644  0  4.01325  0  0  -0.084313  0  4.034662  0  0  -0.091001  -0.079737  0  3.998681  0
C  C85  1  0.74568755  0.66678163  0.04060097  1  0  -0.071327  0  3.768428  0  0  -0.081757  0  4.013267  0  0  -0.084436  0  4.03468  0  0  -0.09104  -0.079851  0  3.9987  0
C  C86  1  0.44930970  0.92384273  0.09698333  1  0  -0.075877  0  3.784333  0  0  -0.087315  0  4.028968  0  0  -0.090935  0  4.052793  0  0  -0.094202  -0.084771  0  4.012884  0
C  C87  1  0.55068703  0.07615900  0.90301877  1  0  -0.075927  0  3.784304  0  0  -0.08738  0  4.02896  0  0  -0.091  0  4.052784  0  0  -0.094284  -0.084837  0  4.012877  0
C  C88  1  0.19634361  0.93145079  0.04942856  1  0  -0.053982  0  3.750891  0  0  -0.065384  0  3.995132  0  0  -0.067637  0  4.016031  0  0  -0.086888  -0.063654  0  3.98078  0
C  C89  1  0.80365551  0.06855174  0.95056921  1  0  -0.053979  0  3.750912  0  0  -0.065383  0  3.995154  0  0  -0.067638  0  4.016052  0  0  -0.086876  -0.063656  0  3.980797  0
C  C90  1  0.87088005  0.49681076  0.58471178  1  0  0.082894  0  3.704055  0  0  0.043625  0  3.970008  0  0  0.048315  0  3.987611  0  0  0.017376  0.040915  0  3.957078  0
C  C91  1  0.12912259  0.50318929  0.41528969  1  0  0.083128  0  3.704058  0  0  0.043903  0  3.969959  0  0  0.04859  0  3.987561  0  0  0.017489  0.041185  0  3.957032  0
C  C92  1  0.65148077  0.44354277  0.45442799  1  0  -0.032372  0  3.740505  0  0  -0.063887  0  4.000533  0  0  -0.062308  0  4.017188  0  0  0.007255  -0.065368  0  3.989725  0
C  C93  1  0.34852105  0.55645810  0.54557229  1  0  -0.032452  0  3.740283  0  0  -0.063967  0  4.000329  0  0  -0.062392  0  4.016982  0  0  0.007329  -0.065444  0  3.98951  0
C  C94  1  0.54978074  0.75256936  0.35348189  1  0  -0.107  0  3.786758  0  0  -0.067615  0  4.019906  0  0  -0.073258  0  4.046303  0  0  -0.031302  -0.063774  0  4.002031  0
C  C95  1  0.45022219  0.24743565  0.64652242  1  0  -0.106975  0  3.786684  0  0  -0.067593  0  4.019843  0  0  -0.073236  0  4.046239  0  0  -0.031336  -0.063753  0  4.001967  0
C  C96  1  0.77165908  0.93842780  0.52486606  1  0  -0.097973  0  3.77257  0  0  -0.058881  0  4.011201  0  0  -0.064058  0  4.037899  0  0  -0.030014  -0.05539  0  3.992763  0
C  C97  1  0.22834397  0.06156975  0.47513227  1  0  -0.097784  0  3.77247  0  0  -0.058806  0  4.011247  0  0  -0.06397  0  4.037927  0  0  -0.029979  -0.055309  0  3.992801  0
C  C98  1  0.70208690  0.33544005  0.54809107  1  0  -0.11549  0  3.703196  0  0  -0.13791  0  3.947866  0  0  -0.139861  0  3.967818  0  0  -0.086619  -0.136259  0  3.934133  0
C  C99  1  0.29791537  0.66456248  0.45191069  1  0  -0.11549  0  3.703198  0  0  -0.137908  0  3.947888  0  0  -0.139861  0  3.967841  0  0  -0.086591  -0.136266  0  3.93416  0
C  C100  1  0.11964063  0.35234589  0.97874290  1  0  -0.058424  0  3.746112  0  0  -0.072972  0  3.991223  0  0  -0.073954  0  4.011892  0  0  -0.085256  -0.0721  0  3.976948  0
C  C101  1  0.88035476  0.64765087  0.02125622  1  0  -0.058348  0  3.745868  0  0  -0.072892  0  3.990999  0  0  -0.073872  0  4.011662  0  0  -0.085242  -0.072017  0  3.976718  0
C  C102  1  0.30404082  0.87045110  0.05234971  1  0  -0.068421  0  3.766661  0  0  -0.082605  0  4.018723  0  0  -0.083197  0  4.039246  0  0  -0.088852  -0.082168  0  4.004999  0
C  C103  1  0.69595912  0.12955060  0.94764925  1  0  -0.068388  0  3.766497  0  0  -0.082593  0  4.018557  0  0  -0.083188  0  4.039083  0  0  -0.088856  -0.082143  0  4.004813  0
C  C104  1  0.83347387  0.40875839  0.60576318  1  0  -0.080909  0  3.746155  0  0  -0.090393  0  3.993558  0  0  -0.093027  0  4.0131  0  0  -0.086284  -0.08878  0  3.98055  0
C  C105  1  0.16652386  0.59123919  0.39423659  1  0  -0.080973  0  3.746077  0  0  -0.090476  0  3.99351  0  0  -0.093111  0  4.013057  0  0  -0.086278  -0.088854  0  3.98049  0
C  C106  1  0.54223650  0.64738615  0.26786703  1  0  -0.082132  0  3.764939  0  0  -0.098829  0  4.004309  0  0  -0.100733  0  4.027453  0  0  -0.091146  -0.097419  0  3.988534  0
C  C107  1  0.45776000  0.35261476  0.73213540  1  0  -0.082165  0  3.765043  0  0  -0.098868  0  4.004408  0  0  -0.100769  0  4.027547  0  0  -0.091138  -0.09745  0  3.988626  0
C  C108  1  0.44920630  0.81600142  0.33854914  1  0  -0.082273  0  3.75926  0  0  -0.09981  0  4.001564  0  0  -0.100391  0  4.022314  0  0  -0.088716  -0.099402  0  3.987541  0
C  C109  1  0.55079871  0.18399943  0.66145014  1  0  -0.082271  0  3.759216  0  0  -0.099804  0  4.001528  0  0  -0.100386  0  4.022276  0  0  -0.088698  -0.099406  0  3.987516  0
C  C110  1  0.76539124  0.98301716  0.45142736  1  0  -0.088371  0  3.767036  0  0  -0.107906  0  4.00906  0  0  -0.109327  0  4.031483  0  0  -0.091676  -0.106782  0  3.993615  0
C  C111  1  0.23461098  0.01698122  0.54856979  1  0  -0.088487  0  3.767222  0  0  -0.108005  0  4.009264  0  0  -0.109432  0  4.031686  0  0  -0.091714  -0.106879  0  3.993823  0
C  C112  1  0.86056117  0.00032864  0.63238094  1  0  -0.088731  0  3.74258  0  0  -0.108353  0  3.984506  0  0  -0.109597  0  4.005489  0  0  -0.089422  -0.10727  0  3.97031  0
C  C113  1  0.13944211  0.99966973  0.36761635  1  0  -0.088771  0  3.742636  0  0  -0.108385  0  3.984576  0  0  -0.109634  0  4.005558  0  0  -0.089432  -0.107299  0  3.970369  0
C  C114  1  0.43642138  0.60582942  0.16894120  1  0  -0.052824  0  3.745383  0  0  -0.06332  0  3.983101  0  0  -0.066227  0  4.006639  0  0  -0.087385  -0.061308  0  3.967233  0
C  C115  1  0.56357618  0.39417149  0.83106209  1  0  -0.052852  0  3.745381  0  0  -0.063327  0  3.983093  0  0  -0.066239  0  4.006644  0  0  -0.087389  -0.061316  0  3.967226  0
C  C116  1  0.34311639  0.77383122  0.23986485  1  0  -0.067088  0  3.766156  0  0  -0.077836  0  4.00895  0  0  -0.081119  0  4.032245  0  0  -0.088499  -0.075771  0  3.993339  0
C  C117  1  0.65688182  0.22616800  0.76013140  1  0  -0.067081  0  3.76619  0  0  -0.077853  0  4.009006  0  0  -0.081127  0  4.032305  0  0  -0.088504  -0.075781  0  3.993391  0
C  C118  1  0.84600243  0.08806128  0.48529410  1  0  -0.068055  0  3.764006  0  0  -0.07798  0  4.010796  0  0  -0.080886  0  4.03343  0  0  -0.090998  -0.076127  0  3.995299  0
C  C119  1  0.15400107  0.91193792  0.51470356  1  0  -0.067988  0  3.764084  0  0  -0.077916  0  4.010862  0  0  -0.080822  0  4.033494  0  0  -0.09096  -0.076072  0  3.995384  0
C  C120  1  0.94027502  0.10526428  0.66560444  1  0  -0.061053  0  3.761473  0  0  -0.069372  0  4.001382  0  0  -0.071886  0  4.023354  0  0  -0.086878  -0.067735  0  3.986636  0
C  C121  1  0.05972668  0.89473989  0.33439365  1  0  -0.061218  0  3.761483  0  0  -0.069542  0  4.001403  0  0  -0.072056  0  4.023375  0  0  -0.086945  -0.067901  0  3.986645  0
C  C122  1  0.33624873  0.66867200  0.15499459  1  0  -0.05437  0  3.728753  0  0  -0.066163  0  3.968198  0  0  -0.067444  0  3.989425  0  0  -0.081849  -0.065134  0  3.953884  0
C  C123  1  0.66374818  0.33132641  0.84500470  1  0  -0.05433  0  3.728699  0  0  -0.066127  0  3.968146  0  0  -0.067424  0  3.989363  0  0  -0.081845  -0.065096  0  3.953829  0
C  C124  1  0.93324174  0.14932317  0.59231860  1  0  -0.057665  0  3.744162  0  0  -0.071013  0  3.990305  0  0  -0.07279  0  4.012596  0  0  -0.087562  -0.069594  0  3.974666  0
C  C125  1  0.06676305  0.85067685  0.40767959  1  0  -0.057596  0  3.744086  0  0  -0.070958  0  3.990245  0  0  -0.072732  0  4.012533  0  0  -0.087558  -0.069538  0  3.974608  0
N  N126  1  0.82116052  0.50585390  0.20851340  1  0  0.684762  0  4.131571  0  0  0.725319  0  4.404958  0  0  0.740971  0  4.430397  0  0  0.091931  0.705723  0  4.399984  0
N  N127  1  0.17883683  0.49414617  0.79148666  1  0  0.684688  0  4.13163  0  0  0.725306  0  4.404963  0  0  0.741013  0  4.430314  0  0  0.09195  0.705715  0  4.399983  0
N  N128  1  0.95259756  0.22561733  0.28489219  1  0  0.673131  0  4.152823  0  0  0.720219  0  4.417224  0  0  0.749448  0  4.422988  0  0  0.090829  0.700366  0  4.413265  0
N  N129  1  0.04740592  0.77438188  0.71510762  1  0  0.673196  0  4.152697  0  0  0.720246  0  4.417121  0  0  0.749482  0  4.422883  0  0  0.090838  0.700396  0  4.413158  0
N  N130  1  0.47589671  0.27797431  0.40506174  1  0  -0.133296  0  3.499512  0  0  -0.044567  0  3.726892  0  0  -0.064026  0  3.754459  0  0  -0.286771  -0.031136  0  3.707588  0
N  N131  1  0.52410661  0.72202822  0.59494086  1  0  -0.133371  0  3.499709  0  0  -0.044674  0  3.727125  0  0  -0.064128  0  3.754684  0  0  -0.286799  -0.031247  0  3.707824  0
N  N132  1  0.77955489  0.51386634  0.51097124  1  0  -0.258153  0  3.345667  0  0  -0.17689  0  3.618342  0  0  -0.191039  0  3.63553  0  0  -0.349582  -0.167136  0  3.605953  0
N  N133  1  0.22044287  0.48613123  0.48902497  1  0  -0.258256  0  3.34544  0  0  -0.177008  0  3.618146  0  0  -0.191148  0  3.635326  0  0  -0.349725  -0.167255  0  3.605757  0
O  O134  1  0.81345605  0.49697705  0.29582804  1  0  -0.492245  0  1.897221  0  0  -0.45372  0  2.157574  0  0  -0.470501  0  2.150732  0  0  -0.216228  -0.439158  0  2.165671  0
O  O135  1  0.18654599  0.50302466  0.70417405  1  0  -0.492264  0  1.897181  0  0  -0.453737  0  2.15749  0  0  -0.470537  0  2.150631  0  0  -0.216255  -0.439179  0  2.165587  0
O  O136  1  0.76234494  0.42293167  0.11618529  1  0  -0.459994  0  1.759171  0  0  -0.448946  0  1.977975  0  0  -0.459982  0  1.974733  0  0  -0.190924  -0.437815  0  1.983565  0
O  O137  1  0.23765219  0.57706757  0.88381510  1  0  -0.459986  0  1.759214  0  0  -0.448955  0  1.977996  0  0  -0.460005  0  1.974721  0  0  -0.190928  -0.437826  0  1.983585  0
O  O138  1  0.87573161  0.22999700  0.20204850  1  0  -0.445767  0  1.878058  0  0  -0.418926  0  2.12748  0  0  -0.438898  0  2.118018  0  0  -0.20574  -0.406209  0  2.134107  0
O  O139  1  0.12426976  0.77000223  0.79795174  1  0  -0.445785  0  1.878047  0  0  -0.418897  0  2.127475  0  0  -0.438869  0  2.118009  0  0  -0.205714  -0.406179  0  2.134105  0
O  O140  1  0.07230169  0.72409083  0.62161027  1  0  -0.462831  0  1.793269  0  0  -0.445269  0  2.021864  0  0  -0.462419  0  2.014056  0  0  -0.194108  -0.434729  0  2.0278  0
O  O141  1  0.92769463  0.27590923  0.37838750  1  0  -0.462838  0  1.793287  0  0  -0.445302  0  2.021886  0  0  -0.46245  0  2.014077  0  0  -0.194144  -0.434761  0  2.027822  0
O  O142  1  0.88497662  0.59457024  0.21799687  1  0  -0.430586  0  1.780561  0  0  -0.421911  0  1.986  0  0  -0.431399  0  1.985804  0  0  -0.160189  -0.412118  0  1.989507  0
O  O143  1  0.11502433  0.40543148  0.78200793  1  0  -0.430504  0  1.780533  0  0  -0.421891  0  1.986012  0  0  -0.431398  0  1.985788  0  0  -0.160184  -0.412089  0  1.989505  0
O  O144  1  0.05301106  0.17258537  0.27154211  1  0  -0.458426  0  1.798664  0  0  -0.452873  0  2.013716  0  0  -0.467038  0  2.006365  0  0  -0.184518  -0.44354  0  2.018311  0
O  O145  1  0.94699078  0.82741550  0.72845604  1  0  -0.458525  0  1.798604  0  0  -0.452957  0  2.013662  0  0  -0.467126  0  2.00631  0  0  -0.184584  -0.443621  0  2.018251  0
