# generated using pymatgen
data_Zn4H12C48O13F12
_symmetry_space_group_name_H-M   'P 1'
_cell_length_a   28.29633731
_cell_length_b   28.29652177
_cell_length_c   28.29425893
_cell_angle_alpha   119.99673281
_cell_angle_beta   90.00059921
_cell_angle_gamma   59.99306962
_symmetry_Int_Tables_number   1
_chemical_formula_structural   Zn4H12C48O13F12
_chemical_formula_sum   'Zn8 H24 C96 O26 F24'
_cell_volume   16018.60986487
_cell_formula_units_Z   2
loop_
 _symmetry_equiv_pos_site_id
 _symmetry_equiv_pos_as_xyz
  1  'x, y, z'
loop_
 _atom_site_type_symbol
 _atom_site_label
 _atom_site_symmetry_multiplicity
 _atom_site_fract_x
 _atom_site_fract_y
 _atom_site_fract_z
 _atom_site_occupancy
 _atom_site_pbe_bader_charge
 _atom_site_pbe_bader_spin_density
 _atom_site_pbe_cm5_charge
 _atom_site_pbe_ddec_charge
 _atom_site_pbe_ddec_spin_density
 _atom_site_pbe_ddec_sum_bond_order
 _atom_site_pbe_magmom
Zn  Zn0  1  0.52839263  0.05679437  0.02837714  1  1.318071  0  0.676922  0.972834  0  2.359546  0
Zn  Zn1  1  0.52844133  0.94323666  0.91478207  1  1.314016  0  0.677269  0.974032  0  2.357438  0
Zn  Zn2  1  0.41487301  0.05675690  0.02832402  1  1.316247  0  0.67662  0.972565  0  2.360095  0
Zn  Zn3  1  0.52840051  0.94323748  0.02835049  1  1.319909  0  0.676555  0.97246  0  2.359572  0
Zn  Zn4  1  0.97151660  0.94326423  0.47168102  1  1.317165  0  0.677263  0.973924  0  2.358217  0
Zn  Zn5  1  0.08509956  0.94319760  0.47160337  1  1.317505  0  0.676806  0.973365  0  2.358352  0
Zn  Zn6  1  0.97154848  0.05677904  0.58517472  1  1.314706  0  0.676967  0.972725  0  2.360124  0
Zn  Zn7  1  0.97153230  0.05677411  0.47162577  1  1.318617  0  0.67694  0.973257  0  2.358572  0
H  H8  1  0.80532478  0.07663603  0.30540713  1  0.083836  0  0.119138  0.150111  0  0.972572  0
H  H9  1  0.80535121  0.92325962  0.30535262  1  0.092422  0  0.119047  0.149806  0  0.973563  0
H  H10  1  0.69459077  0.07664807  0.19465336  1  0.07935  0  0.119134  0.150063  0  0.972766  0
H  H11  1  0.69455105  0.92332256  0.19464308  1  0.10621  0  0.119272  0.150294  0  0.973063  0
H  H12  1  0.27122773  0.92333522  0.61791194  1  0.108229  0  0.119347  0.150109  0  0.972775  0
H  H13  1  0.11790658  0.07675526  0.77131122  1  0.107282  0  0.119226  0.150224  0  0.973336  0
H  H14  1  0.38203359  0.92335780  0.72866524  1  0.138508  0  0.119115  0.149864  0  0.973444  0
H  H15  1  0.22871304  0.07672023  0.88204450  1  0.108204  0  0.119223  0.150158  0  0.973124  0
H  H16  1  0.27113962  0.61075300  0.30549722  1  0.091982  0  0.11901  0.149956  0  0.972561  0
H  H17  1  0.11778912  0.61076605  0.30551308  1  0.119818  0  0.119062  0.149888  0  0.97302  0
H  H18  1  0.38192011  0.38929241  0.19479572  1  0.088088  0  0.119075  0.15001  0  0.972696  0
H  H19  1  0.22862868  0.38918741  0.19470162  1  0.076282  0  0.119015  0.149734  0  0.97332  0
H  H20  1  0.80544534  0.38921755  0.61795056  1  0.105834  0  0.119252  0.150182  0  0.973018  0
H  H21  1  0.80539809  0.38926405  0.77132632  1  0.087824  0  0.119214  0.150019  0  0.973199  0
H  H22  1  0.69457096  0.61073858  0.72871308  1  0.089295  0  0.119217  0.150148  0  0.973046  0
H  H23  1  0.69458060  0.61079709  0.88209627  1  0.108208  0  0.119212  0.150112  0  0.973268  0
H  H24  1  0.80541452  0.07677509  0.77141529  1  0.114309  0  0.119135  0.149869  0  0.973167  0
H  H25  1  0.80533241  0.92346141  0.61814187  1  0.119409  0  0.11908  0.149996  0  0.972648  0
H  H26  1  0.69460084  0.07684127  0.88221076  1  0.11609  0  0.11911  0.149746  0  0.973179  0
H  H27  1  0.69470884  0.92347772  0.72880270  1  0.11415  0  0.11894  0.149903  0  0.972833  0
H  H28  1  0.27123747  0.92351087  0.30552755  1  0.122131  0  0.119103  0.15024  0  0.972915  0
H  H29  1  0.11785522  0.07683989  0.30550817  1  0.115861  0  0.119167  0.150098  0  0.973203  0
H  H30  1  0.38202994  0.92339486  0.19462006  1  0.118555  0  0.119156  0.150149  0  0.972658  0
H  H31  1  0.22867852  0.07678608  0.19462073  1  0.124654  0  0.119253  0.150311  0  0.973156  0
C  C32  1  0.59047152  0.00008559  0.90959327  1  1.641793  0  0.224939  0.635517  0  4.180038  0
C  C33  1  0.40960128  0.00000996  0.90948205  1  1.636218  0  0.225299  0.636006  0  4.17858  0
C  C34  1  0.40954447  0.18088687  0.09042887  1  1.700397  0  0.22523  0.635159  0  4.180448  0
C  C35  1  0.40956127  0.00001908  0.09039618  1  1.639762  0  0.224626  0.635139  0  4.178553  0
C  C36  1  0.59045990  0.99998078  0.09040372  1  1.639709  0  0.224957  0.634844  0  4.180704  0
C  C37  1  0.59048797  0.81912861  0.90953088  1  1.688048  0  0.225119  0.635589  0  4.179687  0
C  C38  1  0.09028975  0.81911112  0.40966056  1  1.646945  0  0.225547  0.636739  0  4.179362  0
C  C39  1  0.09033794  0.99999156  0.59048302  1  1.634037  0  0.224955  0.63613  0  4.178499  0
C  C40  1  0.90951074  0.00004369  0.59052517  1  1.643232  0  0.225125  0.635254  0  4.180939  0
C  C41  1  0.90943349  0.18089099  0.59049391  1  1.685843  0  0.22461  0.635303  0  4.180203  0
C  C42  1  0.90941150  0.00001634  0.40965410  1  1.638559  0  0.225008  0.635834  0  4.180484  0
C  C43  1  0.09037512  0.00002956  0.40958331  1  1.640373  0  0.224774  0.635136  0  4.178657  0
C  C44  1  0.87200857  0.99997893  0.37216185  1  0.130878  0  -0.029119  -0.262819  0  3.902854  0
C  C45  1  0.85287537  0.04203384  0.35299506  1  0.428565  0  0.115966  0.315907  0  4.045798  0
C  C46  1  0.81828203  0.04282279  0.31835276  1  0.111586  0  -0.098135  -0.282885  0  3.945989  0
C  C47  1  0.80050372  0.99995664  0.30056974  1  0.053999  0  0.011698  0.203551  0  4.146751  0
C  C48  1  0.81829249  0.95707087  0.31833607  1  0.103127  0  -0.098173  -0.282646  0  3.94767  0
C  C49  1  0.85289425  0.95787637  0.35296834  1  0.415672  0  0.115819  0.31545  0  4.047619  0
C  C50  1  0.76519409  0.99996965  0.26525489  1  -0.062136  0  -0.033252  -0.091081  0  4.077711  0
C  C51  1  0.73470837  0.99997149  0.23477787  1  -0.241112  0  -0.032564  -0.09025  0  4.076362  0
C  C52  1  0.69939180  0.99998309  0.19947067  1  0.053295  0  0.011469  0.202858  0  4.146407  0
C  C53  1  0.68163579  0.04284814  0.18168503  1  0.115511  0  -0.098119  -0.282538  0  3.946387  0
C  C54  1  0.64702317  0.04206208  0.14706184  1  0.422473  0  0.115786  0.315939  0  4.045627  0
C  C55  1  0.62787059  0.99999875  0.12788928  1  0.133142  0  -0.029554  -0.263624  0  3.902806  0
C  C56  1  0.64699958  0.95793712  0.14705214  1  0.416913  0  0.115805  0.316141  0  4.045401  0
C  C57  1  0.68160585  0.95712238  0.18168258  1  0.092929  0  -0.098504  -0.283528  0  3.947642  0
C  C58  1  0.12780356  0.00001539  0.62791928  1  0.047843  0  -0.028609  -0.262898  0  3.902511  0
C  C59  1  0.18902697  0.95795026  0.60499232  1  0.43725  0  0.115899  0.316124  0  4.044195  0
C  C60  1  0.22446811  0.95715547  0.63879024  1  0.029783  0  -0.098432  -0.282838  0  3.946069  0
C  C61  1  0.19939529  0.00004827  0.69944642  1  0.200895  0  0.011072  0.202184  0  4.146508  0
C  C62  1  0.13874053  0.04293136  0.72455006  1  -0.010286  0  -0.098553  -0.283503  0  3.947918  0
C  C63  1  0.10490933  0.04211615  0.68914324  1  0.517036  0  0.115689  0.315995  0  4.04584  0
C  C64  1  0.23472728  0.00004161  0.73474101  1  -0.239712  0  -0.032352  -0.089596  0  4.075188  0
C  C65  1  0.26521630  0.00004719  0.76522075  1  -0.063886  0  -0.033212  -0.091331  0  4.077073  0
C  C66  1  0.30054219  0.00004266  0.80052286  1  0.208771  0  0.011838  0.203802  0  4.147283  0
C  C67  1  0.36119551  0.95715943  0.77542100  1  -0.006162  0  -0.09841  -0.282823  0  3.947431  0
C  C68  1  0.39502710  0.95794425  0.81082531  1  0.506541  0  0.115764  0.315543  0  4.04647  0
C  C69  1  0.37213229  0.00001722  0.87204703  1  0.047008  0  -0.029378  -0.263097  0  3.902035  0
C  C70  1  0.31090669  0.04209071  0.89497652  1  0.437084  0  0.115831  0.31583  0  4.046276  0
C  C71  1  0.27546938  0.04290246  0.86117689  1  -0.011093  0  -0.098403  -0.28321  0  3.947515  0
C  C72  1  0.12773605  0.74421265  0.37222994  1  0.068812  0  -0.028797  -0.263085  0  3.902811  0
C  C73  1  0.18895966  0.70589789  0.35306965  1  0.418616  0  0.11613  0.315843  0  4.045481  0
C  C74  1  0.22437848  0.63666140  0.31844824  1  0.113842  0  -0.097888  -0.282386  0  3.945787  0
C  C75  1  0.19928185  0.60111263  0.30068717  1  -0.08475  0  0.010968  0.202598  0  4.146395  0
C  C76  1  0.13862624  0.63668287  0.31846469  1  0.065788  0  -0.098263  -0.282745  0  3.946513  0
C  C77  1  0.10481218  0.70591769  0.35308434  1  0.501121  0  0.116279  0.316175  0  4.045794  0
C  C78  1  0.23461175  0.53047885  0.26536527  1  0.058674  0  -0.032556  -0.090476  0  4.076896  0
C  C79  1  0.26510332  0.46952201  0.23488927  1  -0.185026  0  -0.032641  -0.090517  0  4.076871  0
C  C80  1  0.30044434  0.39888858  0.19956933  1  0.082011  0  0.011122  0.202977  0  4.146044  0
C  C81  1  0.36109561  0.36335897  0.18179863  1  -0.05473  0  -0.098069  -0.282835  0  3.945847  0
C  C82  1  0.39494589  0.29412132  0.14715689  1  0.522828  0  0.115953  0.316267  0  4.045274  0
C  C83  1  0.37206548  0.25578323  0.12795015  1  0.094673  0  -0.029715  -0.264182  0  3.902921  0
C  C84  1  0.31084141  0.29406053  0.14710101  1  0.402969  0  0.11561  0.315892  0  4.045986  0
C  C85  1  0.27538650  0.36329704  0.18174932  1  0.116072  0  -0.098063  -0.282467  0  3.947166  0
C  C86  1  0.87206898  0.25579087  0.62793675  1  0.099731  0  -0.029124  -0.262626  0  3.90232  0
C  C87  1  0.85296932  0.29408868  0.60501232  1  0.471682  0  0.115875  0.31586  0  4.045942  0
C  C88  1  0.81836846  0.36332500  0.63881566  1  -0.040952  0  -0.098272  -0.283086  0  3.947014  0
C  C89  1  0.80057971  0.39889724  0.69946893  1  0.103354  0  0.011766  0.203712  0  4.146301  0
C  C90  1  0.81834838  0.36334517  0.72456927  1  0.114618  0  -0.098485  -0.283043  0  3.947859  0
C  C91  1  0.85294487  0.29410948  0.68915930  1  0.393387  0  0.115552  0.315308  0  4.047133  0
C  C92  1  0.76525299  0.46952113  0.73477563  1  -0.1804  0  -0.033184  -0.090946  0  4.076949  0
C  C93  1  0.73474352  0.53048893  0.76526918  1  0.06243  0  -0.033064  -0.090853  0  4.076753  0
C  C94  1  0.69941139  0.60111281  0.80057846  1  -0.015505  0  0.01171  0.203277  0  4.146735  0
C  C95  1  0.68162805  0.63665888  0.77547194  1  0.113504  0  -0.098401  -0.283025  0  3.947551  0
C  C96  1  0.64701490  0.70589564  0.81087631  1  0.424081  0  0.11592  0.316118  0  4.046317  0
C  C97  1  0.62787686  0.74422732  0.87209900  1  0.034167  0  -0.029564  -0.263662  0  3.902615  0
C  C98  1  0.64701607  0.70593127  0.89502877  1  0.492228  0  0.115693  0.315775  0  4.045408  0
C  C99  1  0.68162939  0.63669318  0.86123311  1  -0.000632  0  -0.098243  -0.282903  0  3.947446  0
C  C100  1  0.87209065  0.00005678  0.62799310  1  0.063397  0  -0.029038  -0.262045  0  3.902784  0
C  C101  1  0.85297220  0.04214419  0.68921200  1  0.477044  0  0.115709  0.315015  0  4.047506  0
C  C102  1  0.81836390  0.04297408  0.72465974  1  0.055911  0  -0.098297  -0.28244  0  3.948048  0
C  C103  1  0.80056707  0.00012678  0.69959000  1  0.101085  0  0.011108  0.202708  0  4.147456  0
C  C104  1  0.81831326  0.95724052  0.63894625  1  0.008018  0  -0.09794  -0.282402  0  3.946186  0
C  C105  1  0.85293275  0.95800091  0.60509598  1  0.480272  0  0.115936  0.315535  0  4.045841  0
C  C106  1  0.76525272  0.00015885  0.73492682  1  -0.257732  0  -0.032821  -0.090772  0  4.077797  0
C  C107  1  0.73477204  0.00017468  0.76541488  1  -0.051942  0  -0.032682  -0.090406  0  4.077711  0
C  C108  1  0.69945854  0.00016434  0.80070915  1  0.069712  0  0.011245  0.202606  0  4.147559  0
C  C109  1  0.68165656  0.04303459  0.86135991  1  0.031129  0  -0.098371  -0.282269  0  3.947451  0
C  C110  1  0.64704125  0.04220634  0.89514451  1  0.48954  0  0.115969  0.315484  0  4.04701  0
C  C111  1  0.62791928  0.00011136  0.87218038  1  0.057637  0  -0.028656  -0.262324  0  3.902468  0
C  C112  1  0.64709798  0.95804573  0.81095738  1  0.475339  0  0.115775  0.315249  0  4.046184  0
C  C113  1  0.68171610  0.95727097  0.77556910  1  0.0695  0  -0.097698  -0.282025  0  3.946405  0
C  C114  1  0.12782681  0.00011152  0.37220005  1  0.065446  0  -0.028968  -0.262991  0  3.901766  0
C  C115  1  0.18905705  0.95808473  0.35306432  1  0.476937  0  0.115944  0.315972  0  4.044794  0
C  C116  1  0.22447497  0.95729821  0.31845211  1  0.059119  0  -0.098329  -0.283276  0  3.946119  0
C  C117  1  0.19938557  0.00017086  0.30066621  1  0.08958  0  0.011723  0.203516  0  4.145578  0
C  C118  1  0.13872363  0.04302143  0.31844845  1  0.014612  0  -0.098267  -0.283053  0  3.946984  0
C  C119  1  0.10491458  0.04219132  0.35305145  1  0.484068  0  0.115505  0.315481  0  4.045944  0
C  C120  1  0.23470355  0.00015292  0.26532716  1  -0.049273  0  -0.03294  -0.090668  0  4.075656  0
C  C121  1  0.26518829  0.00013214  0.23482021  1  -0.259703  0  -0.03274  -0.090389  0  4.075439  0
C  C122  1  0.30050633  0.00010890  0.19947792  1  0.100295  0  0.011642  0.203068  0  4.145967  0
C  C123  1  0.36116513  0.95720519  0.18166876  1  0.003994  0  -0.098252  -0.282866  0  3.94589  0
C  C124  1  0.39499363  0.95797911  0.14702900  1  0.479878  0  0.11557  0.315669  0  4.044997  0
C  C125  1  0.37210140  0.00003713  0.12786077  1  0.068301  0  -0.028708  -0.262938  0  3.902447  0
C  C126  1  0.31087629  0.04212315  0.14702774  1  0.477943  0  0.115779  0.316003  0  4.045865  0
C  C127  1  0.27543816  0.04295950  0.18166758  1  0.05083  0  -0.098589  -0.283559  0  3.947258  0
O  O128  1  0.50003625  0.99999878  0.99994308  1  -1.213728  0  -0.570935  -1.037721  0  2.529574  0
O  O129  1  0.57606260  0.04021450  0.96413045  1  -1.172054  0  -0.311567  -0.539192  0  2.36014  0
O  O130  1  0.46413903  0.95987172  0.88373242  1  -1.156894  0  -0.311733  -0.540116  0  2.359567  0
O  O131  1  0.38381139  0.15208722  0.07600097  1  -1.176597  0  -0.31175  -0.539512  0  2.360797  0
O  O132  1  0.57609974  0.95993349  0.88380929  1  -1.161203  0  -0.312797  -0.542162  0  2.360932  0
O  O133  1  0.46407562  0.15213664  0.07605216  1  -1.172852  0  -0.311967  -0.540177  0  2.360631  0
O  O134  1  0.38384103  0.04013653  0.96401598  1  -1.17113  0  -0.312449  -0.541168  0  2.360358  0
O  O135  1  0.38381026  0.04015707  0.07599729  1  -1.165195  0  -0.31186  -0.539962  0  2.359317  0
O  O136  1  0.57608114  0.95983043  0.07600679  1  -1.168684  0  -0.311864  -0.539838  0  2.36075  0
O  O137  1  0.46409562  0.95987575  0.07602718  1  -1.170177  0  -0.312179  -0.540679  0  2.360284  0
O  O138  1  0.57606129  0.04014597  0.07603566  1  -1.168111  0  -0.311705  -0.53976  0  2.360534  0
O  O139  1  0.57613225  0.84790261  0.88376951  1  -1.166199  0  -0.311768  -0.540201  0  2.360034  0
O  O140  1  0.57608885  0.84789884  0.96406494  1  -1.172631  0  -0.312237  -0.540366  0  2.359988  0
O  O141  1  0.99993064  0.99999997  0.50001331  1  -1.21377  0  -0.571118  -1.03802  0  2.529511  0
O  O142  1  0.03575325  0.84790766  0.42405923  1  -1.174549  0  -0.312805  -0.541351  0  2.359356  0
O  O143  1  0.11608817  0.95983800  0.53594744  1  -1.171433  0  -0.312384  -0.541348  0  2.360577  0
O  O144  1  0.92390758  0.04017622  0.61624801  1  -1.165962  0  -0.311669  -0.539374  0  2.361457  0
O  O145  1  0.11605158  0.84787685  0.42401731  1  -1.170888  0  -0.312179  -0.541109  0  2.361417  0
O  O146  1  0.92387596  0.95989628  0.53599811  1  -1.169044  0  -0.312904  -0.541976  0  2.360668  0
O  O147  1  0.03580425  0.04014274  0.61625402  1  -1.157771  0  -0.312076  -0.540441  0  2.359132  0
O  O148  1  0.92381036  0.15211840  0.61625534  1  -1.166884  0  -0.311887  -0.540144  0  2.360047  0
O  O149  1  0.92379809  0.04015679  0.42403896  1  -1.166287  0  -0.312226  -0.541123  0  2.361543  0
O  O150  1  0.92379561  0.15210735  0.53595940  1  -1.17146  0  -0.311861  -0.54046  0  2.360814  0
O  O151  1  0.92377928  0.95989710  0.42406925  1  -1.166398  0  -0.31193  -0.54032  0  2.359887  0
O  O152  1  0.11614742  0.95983807  0.42392837  1  -1.163274  0  -0.312232  -0.540782  0  2.359874  0
O  O153  1  0.03583417  0.04015297  0.42395714  1  -1.172466  0  -0.311721  -0.539894  0  2.358686  0
F  F154  1  0.86807169  0.08465104  0.36819384  1  -0.627752  0  -0.090297  -0.123177  0  1.356094  0
F  F155  1  0.86809710  0.91523755  0.36814724  1  -0.620426  0  -0.089771  -0.122629  0  1.356247  0
F  F156  1  0.63184565  0.08468039  0.13186327  1  -0.625177  0  -0.089962  -0.123073  0  1.355753  0
F  F157  1  0.63179203  0.91533230  0.13186000  1  -0.622576  0  -0.089863  -0.122818  0  1.355652  0
F  F158  1  0.21643454  0.91531672  0.54716874  1  -0.634845  0  -0.090148  -0.12308  0  1.355082  0
F  F159  1  0.04709393  0.08476212  0.71659427  1  -0.633259  0  -0.089692  -0.122671  0  1.355899  0
F  F160  1  0.45284467  0.91531701  0.78338518  1  -0.623466  0  -0.089727  -0.122737  0  1.355947  0
F  F161  1  0.28348726  0.08471400  0.95279748  1  -0.634448  0  -0.089849  -0.122794  0  1.356045  0
F  F162  1  0.21638399  0.73628680  0.36826655  1  -0.629335  0  -0.090488  -0.123117  0  1.355877  0
F  F163  1  0.04699256  0.73630643  0.36827955  1  -0.618904  0  -0.090308  -0.123057  0  1.355412  0
F  F164  1  0.45276210  0.26375979  0.13198948  1  -0.635626  0  -0.090137  -0.123124  0  1.355661  0
F  F165  1  0.28344162  0.26364405  0.13188310  1  -0.619465  0  -0.08976  -0.122739  0  1.355976  0
F  F166  1  0.86818826  0.26368342  0.54719152  1  -0.636335  0  -0.090067  -0.123085  0  1.355872  0
F  F167  1  0.86813578  0.26373107  0.71659853  1  -0.626505  0  -0.089579  -0.122619  0  1.356125  0
F  F168  1  0.63180812  0.73627298  0.78343563  1  -0.626699  0  -0.089877  -0.122968  0  1.355902  0
F  F169  1  0.63182027  0.73633052  0.95284869  1  -0.623951  0  -0.089858  -0.122801  0  1.355503  0
F  F170  1  0.86819584  0.08473689  0.71660293  1  -0.623702  0  -0.0896  -0.122418  0  1.356323  0
F  F171  1  0.86810635  0.91537155  0.54728314  1  -0.625586  0  -0.089996  -0.12294  0  1.355895  0
F  F172  1  0.63181863  0.08482369  0.95296679  1  -0.630046  0  -0.089823  -0.122693  0  1.35598  0
F  F173  1  0.63193410  0.91540531  0.78349503  1  -0.621147  0  -0.090368  -0.123163  0  1.356417  0
F  F174  1  0.21650456  0.91548027  0.36827869  1  -0.622795  0  -0.090111  -0.123001  0  1.355356  0
F  F175  1  0.04709341  0.08482361  0.36825273  1  -0.628869  0  -0.089844  -0.122717  0  1.355913  0
F  F176  1  0.45281281  0.91532809  0.13182300  1  -0.626608  0  -0.090072  -0.123039  0  1.355429  0
F  F177  1  0.28345178  0.08474140  0.13182466  1  -0.623983  0  -0.08976  -0.12265  0  1.35611  0
