# generated using pymatgen
data_CdH6C7(N3O)2
_symmetry_space_group_name_H-M   'P 1'
_cell_length_a   6.77438901
_cell_length_b   9.85551994
_cell_length_c   13.23047002
_cell_angle_alpha   89.99980395
_cell_angle_beta   89.99967813
_cell_angle_gamma   89.99933456
_symmetry_Int_Tables_number   1
_chemical_formula_structural   CdH6C7(N3O)2
_chemical_formula_sum   'Cd4 H24 C28 N24 O8'
_cell_volume   883.33399799
_cell_formula_units_Z   4
loop_
 _symmetry_equiv_pos_site_id
 _symmetry_equiv_pos_as_xyz
  1  'x, y, z'
loop_
 _atom_site_type_symbol
 _atom_site_label
 _atom_site_symmetry_multiplicity
 _atom_site_fract_x
 _atom_site_fract_y
 _atom_site_fract_z
 _atom_site_occupancy
 _atom_site_hle17_bader_spin_density
 _atom_site_hle17_ddec_charge
 _atom_site_hle17_ddec_spin_density
 _atom_site_hle17_ddec_sum_bond_order
 _atom_site_hle17_magmom
 _atom_site_hse06_10hf_bader_spin_density
 _atom_site_hse06_10hf_ddec_charge
 _atom_site_hse06_10hf_ddec_spin_density
 _atom_site_hse06_10hf_ddec_sum_bond_order
 _atom_site_hse06_10hf_magmom
 _atom_site_hse06_bader_spin_density
 _atom_site_hse06_ddec_charge
 _atom_site_hse06_ddec_spin_density
 _atom_site_hse06_ddec_sum_bond_order
 _atom_site_hse06_magmom
 _atom_site_pbe_bader_spin_density
 _atom_site_pbe_cm5_charge
 _atom_site_pbe_ddec_charge
 _atom_site_pbe_ddec_spin_density
 _atom_site_pbe_ddec_sum_bond_order
 _atom_site_pbe_magmom
Cd  Cd0  1  0.74999410  0.86844522  0.49999969  1  0  1.146724  0  1.626361  0  0  0.938652  0  2.064889  0  0  0.99528  0  2.017239  0  0  0.80343  0.899707  0  2.096793  0
Cd  Cd1  1  0.25000077  0.13155574  0.00000098  1  0  1.14674  0  1.626312  0  0  0.938683  0  2.064814  0  0  0.995314  0  2.017162  0  0  0.803447  0.899739  0  2.096711  0
Cd  Cd2  1  0.25000690  0.13155560  0.49999985  1  0  1.146714  0  1.626372  0  0  0.938637  0  2.064921  0  0  0.995267  0  2.017263  0  0  0.803426  0.89969  0  2.096819  0
Cd  Cd3  1  0.74999728  0.86844306  0.99999856  1  0  1.14672  0  1.626367  0  0  0.938642  0  2.064886  0  0  0.995273  0  2.017236  0  0  0.803425  0.899693  0  2.096784  0
H  H4  1  0.43065944  0.87584396  0.68445618  1  0  0.337272  0  0.915005  0  0  0.317505  0  0.983537  0  0  0.324149  0  0.978591  0  0  0.299787  0.312716  0  0.98719  0
H  H5  1  0.56934228  0.12415717  0.18445656  1  0  0.337359  0  0.914827  0  0  0.317599  0  0.983359  0  0  0.324244  0  0.978406  0  0  0.299793  0.312808  0  0.987012  0
H  H6  1  0.06934768  0.87584625  0.31554539  1  0  0.337411  0  0.91466  0  0  0.317641  0  0.983195  0  0  0.324289  0  0.978244  0  0  0.299833  0.312848  0  0.986858  0
H  H7  1  0.93064965  0.12415327  0.81554700  1  0  0.337405  0  0.914729  0  0  0.317629  0  0.983283  0  0  0.324276  0  0.97833  0  0  0.299798  0.312834  0  0.98695  0
H  H8  1  0.56934009  0.12415687  0.31554412  1  0  0.337284  0  0.914973  0  0  0.317515  0  0.983515  0  0  0.324159  0  0.978567  0  0  0.299774  0.312722  0  0.987174  0
H  H9  1  0.43065577  0.87584366  0.81554449  1  0  0.337374  0  0.914764  0  0  0.317622  0  0.983287  0  0  0.32427  0  0.97833  0  0  0.299775  0.312828  0  0.98695  0
H  H10  1  0.93065184  0.12415458  0.68445490  1  0  0.337446  0  0.914665  0  0  0.317657  0  0.983228  0  0  0.324303  0  0.978279  0  0  0.299833  0.312866  0  0.986888  0
H  H11  1  0.06934987  0.87584655  0.18445330  1  0  0.337371  0  0.914762  0  0  0.317596  0  0.983313  0  0  0.324244  0  0.978359  0  0  0.2998  0.312804  0  0.98697  0
H  H12  1  0.87223011  0.34801421  0.65051789  1  0  0.110729  0  0.964886  0  0  0.117425  0  1.031765  0  0  0.12095  0  1.03025  0  0  0.107018  0.114813  0  1.03298  0
H  H13  1  0.12776903  0.65198707  0.15051215  1  0  0.110726  0  0.964935  0  0  0.117423  0  1.031811  0  0  0.120946  0  1.030296  0  0  0.106992  0.114808  0  1.033026  0
H  H14  1  0.62778018  0.34800979  0.34949190  1  0  0.110781  0  0.964807  0  0  0.11747  0  1.031691  0  0  0.120995  0  1.030173  0  0  0.10701  0.114865  0  1.032896  0
H  H15  1  0.37222121  0.65198855  0.84948621  1  0  0.110779  0  0.964811  0  0  0.117482  0  1.031691  0  0  0.121008  0  1.030171  0  0  0.107022  0.114885  0  1.032891  0
H  H16  1  0.12776942  0.65198661  0.34948241  1  0  0.110732  0  0.964825  0  0  0.117418  0  1.031718  0  0  0.120942  0  1.030201  0  0  0.107022  0.114813  0  1.032924  0
H  H17  1  0.87223197  0.34801274  0.84948890  1  0  0.110764  0  0.964905  0  0  0.117466  0  1.031766  0  0  0.120989  0  1.03025  0  0  0.106998  0.114852  0  1.032985  0
H  H18  1  0.37221934  0.65199002  0.65050840  1  0  0.11078  0  0.964775  0  0  0.117471  0  1.031665  0  0  0.120995  0  1.030147  0  0  0.107006  0.114868  0  1.032871  0
H  H19  1  0.62777831  0.34801126  0.15051560  1  0  0.110766  0  0.964823  0  0  0.11746  0  1.031711  0  0  0.120986  0  1.030191  0  0  0.107018  0.114857  0  1.032916  0
H  H20  1  0.86469815  0.60249804  0.64464855  1  0  0.075278  0  0.95731  0  0  0.081492  0  1.022372  0  0  0.083543  0  1.021599  0  0  0.110994  0.079666  0  1.023338  0
H  H21  1  0.13530104  0.39750226  0.14464797  1  0  0.075232  0  0.957312  0  0  0.081426  0  1.022392  0  0  0.083479  0  1.021619  0  0  0.110976  0.079603  0  1.023353  0
H  H22  1  0.63530340  0.60249455  0.35535455  1  0  0.075226  0  0.957302  0  0  0.08139  0  1.022409  0  0  0.083441  0  1.021639  0  0  0.110965  0.079569  0  1.023368  0
H  H23  1  0.36470088  0.39750479  0.85535255  1  0  0.075284  0  0.957344  0  0  0.081474  0  1.022416  0  0  0.083526  0  1.021645  0  0  0.110984  0.079648  0  1.023378  0
H  H24  1  0.13530284  0.39750177  0.35535100  1  0  0.075287  0  0.957332  0  0  0.081499  0  1.022392  0  0  0.08355  0  1.021618  0  0  0.110991  0.079676  0  1.023353  0
H  H25  1  0.86469848  0.60249654  0.85535383  1  0  0.075263  0  0.957343  0  0  0.081438  0  1.022431  0  0  0.083491  0  1.021657  0  0  0.110973  0.079616  0  1.023389  0
H  H26  1  0.36469170  0.39750730  0.64464500  1  0  0.075242  0  0.957398  0  0  0.081415  0  1.02248  0  0  0.083465  0  1.02171  0  0  0.11099  0.079594  0  1.023433  0
H  H27  1  0.63530307  0.60249401  0.14464850  1  0  0.075306  0  0.957403  0  0  0.081514  0  1.022453  0  0  0.083566  0  1.021681  0  0  0.111003  0.079692  0  1.023414  0
C  C28  1  0.75003686  0.17629808  0.50000965  1  0  0.667392  0  3.896331  0  0  0.601321  0  4.207415  0  0  0.637321  0  4.196698  0  0  0.216805  0.576919  0  4.213706  0
C  C29  1  0.24997425  0.82370187  0.00000312  1  0  0.667573  0  3.896317  0  0  0.601506  0  4.207369  0  0  0.63751  0  4.196639  0  0  0.216861  0.577094  0  4.213676  0
C  C30  1  0.24997152  0.82370174  0.49999141  1  0  0.6674  0  3.896372  0  0  0.601306  0  4.207493  0  0  0.637311  0  4.196772  0  0  0.216758  0.576897  0  4.2138  0
C  C31  1  0.75002334  0.17629720  0.99999642  1  0  0.667455  0  3.896444  0  0  0.601341  0  4.20753  0  0  0.637342  0  4.196806  0  0  0.216787  0.576929  0  4.213838  0
C  C32  1  0.75000900  0.32847270  0.50000492  1  0  -0.010572  0  3.727336  0  0  0.005859  0  3.96884  0  0  0.003178  0  3.987932  0  0  0.004445  0.007672  0  3.956096  0
C  C33  1  0.24999518  0.67152698  0.99999651  1  0  -0.010761  0  3.727249  0  0  0.005785  0  3.968597  0  0  0.003101  0  3.987689  0  0  0.004421  0.007602  0  3.955855  0
C  C34  1  0.24999200  0.67152712  0.49999538  1  0  -0.010585  0  3.727353  0  0  0.00588  0  3.968806  0  0  0.003199  0  3.987895  0  0  0.004452  0.007689  0  3.956075  0
C  C35  1  0.75000434  0.32847385  0.00000454  1  0  -0.01069  0  3.727413  0  0  0.005908  0  3.968699  0  0  0.003226  0  3.987788  0  0  0.004454  0.007729  0  3.95595  0
C  C36  1  0.81753431  0.40109651  0.58390273  1  0  -0.120796  0  3.704699  0  0  -0.143225  0  3.954765  0  0  -0.147866  0  3.97473  0  0  -0.080697  -0.140356  0  3.941438  0
C  C37  1  0.18246555  0.59890203  0.08390075  1  0  -0.120731  0  3.704531  0  0  -0.143174  0  3.95455  0  0  -0.147824  0  3.97454  0  0  -0.080679  -0.1403  0  3.941219  0
C  C38  1  0.68247655  0.40109744  0.41610314  1  0  -0.12086  0  3.704729  0  0  -0.143275  0  3.954775  0  0  -0.147917  0  3.974746  0  0  -0.080736  -0.140409  0  3.941441  0
C  C39  1  0.31752559  0.59890365  0.91609926  1  0  -0.120806  0  3.704734  0  0  -0.143304  0  3.954819  0  0  -0.147942  0  3.97478  0  0  -0.080739  -0.140451  0  3.941483  0
C  C40  1  0.18246669  0.59890432  0.41609757  1  0  -0.120722  0  3.7047  0  0  -0.143149  0  3.954754  0  0  -0.147787  0  3.974719  0  0  -0.080663  -0.140282  0  3.941422  0
C  C41  1  0.81753693  0.40109372  0.91610181  1  0  -0.120793  0  3.704656  0  0  -0.143267  0  3.954647  0  0  -0.147915  0  3.974632  0  0  -0.080694  -0.140399  0  3.941329  0
C  C42  1  0.31752297  0.59890441  0.58389564  1  0  -0.120814  0  3.704666  0  0  -0.143243  0  3.954723  0  0  -0.147888  0  3.974701  0  0  -0.080713  -0.140381  0  3.941393  0
C  C43  1  0.68247541  0.40109312  0.08390255  1  0  -0.120727  0  3.704638  0  0  -0.143208  0  3.954669  0  0  -0.147843  0  3.974623  0  0  -0.080694  -0.140355  0  3.941354  0
C  C44  1  0.81330545  0.54211396  0.58085580  1  0  0.118167  0  3.726016  0  0  0.091373  0  3.979456  0  0  0.096618  0  3.998815  0  0  0.03842  0.088072  0  3.966026  0
C  C45  1  0.18669739  0.45788765  0.08084964  1  0  0.118204  0  3.726148  0  0  0.091414  0  3.979612  0  0  0.096657  0  3.998969  0  0  0.038451  0.088107  0  3.966183  0
C  C46  1  0.68670008  0.54211077  0.41915425  1  0  0.118158  0  3.726331  0  0  0.091404  0  3.979761  0  0  0.096646  0  3.999128  0  0  0.038458  0.0881  0  3.966333  0
C  C47  1  0.31330351  0.45788826  0.91914847  1  0  0.11814  0  3.726135  0  0  0.091384  0  3.979566  0  0  0.096631  0  3.998922  0  0  0.038448  0.088086  0  3.966137  0
C  C48  1  0.18669260  0.45788687  0.41914374  1  0  0.118011  0  3.726145  0  0  0.09123  0  3.979574  0  0  0.096474  0  3.998934  0  0  0.038367  0.087927  0  3.966141  0
C  C49  1  0.81330803  0.54211318  0.91915217  1  0  0.118078  0  3.726243  0  0  0.09132  0  3.979693  0  0  0.096563  0  3.999052  0  0  0.038399  0.088016  0  3.96626  0
C  C50  1  0.31329945  0.45788803  0.58084681  1  0  0.118087  0  3.726373  0  0  0.091324  0  3.979815  0  0  0.096566  0  3.999182  0  0  0.038414  0.088022  0  3.966381  0
C  C51  1  0.68669749  0.54211358  0.08085258  1  0  0.118042  0  3.726163  0  0  0.091257  0  3.979621  0  0  0.096504  0  3.998978  0  0  0.038405  0.087948  0  3.966197  0
C  C52  1  0.69825095  0.85108098  0.74999998  1  0  0.563392  0  3.862596  0  0  0.510748  0  4.145934  0  0  0.534535  0  4.156169  0  0  0.320211  0.494741  0  4.138685  0
C  C53  1  0.30174710  0.14892086  0.24999956  1  0  0.563392  0  3.862451  0  0  0.510692  0  4.145895  0  0  0.534476  0  4.156132  0  0  0.320184  0.494674  0  4.138661  0
C  C54  1  0.80178330  0.85108273  0.24999945  1  0  0.563193  0  3.862716  0  0  0.510475  0  4.146132  0  0  0.534267  0  4.156377  0  0  0.3201  0.49447  0  4.138876  0
C  C55  1  0.19822065  0.14891810  0.75000084  1  0  0.563121  0  3.862842  0  0  0.510472  0  4.146149  0  0  0.534262  0  4.156398  0  0  0.32011  0.494466  0  4.138898  0
N  N56  1  0.74999774  0.61244757  0.49999927  1  0  -0.34742  0  3.239942  0  0  -0.278297  0  3.505146  0  0  -0.295713  0  3.525597  0  0  -0.322941  -0.266404  0  3.490308  0
N  N57  1  0.25000008  0.38755238  0.00000217  1  0  -0.347453  0  3.239921  0  0  -0.278334  0  3.505132  0  0  -0.295748  0  3.525577  0  0  -0.322952  -0.266441  0  3.490291  0
N  N58  1  0.25000031  0.38755326  0.49999952  1  0  -0.347315  0  3.239935  0  0  -0.278192  0  3.505132  0  0  -0.295608  0  3.525584  0  0  -0.322915  -0.266293  0  3.490284  0
N  N59  1  0.75000194  0.61244466  0.99999964  1  0  -0.347353  0  3.240042  0  0  -0.278249  0  3.50525  0  0  -0.295664  0  3.525698  0  0  -0.322916  -0.266349  0  3.490404  0
N  N60  1  0.49816652  0.84683239  0.74999347  1  0  -0.701768  0  3.068836  0  0  -0.668727  0  3.315273  0  0  -0.688416  0  3.310135  0  0  -0.592012  -0.654545  0  3.318569  0
N  N61  1  0.50183300  0.15316743  0.25000380  1  0  -0.701791  0  3.068757  0  0  -0.668712  0  3.315203  0  0  -0.688399  0  3.310066  0  0  -0.591991  -0.654523  0  3.318494  0
N  N62  1  0.00181304  0.84682942  0.24999759  1  0  -0.701657  0  3.069252  0  0  -0.668534  0  3.315678  0  0  -0.688221  0  3.310536  0  0  -0.591864  -0.654348  0  3.318964  0
N  N63  1  0.99818501  0.15317140  0.75000044  1  0  -0.701726  0  3.069205  0  0  -0.668629  0  3.315624  0  0  -0.68832  0  3.310491  0  0  -0.591885  -0.654442  0  3.318917  0
N  N64  1  0.81424565  0.84754767  0.66695968  1  0  -0.445434  0  3.128026  0  0  -0.366885  0  3.417459  0  0  -0.391194  0  3.430199  0  0  -0.270124  -0.350623  0  3.408708  0
N  N65  1  0.18575477  0.15245557  0.16696337  1  0  -0.445362  0  3.127986  0  0  -0.366815  0  3.417445  0  0  -0.391135  0  3.43022  0  0  -0.270155  -0.350554  0  3.408692  0
N  N66  1  0.68575028  0.84754590  0.33303900  1  0  -0.445433  0  3.127877  0  0  -0.366842  0  3.417327  0  0  -0.391138  0  3.43003  0  0  -0.27016  -0.350586  0  3.408586  0
N  N67  1  0.31424687  0.15245252  0.83304081  1  0  -0.445429  0  3.127954  0  0  -0.366809  0  3.417286  0  0  -0.391137  0  3.430071  0  0  -0.27013  -0.350549  0  3.408537  0
N  N68  1  0.18575387  0.15245418  0.33303910  1  0  -0.445401  0  3.128009  0  0  -0.366832  0  3.417452  0  0  -0.391145  0  3.430203  0  0  -0.270128  -0.350573  0  3.408708  0
N  N69  1  0.81424623  0.84754526  0.83303617  1  0  -0.445473  0  3.128208  0  0  -0.366869  0  3.417561  0  0  -0.39119  0  3.430335  0  0  -0.270162  -0.350609  0  3.408809  0
N  N70  1  0.31424925  0.15245493  0.66696054  1  0  -0.445378  0  3.127888  0  0  -0.366833  0  3.417353  0  0  -0.391118  0  3.43003  0  0  -0.270147  -0.350574  0  3.408599  0
N  N71  1  0.68575266  0.84754730  0.16695874  1  0  -0.445409  0  3.127856  0  0  -0.366798  0  3.417251  0  0  -0.391125  0  3.430033  0  0  -0.27011  -0.350531  0  3.408489  0
N  N72  1  0.00439096  0.83814695  0.70095361  1  0  -0.084414  0  2.991452  0  0  -0.078268  0  3.293084  0  0  -0.07582  0  3.304996  0  0  -0.109027  -0.079539  0  3.285234  0
N  N73  1  0.99560909  0.16185410  0.20095720  1  0  -0.084442  0  2.991486  0  0  -0.078291  0  3.293126  0  0  -0.075844  0  3.305036  0  0  -0.109012  -0.079554  0  3.285264  0
N  N74  1  0.49561089  0.83814591  0.29904352  1  0  -0.084371  0  2.991631  0  0  -0.078243  0  3.293275  0  0  -0.075791  0  3.305188  0  0  -0.109011  -0.079518  0  3.285435  0
N  N75  1  0.50438958  0.16185266  0.79904475  1  0  -0.084467  0  2.991571  0  0  -0.078383  0  3.293257  0  0  -0.075936  0  3.305172  0  0  -0.109056  -0.079651  0  3.285409  0
N  N76  1  0.99560856  0.16185388  0.29904593  1  0  -0.084401  0  2.991468  0  0  -0.078248  0  3.29309  0  0  -0.075798  0  3.305  0  0  -0.108987  -0.079521  0  3.285238  0
N  N77  1  0.00439043  0.83814571  0.79904234  1  0  -0.08433  0  2.991604  0  0  -0.0782  0  3.293231  0  0  -0.075752  0  3.305141  0  0  -0.10896  -0.07947  0  3.28538  0
N  N78  1  0.50439011  0.16185390  0.70095678  1  0  -0.084301  0  2.991582  0  0  -0.078146  0  3.293203  0  0  -0.075694  0  3.305118  0  0  -0.108942  -0.079418  0  3.285354  0
N  N79  1  0.49560994  0.83814715  0.20095555  1  0  -0.084427  0  2.991574  0  0  -0.078308  0  3.293236  0  0  -0.075861  0  3.305151  0  0  -0.109003  -0.079574  0  3.28538  0
O  O80  1  0.89589387  0.11378117  0.53873679  1  0  -0.649743  0  2.074352  0  0  -0.574235  0  2.335576  0  0  -0.603503  0  2.323224  0  0  -0.311339  -0.553844  0  2.343222  0
O  O81  1  0.10411238  0.88622265  0.03873430  1  0  -0.649694  0  2.074111  0  0  -0.574268  0  2.335408  0  0  -0.603535  0  2.32305  0  0  -0.311348  -0.55387  0  2.343053  0
O  O82  1  0.60411152  0.11376527  0.46126453  1  0  -0.649749  0  2.073049  0  0  -0.574325  0  2.334359  0  0  -0.603613  0  2.322016  0  0  -0.311371  -0.553912  0  2.341988  0
O  O83  1  0.39589456  0.88623054  0.96126044  1  0  -0.649855  0  2.073152  0  0  -0.57442  0  2.334444  0  0  -0.603702  0  2.322093  0  0  -0.311407  -0.554008  0  2.342085  0
O  O84  1  0.10410861  0.88622168  0.46126200  1  0  -0.649724  0  2.074191  0  0  -0.574261  0  2.335471  0  0  -0.603548  0  2.323138  0  0  -0.311343  -0.553862  0  2.343118  0
O  O85  1  0.89588419  0.11377615  0.96126524  1  0  -0.649668  0  2.07419  0  0  -0.574225  0  2.33549  0  0  -0.603491  0  2.323137  0  0  -0.31131  -0.553828  0  2.343142  0
O  O86  1  0.39588948  0.88623150  0.53873426  1  0  -0.649742  0  2.073225  0  0  -0.574275  0  2.334499  0  0  -0.603557  0  2.322151  0  0  -0.31131  -0.553858  0  2.342133  0
O  O87  1  0.60410201  0.11377131  0.03873910  1  0  -0.649818  0  2.073228  0  0  -0.574346  0  2.334495  0  0  -0.603624  0  2.322146  0  0  -0.311403  -0.553934  0  2.342134  0
