# generated using pymatgen
data_AgH10C14S2N4ClO4
_symmetry_space_group_name_H-M   'P 1'
_cell_length_a   7.96344214
_cell_length_b   13.89534852
_cell_length_c   14.99541117
_cell_angle_alpha   101.64652570
_cell_angle_beta   89.99991324
_cell_angle_gamma   90.00020805
_symmetry_Int_Tables_number   1
_chemical_formula_structural   AgH10C14S2N4ClO4
_chemical_formula_sum   'Ag4 H40 C56 S8 N16 Cl4 O16'
_cell_volume   1625.15173347
_cell_formula_units_Z   4
loop_
 _symmetry_equiv_pos_site_id
 _symmetry_equiv_pos_as_xyz
  1  'x, y, z'
loop_
 _atom_site_type_symbol
 _atom_site_label
 _atom_site_symmetry_multiplicity
 _atom_site_fract_x
 _atom_site_fract_y
 _atom_site_fract_z
 _atom_site_occupancy
 _atom_site_hle17_bader_spin_density
 _atom_site_hle17_ddec_charge
 _atom_site_hle17_ddec_spin_density
 _atom_site_hle17_ddec_sum_bond_order
 _atom_site_hle17_magmom
 _atom_site_hse06_10hf_bader_spin_density
 _atom_site_hse06_10hf_ddec_charge
 _atom_site_hse06_10hf_ddec_spin_density
 _atom_site_hse06_10hf_ddec_sum_bond_order
 _atom_site_hse06_10hf_magmom
 _atom_site_hse06_bader_spin_density
 _atom_site_hse06_ddec_charge
 _atom_site_hse06_ddec_spin_density
 _atom_site_hse06_ddec_sum_bond_order
 _atom_site_hse06_magmom
 _atom_site_pbe_bader_spin_density
 _atom_site_pbe_cm5_charge
 _atom_site_pbe_ddec_charge
 _atom_site_pbe_ddec_spin_density
 _atom_site_pbe_ddec_sum_bond_order
 _atom_site_pbe_magmom
Ag  Ag0  1  0.91438555  0.99574888  0.76705057  1  0  0.529375  0  1.42304  0  0  0.387713  0  1.843615  0  0  0.41209  0  1.810187  0  0  0.469635  0.370946  0  1.866475  0
Ag  Ag1  1  0.41440427  0.50425266  0.73294291  1  0  0.529419  0  1.423016  0  0  0.387734  0  1.843607  0  0  0.412121  0  1.810177  0  0  0.469665  0.370968  0  1.866464  0
Ag  Ag2  1  0.08559960  0.00425127  0.23294198  1  0  0.529363  0  1.423079  0  0  0.387703  0  1.843678  0  0  0.41208  0  1.810249  0  0  0.469646  0.370951  0  1.86652  0
Ag  Ag3  1  0.58560600  0.49575045  0.26705820  1  0  0.529374  0  1.423062  0  0  0.387708  0  1.843653  0  0  0.412091  0  1.810226  0  0  0.469639  0.370944  0  1.866499  0
H  H4  1  0.22053201  0.13624818  0.84298616  1  0  0.099606  0  0.98862  0  0  0.103481  0  1.063088  0  0  0.106325  0  1.059246  0  0  0.127115  0.101358  0  1.065849  0
H  H5  1  0.72053663  0.36374821  0.65701097  1  0  0.099607  0  0.988653  0  0  0.103466  0  1.063127  0  0  0.10631  0  1.05928  0  0  0.127118  0.101342  0  1.065892  0
H  H6  1  0.77945942  0.86374831  0.15700905  1  0  0.099539  0  0.988695  0  0  0.103411  0  1.06317  0  0  0.106256  0  1.059325  0  0  0.127049  0.101286  0  1.065934  0
H  H7  1  0.27946610  0.63625342  0.34299120  1  0  0.099537  0  0.988631  0  0  0.103431  0  1.063072  0  0  0.106276  0  1.059224  0  0  0.12709  0.101308  0  1.065834  0
H  H8  1  0.70472734  0.20694908  0.86632559  1  0  0.117299  0  0.96961  0  0  0.129371  0  1.02638  0  0  0.131565  0  1.025551  0  0  0.116926  0.127745  0  1.02712  0
H  H9  1  0.20473185  0.29305316  0.63367531  1  0  0.117279  0  0.96961  0  0  0.129347  0  1.026392  0  0  0.13154  0  1.025566  0  0  0.116903  0.127721  0  1.027134  0
H  H10  1  0.29526032  0.79304815  0.13367643  1  0  0.117394  0  0.969525  0  0  0.129412  0  1.026352  0  0  0.131606  0  1.025524  0  0  0.116941  0.127786  0  1.027095  0
H  H11  1  0.79527088  0.70695068  0.36632860  1  0  0.117342  0  0.969606  0  0  0.129415  0  1.026371  0  0  0.131609  0  1.025544  0  0  0.116946  0.12779  0  1.027116  0
H  H12  1  0.89360842  0.37719759  0.93057657  1  0  0.110121  0  0.983967  0  0  0.114927  0  1.056765  0  0  0.117834  0  1.055095  0  0  0.114892  0.11281  0  1.058111  0
H  H13  1  0.39360701  0.12280282  0.56942051  1  0  0.110121  0  0.984042  0  0  0.114918  0  1.056849  0  0  0.117822  0  1.055184  0  0  0.114901  0.112806  0  1.058181  0
H  H14  1  0.10637924  0.62279965  0.06942745  1  0  0.110093  0  0.984038  0  0  0.114938  0  1.056822  0  0  0.117852  0  1.055129  0  0  0.114867  0.112825  0  1.058153  0
H  H15  1  0.60638944  0.87720174  0.43057420  1  0  0.11008  0  0.984084  0  0  0.114897  0  1.056875  0  0  0.117802  0  1.055208  0  0  0.114853  0.112773  0  1.058232  0
H  H16  1  0.40233954  0.26504293  0.80030517  1  0  0.127269  0  0.953277  0  0  0.138127  0  1.01089  0  0  0.140511  0  1.010843  0  0  0.109443  0.136407  0  1.011033  0
H  H17  1  0.90234196  0.23495677  0.69969177  1  0  0.127301  0  0.953277  0  0  0.138094  0  1.010965  0  0  0.140481  0  1.010911  0  0  0.10944  0.136377  0  1.011107  0
H  H18  1  0.59764687  0.73495136  0.19969164  1  0  0.127342  0  0.953333  0  0  0.138201  0  1.01094  0  0  0.140589  0  1.010883  0  0  0.109453  0.136482  0  1.011086  0
H  H19  1  0.09765951  0.76504634  0.30031067  1  0  0.127332  0  0.953312  0  0  0.138106  0  1.011018  0  0  0.140493  0  1.010966  0  0  0.109395  0.136384  0  1.011157  0
H  H20  1  0.62919529  0.39998494  0.86398488  1  0  0.122951  0  0.971929  0  0  0.136568  0  1.028656  0  0  0.138874  0  1.027481  0  0  0.103817  0.134897  0  1.029561  0
H  H21  1  0.12919982  0.10001568  0.63601578  1  0  0.122873  0  0.972066  0  0  0.136522  0  1.028778  0  0  0.138845  0  1.027558  0  0  0.103817  0.134852  0  1.029684  0
H  H22  1  0.37078986  0.60001081  0.13601219  1  0  0.122902  0  0.971969  0  0  0.136588  0  1.028639  0  0  0.13889  0  1.027479  0  0  0.103837  0.134916  0  1.029543  0
H  H23  1  0.87080039  0.89998523  0.36398892  1  0  0.122894  0  0.972078  0  0  0.136526  0  1.028816  0  0  0.138842  0  1.027618  0  0  0.103834  0.134857  0  1.029719  0
H  H24  1  0.20530601  0.82847365  0.73458432  1  0  0.108158  0  0.953086  0  0  0.117508  0  1.016  0  0  0.120062  0  1.012816  0  0  0.133931  0.11558  0  1.018319  0
H  H25  1  0.70532041  0.67152821  0.76541607  1  0  0.108165  0  0.953036  0  0  0.117519  0  1.015936  0  0  0.120078  0  1.01275  0  0  0.133948  0.11559  0  1.018258  0
H  H26  1  0.79468542  0.17152724  0.26541238  1  0  0.108123  0  0.953051  0  0  0.117493  0  1.015938  0  0  0.120041  0  1.012754  0  0  0.133945  0.115564  0  1.018256  0
H  H27  1  0.29468735  0.32847343  0.23458877  1  0  0.108087  0  0.953091  0  0  0.117452  0  1.01598  0  0  0.120001  0  1.012794  0  0  0.133931  0.115523  0  1.018297  0
H  H28  1  0.74840429  0.83242087  0.59231773  1  0  0.108827  0  0.958271  0  0  0.121072  0  1.01554  0  0  0.123012  0  1.015236  0  0  0.116505  0.119658  0  1.015877  0
H  H29  1  0.24840722  0.66757517  0.90766887  1  0  0.108762  0  0.958254  0  0  0.120995  0  1.01557  0  0  0.122937  0  1.015261  0  0  0.116439  0.119577  0  1.015905  0
H  H30  1  0.25159467  0.16756971  0.40766705  1  0  0.108866  0  0.958275  0  0  0.121078  0  1.015568  0  0  0.123018  0  1.015265  0  0  0.116494  0.119662  0  1.015906  0
H  H31  1  0.75160304  0.33243234  0.09233506  1  0  0.108814  0  0.958262  0  0  0.121036  0  1.015569  0  0  0.122978  0  1.015262  0  0  0.116449  0.119624  0  1.015907  0
H  H32  1  0.95091813  0.68086168  0.49773195  1  0  0.122053  0  0.956907  0  0  0.132709  0  1.018775  0  0  0.13511  0  1.017635  0  0  0.121377  0.130973  0  1.019689  0
H  H33  1  0.45091438  0.81913524  0.00226327  1  0  0.122037  0  0.957011  0  0  0.132794  0  1.018764  0  0  0.135195  0  1.017621  0  0  0.121371  0.131053  0  1.019689  0
H  H34  1  0.04909213  0.31912966  0.50226364  1  0  0.122084  0  0.956905  0  0  0.132844  0  1.018641  0  0  0.135244  0  1.0175  0  0  0.121435  0.131101  0  1.019569  0
H  H35  1  0.54909337  0.18087448  0.99773974  1  0  0.122048  0  0.95701  0  0  0.132813  0  1.018723  0  0  0.135213  0  1.017582  0  0  0.12142  0.131073  0  1.019649  0
H  H36  1  0.46088643  0.77976869  0.63966516  1  0  0.129365  0  0.948151  0  0  0.139003  0  1.011217  0  0  0.142001  0  1.009563  0  0  0.107427  0.136768  0  1.012596  0
H  H37  1  0.96089082  0.72023075  0.86033790  1  0  0.129363  0  0.948183  0  0  0.139003  0  1.011271  0  0  0.142031  0  1.009581  0  0  0.107449  0.136769  0  1.012652  0
H  H38  1  0.53911630  0.22023148  0.36033674  1  0  0.129394  0  0.948091  0  0  0.139019  0  1.011193  0  0  0.142018  0  1.009535  0  0  0.10744  0.136786  0  1.012568  0
H  H39  1  0.03911443  0.27977235  0.13966188  1  0  0.129383  0  0.948193  0  0  0.139016  0  1.011281  0  0  0.14202  0  1.00962  0  0  0.107457  0.136783  0  1.012656  0
H  H40  1  0.67503216  0.63780241  0.57580520  1  0  0.110497  0  0.968485  0  0  0.12275  0  1.028997  0  0  0.124688  0  1.029221  0  0  0.100512  0.12134  0  1.028946  0
H  H41  1  0.17504004  0.86219574  0.92420118  1  0  0.110466  0  0.968349  0  0  0.122731  0  1.028871  0  0  0.12467  0  1.029094  0  0  0.100496  0.121296  0  1.028844  0
H  H42  1  0.32497434  0.36219630  0.42420176  1  0  0.110534  0  0.968376  0  0  0.122771  0  1.028919  0  0  0.12471  0  1.029142  0  0  0.100529  0.121368  0  1.028859  0
H  H43  1  0.82497650  0.13780295  0.07579644  1  0  0.110505  0  0.968474  0  0  0.122719  0  1.029029  0  0  0.124658  0  1.029254  0  0  0.100532  0.121333  0  1.028951  0
C  C44  1  0.10376728  0.17626830  0.85769330  1  0  0.164739  0  3.617048  0  0  0.10941  0  3.870424  0  0  0.123195  0  3.883819  0  0  0.140126  0.100471  0  3.861137  0
C  C45  1  0.60377671  0.32373007  0.64230496  1  0  0.164726  0  3.617052  0  0  0.10941  0  3.870435  0  0  0.123205  0  3.883824  0  0  0.140091  0.100472  0  3.861152  0
C  C46  1  0.89621410  0.82372819  0.14230592  1  0  0.164856  0  3.617072  0  0  0.109497  0  3.870502  0  0  0.123284  0  3.88389  0  0  0.14023  0.100556  0  3.86122  0
C  C47  1  0.39622853  0.67627377  0.35769761  1  0  0.164699  0  3.617046  0  0  0.109338  0  3.87049  0  0  0.123133  0  3.883882  0  0  0.139994  0.100402  0  3.861201  0
C  C48  1  0.83925211  0.21770065  0.87219326  1  0  -0.006897  0  3.725887  0  0  -0.039025  0  3.982932  0  0  -0.03739  0  4.00366  0  0  -0.003673  -0.040117  0  3.968923  0
C  C49  1  0.33925782  0.28229965  0.62780650  1  0  -0.006898  0  3.725632  0  0  -0.039043  0  3.982705  0  0  -0.037404  0  4.00344  0  0  -0.003665  -0.040134  0  3.968697  0
C  C50  1  0.16073555  0.78229511  0.12780848  1  0  -0.006944  0  3.725734  0  0  -0.039012  0  3.982792  0  0  -0.037381  0  4.003514  0  0  -0.003681  -0.040104  0  3.968786  0
C  C51  1  0.66074491  0.71770419  0.37219608  1  0  -0.006979  0  3.726009  0  0  -0.03912  0  3.983065  0  0  -0.037479  0  4.003797  0  0  -0.003741  -0.040214  0  3.969061  0
C  C52  1  0.92987646  0.30167471  0.90436713  1  0  -0.054078  0  3.647431  0  0  -0.092161  0  3.904638  0  0  -0.090435  0  3.922622  0  0  -0.000218  -0.093276  0  3.892596  0
C  C53  1  0.42988173  0.19832137  0.59563112  1  0  -0.05407  0  3.647385  0  0  -0.092146  0  3.904588  0  0  -0.090421  0  3.922576  0  0  -0.000201  -0.093259  0  3.892546  0
C  C54  1  0.07010744  0.69831811  0.09563474  1  0  -0.05411  0  3.647691  0  0  -0.092242  0  3.904809  0  0  -0.090521  0  3.922816  0  0  -0.000188  -0.09335  0  3.892768  0
C  C55  1  0.57011975  0.80168173  0.40436799  1  0  -0.054021  0  3.647613  0  0  -0.092118  0  3.904797  0  0  -0.090388  0  3.922776  0  0  -0.000129  -0.093229  0  3.892758  0
C  C56  1  0.24084662  0.33434167  0.91133977  1  0  0.088413  0  3.750868  0  0  0.075996  0  4.031  0  0  0.082039  0  4.052304  0  0  0.083995  0.072031  0  4.016547  0
C  C57  1  0.74085018  0.16565549  0.58865816  1  0  0.088524  0  3.750691  0  0  0.076071  0  4.030859  0  0  0.082114  0  4.052164  0  0  0.084029  0.072105  0  4.01641  0
C  C58  1  0.75913853  0.66565262  0.08866103  1  0  0.08867  0  3.751025  0  0  0.076265  0  4.031093  0  0  0.082311  0  4.052397  0  0  0.084103  0.0723  0  4.016646  0
C  C59  1  0.25915004  0.83434761  0.41134362  1  0  0.088556  0  3.750756  0  0  0.076153  0  4.030847  0  0  0.082197  0  4.052151  0  0  0.084037  0.072187  0  4.016396  0
C  C60  1  0.38613935  0.32245108  0.86062630  1  0  -0.156327  0  3.786648  0  0  -0.180674  0  4.050882  0  0  -0.183904  0  4.070088  0  0  -0.108846  -0.178544  0  4.03791  0
C  C61  1  0.88613907  0.17754711  0.63937437  1  0  -0.156441  0  3.786607  0  0  -0.180726  0  4.050865  0  0  -0.183956  0  4.070074  0  0  -0.108851  -0.178594  0  4.037894  0
C  C62  1  0.61384705  0.67754174  0.13937490  1  0  -0.156604  0  3.787071  0  0  -0.180965  0  4.05128  0  0  -0.18419  0  4.070476  0  0  -0.108891  -0.178828  0  4.038287  0
C  C63  1  0.11385989  0.82245453  0.36062847  1  0  -0.156439  0  3.786617  0  0  -0.180716  0  4.050824  0  0  -0.183945  0  4.070027  0  0  -0.108789  -0.178588  0  4.037847  0
C  C64  1  0.50761841  0.39429524  0.89562881  1  0  -0.148419  0  3.795101  0  0  -0.170373  0  4.054062  0  0  -0.1718  0  4.072979  0  0  -0.116762  -0.169281  0  4.041235  0
C  C65  1  0.00762683  0.10570367  0.60437096  1  0  -0.148243  0  3.794951  0  0  -0.170227  0  4.053882  0  0  -0.171653  0  4.072816  0  0  -0.116739  -0.169136  0  4.041056  0
C  C66  1  0.49236298  0.60569831  0.10436785  1  0  -0.14838  0  3.794825  0  0  -0.170339  0  4.053814  0  0  -0.171766  0  4.072729  0  0  -0.116838  -0.16925  0  4.040989  0
C  C67  1  0.99237339  0.89429724  0.39563374  1  0  -0.148283  0  3.794791  0  0  -0.170242  0  4.053779  0  0  -0.171668  0  4.072702  0  0  -0.11676  -0.169154  0  4.040951  0
C  C68  1  0.45528435  0.45906491  0.97350658  1  0  -0.016744  0  3.812539  0  0  -0.00436  0  4.072193  0  0  -0.004317  0  4.096737  0  0  -0.018732  -0.004389  0  4.055521  0
C  C69  1  0.95529106  0.04093342  0.52649206  1  0  -0.016816  0  3.812389  0  0  -0.00447  0  4.072063  0  0  -0.004432  0  4.096616  0  0  -0.018745  -0.004498  0  4.055392  0
C  C70  1  0.54470206  0.54092937  0.02648822  1  0  -0.016604  0  3.812203  0  0  -0.004438  0  4.072075  0  0  -0.004398  0  4.096622  0  0  -0.018707  -0.004465  0  4.055402  0
C  C71  1  0.04470916  0.95906748  0.47351264  1  0  -0.016708  0  3.812163  0  0  -0.004438  0  4.071906  0  0  -0.004401  0  4.096458  0  0  -0.018739  -0.004464  0  4.055235  0
C  C72  1  0.10544343  0.80975800  0.68490886  1  0  0.173264  0  3.608674  0  0  0.114978  0  3.865813  0  0  0.129473  0  3.877919  0  0  0.1425  0.105566  0  3.857369  0
C  C73  1  0.60545529  0.69024440  0.81508970  1  0  0.173358  0  3.608666  0  0  0.115041  0  3.865781  0  0  0.129535  0  3.877884  0  0  0.142538  0.105628  0  3.857345  0
C  C74  1  0.89454800  0.19024216  0.31508837  1  0  0.173361  0  3.608471  0  0  0.115073  0  3.865599  0  0  0.129578  0  3.877691  0  0  0.14255  0.105663  0  3.857155  0
C  C75  1  0.39454870  0.30976091  0.18491248  1  0  0.173367  0  3.608502  0  0  0.115097  0  3.865621  0  0  0.129603  0  3.877711  0  0  0.142568  0.105687  0  3.857174  0
C  C76  1  0.87201280  0.80810537  0.60814313  1  0  0.005309  0  3.723473  0  0  -0.026696  0  3.980453  0  0  -0.025163  0  4.001858  0  0  -0.002728  -0.027724  0  3.96596  0
C  C77  1  0.37202095  0.69189460  0.89184743  1  0  0.005468  0  3.723784  0  0  -0.026566  0  3.980814  0  0  -0.025032  0  4.002226  0  0  -0.002667  -0.027593  0  3.966311  0
C  C78  1  0.12798867  0.19188963  0.39184647  1  0  0.005317  0  3.723783  0  0  -0.026693  0  3.980795  0  0  -0.02516  0  4.002202  0  0  -0.002683  -0.027723  0  3.966301  0
C  C79  1  0.62799182  0.30811292  0.10815650  1  0  0.005342  0  3.723858  0  0  -0.026696  0  3.980872  0  0  -0.025164  0  4.002284  0  0  -0.002668  -0.027727  0  3.96638  0
C  C80  1  0.96937756  0.73336508  0.56101237  1  0  -0.055178  0  3.643934  0  0  -0.09506  0  3.903555  0  0  -0.093705  0  3.922668  0  0  1.5e-05  -0.095941  0  3.890764  0
C  C81  1  0.46938103  0.76663437  0.93898335  1  0  -0.05532  0  3.644296  0  0  -0.095318  0  3.90391  0  0  -0.093964  0  3.923024  0  0  -0.000112  -0.096197  0  3.891116  0
C  C82  1  0.03062642  0.26662846  0.43897963  1  0  -0.055252  0  3.644103  0  0  -0.095202  0  3.903676  0  0  -0.093846  0  3.922788  0  0  -7.7e-05  -0.096081  0  3.890886  0
C  C83  1  0.53062798  0.23337535  0.06102032  1  0  -0.055232  0  3.644045  0  0  -0.09515  0  3.903587  0  0  -0.093794  0  3.922698  0  0  -1e-05  -0.09603  0  3.890799  0
C  C84  1  0.26091738  0.67766979  0.58562796  1  0  0.085861  0  3.758841  0  0  0.071149  0  4.047013  0  0  0.077731  0  4.067386  0  0  0.084227  0.066842  0  4.033157  0
C  C85  1  0.76092477  0.82233365  0.91437133  1  0  0.08577  0  3.758836  0  0  0.071109  0  4.046909  0  0  0.077688  0  4.067287  0  0  0.0842  0.066802  0  4.033056  0
C  C86  1  0.73908786  0.32233184  0.41437087  1  0  0.085822  0  3.758683  0  0  0.071159  0  4.046802  0  0  0.077738  0  4.067173  0  0  0.084212  0.066854  0  4.032946  0
C  C87  1  0.23908801  0.17767239  0.08562765  1  0  0.085807  0  3.758841  0  0  0.071201  0  4.046908  0  0  0.07778  0  4.067282  0  0  0.084248  0.066897  0  4.033048  0
C  C88  1  0.42517179  0.70667282  0.60341543  1  0  -0.161738  0  3.779577  0  0  -0.19199  0  4.054684  0  0  -0.195362  0  4.074458  0  0  -0.11016  -0.189658  0  4.041209  0
C  C89  1  0.92517905  0.79332875  0.89658805  1  0  -0.161733  0  3.779498  0  0  -0.192009  0  4.054568  0  0  -0.195405  0  4.074324  0  0  -0.1102  -0.189676  0  4.041088  0
C  C90  1  0.57483345  0.29332661  0.39658500  1  0  -0.161723  0  3.779559  0  0  -0.191947  0  4.054554  0  0  -0.195319  0  4.074323  0  0  -0.110152  -0.189615  0  4.041079  0
C  C91  1  0.07483372  0.20667582  0.10341333  1  0  -0.16177  0  3.779764  0  0  -0.192014  0  4.054739  0  0  -0.195391  0  4.074506  0  0  -0.110214  -0.189684  0  4.041268  0
C  C92  1  0.53937096  0.63032195  0.56888785  1  0  -0.128933  0  3.78333  0  0  -0.15366  0  4.044941  0  0  -0.154988  0  4.064704  0  0  -0.114809  -0.152558  0  4.031397  0
C  C93  1  0.03937636  0.86967885  0.93111447  1  0  -0.128781  0  3.783106  0  0  -0.15352  0  4.044755  0  0  -0.154852  0  4.064526  0  0  -0.114756  -0.1524  0  4.031223  0
C  C94  1  0.46063679  0.36967896  0.43111485  1  0  -0.129006  0  3.783367  0  0  -0.153779  0  4.04513  0  0  -0.155109  0  4.064894  0  0  -0.11485  -0.152687  0  4.031589  0
C  C95  1  0.96063893  0.13032278  0.06888503  1  0  -0.128973  0  3.783296  0  0  -0.153745  0  4.045172  0  0  -0.155076  0  4.064941  0  0  -0.114846  -0.152668  0  4.031625  0
C  C96  1  0.46196453  0.54483546  0.52383020  1  0  -0.035469  0  3.8539  0  0  -0.0215  0  4.114543  0  0  -0.02138  0  4.137448  0  0  -0.025921  -0.021616  0  4.099025  0
C  C97  1  0.96197133  0.95516472  0.97617100  1  0  -0.035514  0  3.854011  0  0  -0.021556  0  4.114691  0  0  -0.021437  0  4.137594  0  0  -0.025954  -0.021672  0  4.099166  0
C  C98  1  0.53804322  0.45516398  0.47617223  1  0  -0.035367  0  3.85382  0  0  -0.021443  0  4.11455  0  0  -0.021322  0  4.137451  0  0  -0.025902  -0.02156  0  4.099033  0
C  C99  1  0.03804773  0.04483838  0.02382744  1  0  -0.035392  0  3.853898  0  0  -0.021495  0  4.114662  0  0  -0.021372  0  4.137557  0  0  -0.025925  -0.021613  0  4.09915  0
S  S100  1  0.24451965  0.55694887  0.52833082  1  0  0.116377  0  2.537284  0  0  0.119302  0  2.87197  0  0  0.117172  0  2.875329  0  0  0.103883  0.12041  0  2.870008  0
S  S101  1  0.74452638  0.94305527  0.97166729  1  0  0.116486  0  2.537304  0  0  0.119398  0  2.871985  0  0  0.11727  0  2.87534  0  0  0.103925  0.120505  0  2.870025  0
S  S102  1  0.75549062  0.44305276  0.47166601  1  0  0.116456  0  2.537088  0  0  0.119378  0  2.871785  0  0  0.117247  0  2.875145  0  0  0.103932  0.120484  0  2.869823  0
S  S103  1  0.25549267  0.05695004  0.02833490  1  0  0.116507  0  2.537188  0  0  0.119412  0  2.871923  0  0  0.117283  0  2.87528  0  0  0.103968  0.120518  0  2.869957  0
S  S104  1  0.25284302  0.43055427  0.00397189  1  0  0.132023  0  2.522525  0  0  0.135757  0  2.850498  0  0  0.132999  0  2.857267  0  0  0.109379  0.137255  0  2.846187  0
S  S105  1  0.75284733  0.06944484  0.49602634  1  0  0.132034  0  2.522478  0  0  0.135778  0  2.850468  0  0  0.133018  0  2.85724  0  0  0.109386  0.137283  0  2.846157  0
S  S106  1  0.74714715  0.56944369  0.99602693  1  0  0.131961  0  2.52244  0  0  0.135733  0  2.850471  0  0  0.132975  0  2.857241  0  0  0.109374  0.137231  0  2.846163  0
S  S107  1  0.24715415  0.93055680  0.50397650  1  0  0.131944  0  2.522471  0  0  0.13568  0  2.850477  0  0  0.132916  0  2.857247  0  0  0.109341  0.137183  0  2.84617  0
N  N108  1  0.94914785  0.14053074  0.84311013  1  0  -0.339378  0  3.370175  0  0  -0.250848  0  3.660998  0  0  -0.270997  0  3.677706  0  0  -0.375655  -0.237112  0  3.649217  0
N  N109  1  0.44915397  0.35946758  0.65688851  1  0  -0.339424  0  3.370004  0  0  -0.250881  0  3.660824  0  0  -0.27105  0  3.677544  0  0  -0.375634  -0.237145  0  3.649042  0
N  N110  1  0.05084232  0.85946501  0.15688828  1  0  -0.339466  0  3.370065  0  0  -0.250967  0  3.660932  0  0  -0.271109  0  3.677629  0  0  -0.375688  -0.237234  0  3.649155  0
N  N111  1  0.55085002  0.64053553  0.34311326  1  0  -0.339409  0  3.37014  0  0  -0.250871  0  3.660968  0  0  -0.271037  0  3.677684  0  0  -0.375621  -0.237136  0  3.64919  0
N  N112  1  0.09776637  0.27445359  0.89429810  1  0  -0.069043  0  3.644585  0  0  0.021776  0  3.852505  0  0  0.006472  0  3.879353  0  0  -0.224622  0.031874  0  3.834205  0
N  N113  1  0.59776900  0.22554550  0.60570097  1  0  -0.068985  0  3.644524  0  0  0.021838  0  3.852468  0  0  0.006536  0  3.879315  0  0  -0.224617  0.031936  0  3.834169  0
N  N114  1  0.90222130  0.72554291  0.10570445  1  0  -0.069067  0  3.644927  0  0  0.021794  0  3.852834  0  0  0.006485  0  3.879688  0  0  -0.224688  0.031892  0  3.834533  0
N  N115  1  0.40223248  0.77445687  0.39430000  1  0  -0.068968  0  3.644657  0  0  0.021856  0  3.852574  0  0  0.006553  0  3.879423  0  0  -0.224552  0.031955  0  3.83427  0
N  N116  1  0.95825444  0.85504949  0.68486466  1  0  -0.339966  0  3.350544  0  0  -0.252895  0  3.645439  0  0  -0.272986  0  3.661557  0  0  -0.376261  -0.239187  0  3.634064  0
N  N117  1  0.45826628  0.64495139  0.81512933  1  0  -0.339942  0  3.350929  0  0  -0.252822  0  3.645795  0  0  -0.272911  0  3.661913  0  0  -0.376314  -0.239115  0  3.634423  0
N  N118  1  0.04174201  0.14494772  0.31512601  1  0  -0.339951  0  3.350732  0  0  -0.25283  0  3.645583  0  0  -0.272921  0  3.661697  0  0  -0.376277  -0.239123  0  3.634207  0
N  N119  1  0.54174273  0.35505392  0.18487619  1  0  -0.339986  0  3.350852  0  0  -0.252869  0  3.645708  0  0  -0.272959  0  3.661821  0  0  -0.3763  -0.239161  0  3.634332  0
N  N120  1  0.11759383  0.73546812  0.61022185  1  0  -0.070464  0  3.663353  0  0  0.018792  0  3.875127  0  0  0.003359  0  3.902081  0  0  -0.22526  0.028973  0  3.856771  0
N  N121  1  0.61760092  0.76453283  0.88977576  1  0  -0.070613  0  3.663713  0  0  0.018687  0  3.875436  0  0  0.003252  0  3.902391  0  0  -0.225164  0.028867  0  3.857081  0
N  N122  1  0.88241016  0.26452764  0.38977455  1  0  -0.070607  0  3.66355  0  0  0.018606  0  3.87537  0  0  0.003174  0  3.902323  0  0  -0.225343  0.028786  0  3.857013  0
N  N123  1  0.38240809  0.23547615  0.11022577  1  0  -0.070433  0  3.663296  0  0  0.018729  0  3.875163  0  0  0.003298  0  3.902113  0  0  -0.22533  0.028909  0  3.856806  0
Cl  Cl124  1  0.45895311  0.99833580  0.75982496  1  0  1.38469  0  6.211764  0  0  1.328586  0  6.772688  0  0  1.381063  0  6.747432  0  0  0.713909  1.292467  0  6.788756  0
Cl  Cl125  1  0.95896023  0.50166143  0.74017769  1  0  1.384824  0  6.211677  0  0  1.32873  0  6.772567  0  0  1.381192  0  6.747326  0  0  0.71395  1.292608  0  6.788637  0
Cl  Cl126  1  0.54104208  0.00166069  0.24017559  1  0  1.384871  0  6.211625  0  0  1.328782  0  6.772508  0  0  1.381253  0  6.74725  0  0  0.713947  1.292656  0  6.78858  0
Cl  Cl127  1  0.04103999  0.49833800  0.25982273  1  0  1.384799  0  6.211591  0  0  1.328727  0  6.772454  0  0  1.381199  0  6.747189  0  0  0.713922  1.292604  0  6.788527  0
O  O128  1  0.30128961  0.01898667  0.71690274  1  0  -0.580611  0  1.923769  0  0  -0.557895  0  2.195056  0  0  -0.574246  0  2.18138  0  0  -0.324064  -0.546312  0  2.203949  0
O  O129  1  0.80129963  0.48101136  0.78310198  1  0  -0.580591  0  1.92377  0  0  -0.557863  0  2.195069  0  0  -0.574229  0  2.181452  0  0  -0.324025  -0.546274  0  2.203958  0
O  O130  1  0.69870307  0.98101056  0.28309862  1  0  -0.58061  0  1.923827  0  0  -0.557873  0  2.195103  0  0  -0.574251  0  2.18149  0  0  -0.324013  -0.546286  0  2.203996  0
O  O131  1  0.19870059  0.51898807  0.21689912  1  0  -0.580571  0  1.923804  0  0  -0.557863  0  2.195114  0  0  -0.574249  0  2.181532  0  0  -0.324  -0.546275  0  2.204004  0
O  O132  1  0.50460375  0.08392641  0.82993675  1  0  -0.566494  0  1.868532  0  0  -0.544201  0  2.124382  0  0  -0.559865  0  2.110965  0  0  -0.325724  -0.53315  0  2.133241  0
O  O133  1  0.00460892  0.41607103  0.67006476  1  0  -0.566558  0  1.868476  0  0  -0.544238  0  2.124276  0  0  -0.559893  0  2.110861  0  0  -0.325731  -0.533184  0  2.133138  0
O  O134  1  0.49538894  0.91607008  0.17006380  1  0  -0.566637  0  1.86847  0  0  -0.544325  0  2.124299  0  0  -0.559987  0  2.110885  0  0  -0.325765  -0.533271  0  2.133161  0
O  O135  1  0.99539004  0.58392913  0.32993514  1  0  -0.566564  0  1.868434  0  0  -0.544253  0  2.124263  0  0  -0.559915  0  2.110849  0  0  -0.325724  -0.533201  0  2.133125  0
O  O136  1  0.59105683  0.97869897  0.69049719  1  0  -0.558819  0  1.873388  0  0  -0.532843  0  2.136297  0  0  -0.548087  0  2.12062  0  0  -0.325465  -0.522093  0  2.146674  0
O  O137  1  0.09106539  0.52130120  0.80950363  1  0  -0.558926  0  1.873319  0  0  -0.532928  0  2.136205  0  0  -0.548169  0  2.120536  0  0  -0.325538  -0.522175  0  2.146584  0
O  O138  1  0.40893837  0.02129973  0.30950376  1  0  -0.558874  0  1.873333  0  0  -0.532885  0  2.136221  0  0  -0.548123  0  2.120547  0  0  -0.325498  -0.522133  0  2.146601  0
O  O139  1  0.90893483  0.47869823  0.19049613  1  0  -0.558933  0  1.873381  0  0  -0.532946  0  2.13628  0  0  -0.548185  0  2.120605  0  0  -0.325531  -0.522195  0  2.146661  0
O  O140  1  0.43660566  0.91272840  0.80142817  1  0  -0.547738  0  1.866591  0  0  -0.524789  0  2.114582  0  0  -0.540946  0  2.103287  0  0  -0.320732  -0.513405  0  2.12186  0
O  O141  1  0.93661092  0.58726658  0.69857008  1  0  -0.547727  0  1.866477  0  0  -0.524832  0  2.11451  0  0  -0.540984  0  2.103225  0  0  -0.320739  -0.513462  0  2.121822  0
O  O142  1  0.56339079  0.08726736  0.19857024  1  0  -0.547727  0  1.866463  0  0  -0.524823  0  2.114484  0  0  -0.540969  0  2.103184  0  0  -0.320743  -0.513457  0  2.121811  0
O  O143  1  0.06338804  0.41273212  0.30142887  1  0  -0.547679  0  1.866381  0  0  -0.524803  0  2.11441  0  0  -0.540947  0  2.103109  0  0  -0.320742  -0.513428  0  2.121712  0
