# generated using pymatgen
data_CuH12C11SN4O3
_symmetry_space_group_name_H-M   'P 1'
_cell_length_a   10.35854317
_cell_length_b   11.12216876
_cell_length_c   11.62913152
_cell_angle_alpha   89.99703463
_cell_angle_beta   104.22996204
_cell_angle_gamma   89.99957923
_symmetry_Int_Tables_number   1
_chemical_formula_structural   CuH12C11SN4O3
_chemical_formula_sum   'Cu4 H48 C44 S4 N16 O12'
_cell_volume   1298.67728308
_cell_formula_units_Z   4
loop_
 _symmetry_equiv_pos_site_id
 _symmetry_equiv_pos_as_xyz
  1  'x, y, z'
loop_
 _atom_site_type_symbol
 _atom_site_label
 _atom_site_symmetry_multiplicity
 _atom_site_fract_x
 _atom_site_fract_y
 _atom_site_fract_z
 _atom_site_occupancy
 _atom_site_hle17_ddec_charge
 _atom_site_hle17_ddec_spin_density
 _atom_site_hle17_ddec_sum_bond_order
 _atom_site_hle17_magmom
 _atom_site_hse06_10hf_ddec_charge
 _atom_site_hse06_10hf_ddec_spin_density
 _atom_site_hse06_10hf_ddec_sum_bond_order
 _atom_site_hse06_10hf_magmom
 _atom_site_hse06_ddec_charge
 _atom_site_hse06_ddec_spin_density
 _atom_site_hse06_ddec_sum_bond_order
 _atom_site_hse06_magmom
 _atom_site_pbe_cm5_charge
 _atom_site_pbe_ddec_charge
 _atom_site_pbe_ddec_spin_density
 _atom_site_pbe_ddec_sum_bond_order
 _atom_site_pbe_magmom
Cu  Cu0  1  0.36564468  0.75734630  0.17088934  1  0.763894  -0.692554  2.007137  -0.483  0.734031  -0.770328  2.416859  -0.587  0.815432  -0.843625  2.351601  -0.671  0.741268  0.687231  -0.720319  2.461924  -0.535
Cu  Cu1  1  0.63437658  0.25739807  0.32907938  1  0.76409  -0.693056  2.007354  -0.483  0.733954  -0.770689  2.417295  -0.587  0.815569  -0.843973  2.351747  -0.672  0.741173  0.687207  -0.720441  2.462389  -0.535
Cu  Cu2  1  0.63443060  0.24264307  0.82907255  1  0.76381  0.764119  2.007443  0.483  0.734145  0.832859  2.416677  0.587  0.815259  0.927002  2.351904  0.672  0.741217  0.687365  0.767253  2.461739  0.535
Cu  Cu3  1  0.36561821  0.74261737  0.67093383  1  0.764025  -0.692419  2.007164  -0.483  0.734206  -0.770111  2.416651  -0.587  0.815479  -0.843505  2.351638  -0.671  0.741201  0.6874  -0.719755  2.461696  -0.535
H  H4  1  0.26959936  0.37475531  0.25837821  1  0.113346  0.000256  0.961747  0.001  0.120279  -2e-05  1.027134  0.0  0.124505  -1.1e-05  1.025534  0.0  0.096666  0.117304  -4.5e-05  1.028365  0.0
H  H5  1  0.73036929  0.87479489  0.24159413  1  0.113369  0.00039  0.961346  0.001  0.120316  0.000119  1.026778  0.0  0.124544  0.000111  1.025168  0.0  0.096634  0.11734  9.9e-05  1.027997  0.0
H  H6  1  0.73042246  0.62527721  0.74162912  1  0.113242  -0.000239  0.96162  -0.001  0.120163  -2.5e-05  1.027109  0.0  0.124391  -2.5e-05  1.025505  0.0  0.096592  0.117188  -1.7e-05  1.028311  0.0
H  H7  1  0.26951575  0.12522055  0.75841129  1  0.113205  0.000393  0.961618  0.001  0.120317  7e-05  1.026912  0.0  0.12455  8.5e-05  1.025292  0.0  0.096611  0.117337  4.1e-05  1.028134  0.0
H  H8  1  0.14194140  0.22238007  0.11864098  1  0.10938  -0.000786  0.957465  -0.001  0.115734  -0.000493  1.02338  0.0  0.118822  -0.00033  1.02063  0.0  0.110262  0.113555  -0.000636  1.025419  0.0
H  H9  1  0.85797850  0.72239054  0.38135199  1  0.109421  -0.000779  0.957633  -0.001  0.115813  -0.000485  1.023476  0.0  0.1189  -0.000321  1.02073  0.0  0.110272  0.113642  -0.000628  1.025499  0.0
H  H10  1  0.85806512  0.77762817  0.88139296  1  0.109659  0.000868  0.957255  0.001  0.115981  0.000532  1.023192  0.0  0.11907  0.000359  1.020439  0.0  0.110337  0.1138  0.000682  1.025242  0.0
H  H11  1  0.14190071  0.27760063  0.61863920  1  0.109575  -0.000761  0.957502  -0.001  0.115967  -0.000467  1.023326  0.0  0.119054  -0.000306  1.020577  0.0  0.110428  0.113793  -0.000607  1.025371  0.0
H  H12  1  0.07170781  0.48138273  0.83611222  1  0.117584  -0.000486  0.94  0.0  0.125098  -0.000255  1.00418  0.0  0.128599  -0.000169  1.00065  0.0  0.116076  0.122774  -0.000343  1.006224  0.0
H  H13  1  0.92821794  0.98137271  0.66388167  1  0.117649  -0.000497  0.940152  0.0  0.125028  -0.000247  1.004495  0.0  0.128526  -0.000164  1.000948  0.0  0.116024  0.122696  -0.000333  1.006534  0.0
H  H14  1  0.92828707  0.51859225  0.16389242  1  0.117396  0.00053  0.94007  0.0  0.125014  0.000256  1.004195  0.0  0.128512  0.000168  1.000655  0.0  0.116071  0.122684  0.000333  1.00623  0.0
H  H15  1  0.07174898  0.01861216  0.33612348  1  0.117553  -0.000491  0.940162  0.0  0.125018  -0.000251  1.004435  0.0  0.128514  -0.000172  1.000898  0.0  0.116076  0.122688  -0.000319  1.006466  0.0
H  H16  1  0.12658177  0.67926307  0.86663511  1  0.086223  -0.008952  0.953885  -0.012  0.092704  -0.0054  1.02477  -0.007  0.09368  -0.003853  1.020556  -0.005  0.119888  0.091632  -0.006547  1.02849  -0.008
H  H17  1  0.87328260  0.17925050  0.63338234  1  0.086624  -0.00895  0.953577  -0.012  0.09296  -0.005405  1.024613  -0.007  0.093937  -0.00387  1.020399  -0.005  0.12001  0.091885  -0.006537  1.02835  -0.008
H  H18  1  0.87326780  0.32075237  0.13341384  1  0.086535  0.00986  0.953441  0.012  0.092898  0.00585  1.024474  0.007  0.093874  0.004261  1.020266  0.005  0.120034  0.091831  0.006976  1.028205  0.008
H  H19  1  0.12664190  0.82073706  0.36666389  1  0.08633  -0.008902  0.95376  -0.012  0.092862  -0.005371  1.024554  -0.007  0.093837  -0.003829  1.02034  -0.005  0.119991  0.091793  -0.006513  1.028277  -0.008
H  H20  1  0.12657907  0.91705980  0.98391674  1  0.087262  -0.000593  0.92987  -0.001  0.104459  -0.000225  0.987663  0.0  0.103933  -0.000262  0.988024  0.0  0.110004  0.104854  -0.000184  0.98747  0.0
H  H21  1  0.87337770  0.41710111  0.51610980  1  0.087241  -0.000549  0.929741  -0.001  0.104485  -0.000205  0.9875  0.0  0.103953  -0.000243  0.987875  0.0  0.1101  0.104893  -0.000163  0.9873  0.0
H  H22  1  0.87342269  0.08289001  0.01609721  1  0.087218  0.000625  0.930006  0.001  0.104532  0.000239  0.987668  0.0  0.104012  0.00028  0.988025  0.0  0.11001  0.104923  0.0002  0.987457  0.0
H  H23  1  0.12664307  0.58289634  0.48390159  1  0.08723  -0.000549  0.929757  -0.001  0.104523  -0.000197  0.987427  0.0  0.103986  -0.00024  0.987806  0.0  0.110097  0.104914  -0.000152  0.987221  0.0
H  H24  1  0.19596338  0.87307037  0.86480885  1  0.096127  -0.002229  0.930032  -0.003  0.111606  -0.001487  0.989964  -0.002  0.111503  -0.001073  0.990336  -0.001  0.112719  0.111529  -0.001802  0.989725  -0.002
H  H25  1  0.80395881  0.37306994  0.63518536  1  0.096039  -0.002328  0.92991  -0.003  0.111544  -0.001558  0.989886  -0.002  0.111439  -0.001173  0.990262  -0.001  0.112721  0.111473  -0.001829  0.989656  -0.002
H  H26  1  0.80403364  0.12693788  0.13518337  1  0.096182  0.002558  0.929925  0.003  0.111656  0.001679  0.989866  0.002  0.111559  0.001284  0.990243  0.001  0.112727  0.111563  0.001952  0.989638  0.002
H  H27  1  0.19604298  0.62694460  0.36482687  1  0.096269  -0.002228  0.929878  -0.003  0.11174  -0.001483  0.989836  -0.002  0.111639  -0.00107  0.990206  -0.001  0.112796  0.111651  -0.001794  0.989599  -0.002
H  H28  1  0.41940971  0.92618570  0.97469994  1  0.072408  -3.8e-05  0.957318  0.0  0.085781  6.9e-05  1.024953  0.0  0.085564  7.7e-05  1.025603  0.0  0.104563  0.085655  5.4e-05  1.024835  0.0
H  H29  1  0.58053950  0.42618210  0.52527283  1  0.072175  -0.000103  0.957533  0.0  0.085634  -0.0  1.025131  0.0  0.085358  -1e-05  1.025836  0.0  0.104492  0.085552  7e-06  1.024972  0.0
H  H30  1  0.58059494  0.07381805  0.02532327  1  0.072236  6.6e-05  0.957357  0.0  0.08565  -0.000142  1.024956  0.0  0.085407  -9.9e-05  1.025649  0.0  0.104477  0.085543  -0.000181  1.024797  0.0
H  H31  1  0.41947543  0.57381356  0.47472605  1  0.072237  -0.000123  0.957572  0.0  0.085704  -0.000106  1.025166  0.0  0.085424  -5.3e-05  1.025861  0.0  0.104495  0.085644  -0.000159  1.024981  0.0
H  H32  1  0.31598465  0.05178258  0.98704540  1  0.072634  -0.005226  0.936916  -0.007  0.083974  -0.003351  1.006667  -0.004  0.083114  -0.002286  1.007187  -0.003  0.099077  0.08439  -0.004112  1.006385  -0.005
H  H33  1  0.68394385  0.55180230  0.51294146  1  0.072466  -0.005248  0.93703  -0.007  0.083938  -0.003342  1.00667  -0.004  0.083  -0.002288  1.007256  -0.003  0.099037  0.084358  -0.004087  1.006387  -0.005
H  H34  1  0.68399540  0.94821938  0.01294726  1  0.072581  0.005766  0.937216  0.007  0.083862  0.003636  1.007047  0.004  0.08301  0.002525  1.007558  0.003  0.099025  0.084272  0.004391  1.006761  0.005
H  H35  1  0.31606608  0.44820415  0.48705715  1  0.072461  -0.00528  0.937149  -0.007  0.083913  -0.003395  1.00684  -0.004  0.08297  -0.002328  1.007414  -0.003  0.099076  0.084337  -0.004151  1.006584  -0.005
H  H36  1  0.30326120  0.10493367  0.19162294  1  0.097395  -0.005766  0.943457  -0.007  0.119528  -0.003554  1.000719  -0.004  0.117817  -0.002392  1.003135  -0.003  0.096225  0.120499  -0.004401  0.999213  -0.005
H  H37  1  0.69670048  0.60496818  0.30835363  1  0.097359  -0.005804  0.943494  -0.007  0.119414  -0.003579  1.000836  -0.004  0.117711  -0.002408  1.003245  -0.003  0.096137  0.120389  -0.004435  0.999331  -0.005
H  H38  1  0.69673000  0.89509166  0.80835506  1  0.097381  0.006312  0.943652  0.007  0.119522  0.003789  1.000875  0.004  0.117807  0.002579  1.003288  0.003  0.09629  0.120508  0.004635  0.999353  0.005
H  H39  1  0.30330357  0.39502928  0.69163590  1  0.097364  -0.005785  0.943488  -0.007  0.119466  -0.003526  1.00075  -0.004  0.117757  -0.002366  1.003168  -0.003  0.096133  0.120434  -0.004373  0.999255  -0.005
H  H40  1  0.33240190  0.98953780  0.30122448  1  0.102328  -0.000666  0.961289  -0.001  0.118157  -0.000426  1.02882  -0.001  0.117342  -0.000292  1.03112  0.0  0.097335  0.118511  -0.000527  1.027303  -0.001
H  H41  1  0.66762669  0.48954677  0.19878069  1  0.102245  -0.000628  0.961321  -0.001  0.118044  -0.000386  1.02888  -0.001  0.117218  -0.000247  1.031201  0.0  0.097361  0.1184  -0.000489  1.027359  -0.001
H  H42  1  0.66755608  0.01051271  0.69877691  1  0.102416  0.000743  0.96136  0.001  0.118216  0.000464  1.028919  0.001  0.117401  0.000324  1.031206  0.0  0.097363  0.118576  0.000564  1.027401  0.001
H  H43  1  0.33238229  0.51045339  0.80121426  1  0.102402  -0.000577  0.961315  -0.001  0.118158  -0.000364  1.028883  -0.001  0.117333  -0.000222  1.031198  0.0  0.097395  0.118523  -0.000475  1.027356  -0.001
H  H44  1  0.19212795  0.97914263  0.17603352  1  0.09908  -0.000549  0.941336  -0.001  0.115786  -0.000423  1.010744  -0.001  0.116219  -0.000241  1.009599  0.0  0.102072  0.115265  -0.000576  1.011921  -0.001
H  H45  1  0.80786845  0.47918160  0.32401127  1  0.099123  -0.00048  0.941289  -0.001  0.115737  -0.000328  1.010753  -0.001  0.116159  -0.000172  1.009635  0.0  0.102018  0.115222  -0.00046  1.011947  -0.001
H  H46  1  0.80783415  0.02089709  0.82395677  1  0.098951  0.000563  0.941574  0.001  0.115598  0.000386  1.011072  0.001  0.116004  0.000222  1.009948  0.0  0.102009  0.115088  0.000518  1.012258  0.001
H  H47  1  0.19214456  0.52081766  0.67598030  1  0.099193  -0.000543  0.941235  -0.001  0.115764  -0.000418  1.010764  -0.001  0.11619  -0.000239  1.009633  0.0  0.102048  0.115256  -0.000571  1.011938  -0.001
H  H48  1  0.47638146  0.96593102  0.17332180  1  0.267197  0.001196  0.879136  0.002  0.262921  -0.000491  0.929401  0.001  0.268083  -7.1e-05  0.928864  0.001  0.305772  0.25921  -0.000873  0.930256  0.0
H  H49  1  0.52358025  0.46596222  0.32664094  1  0.266931  0.001171  0.879459  0.002  0.262911  -0.000508  0.929427  0.001  0.268079  -8.8e-05  0.928882  0.001  0.305741  0.259205  -0.00089  0.930288  0.0
H  H50  1  0.52358351  0.03412039  0.82667946  1  0.267053  -0.001166  0.879383  -0.003  0.262916  0.000259  0.929491  -0.001  0.268101  2.4e-05  0.928906  -0.001  0.305712  0.25918  0.000443  0.930387  0.0
H  H51  1  0.47644055  0.53406851  0.67336702  1  0.266756  0.001541  0.879565  0.003  0.262648  -5.3e-05  0.929647  0.001  0.267829  0.000172  0.929076  0.001  0.305592  0.258896  -0.000245  0.930574  0.0
C  C52  1  0.18859712  0.54597358  0.00480187  1  -0.104057  -0.010595  3.781646  -0.013  -0.087868  -0.004679  4.026878  -0.007  -0.106804  -0.003304  4.056738  -0.005  -0.028724  -0.075746  -0.005914  4.006758  -0.008
C  C53  1  0.81137389  0.04600972  0.49517376  1  -0.103805  -0.010058  3.781576  -0.013  -0.087578  -0.004435  4.026821  -0.006  -0.106523  -0.003098  4.05669  -0.005  -0.028543  -0.075462  -0.005603  4.006702  -0.008
C  C54  1  0.81140909  0.45400950  0.99517438  1  -0.10377  0.011325  3.780865  0.013  -0.08769  0.00496  4.026264  0.006  -0.106622  0.003592  4.056131  0.005  -0.028601  -0.075559  0.006146  4.006119  0.008
C  C55  1  0.18859889  0.95399493  0.50484218  1  -0.103593  -0.010164  3.781035  -0.013  -0.087411  -0.004443  4.026462  -0.006  -0.106355  -0.003084  4.056326  -0.005  -0.028502  -0.07528  -0.005687  4.006326  -0.008
C  C56  1  0.25195580  0.51469382  0.12637185  1  0.378986  0.005312  3.789481  0.008  0.364171  -0.000405  4.054645  0.002  0.389824  0.000464  4.066642  0.002  0.112612  0.347434  -0.001377  4.045488  0.002
C  C57  1  0.74807987  0.01475581  0.37359944  1  0.3787  0.005128  3.789514  0.008  0.363749  -0.000453  4.054892  0.002  0.389405  0.000421  4.066907  0.002  0.112148  0.347012  -0.001422  4.045734  0.002
C  C58  1  0.74810040  0.48529734  0.87359859  1  0.37878  -0.004002  3.788682  -0.008  0.364068  0.000898  4.053812  -0.002  0.389705  2.5e-05  4.065842  -0.002  0.112428  0.34731  0.001755  4.044631  -0.002
C  C59  1  0.25194097  0.98528391  0.62640595  1  0.378573  0.0051  3.789121  0.008  0.363449  -0.000497  4.054858  0.002  0.38911  0.000372  4.066867  0.002  0.112069  0.346693  -0.001406  4.045684  0.002
C  C60  1  0.22822512  0.39657024  0.16522168  1  -0.173024  -0.013406  3.676672  -0.015  -0.192575  -0.006919  3.933626  -0.008  -0.205561  -0.005019  3.953599  -0.006  -0.101465  -0.184116  -0.008476  3.919819  -0.01
C  C61  1  0.77175682  0.89661173  0.33476721  1  -0.172549  -0.013319  3.675966  -0.014  -0.192021  -0.0069  3.932855  -0.008  -0.205013  -0.004982  3.952859  -0.006  -0.101113  -0.183569  -0.008505  3.919042  -0.01
C  C62  1  0.77180266  0.60344790  0.83478787  1  -0.172716  0.014599  3.676454  0.014  -0.192293  0.007466  3.933334  0.008  -0.205283  0.00553  3.953348  0.006  -0.101337  -0.183805  0.008991  3.919471  0.01
C  C63  1  0.22817507  0.10339831  0.66524458  1  -0.172727  -0.013445  3.676518  -0.014  -0.192331  -0.006971  3.933455  -0.008  -0.205338  -0.005043  3.953476  -0.006  -0.101197  -0.183843  -0.008584  3.919615  -0.01
C  C64  1  0.15899295  0.31201261  0.08827651  1  -0.056388  0.006098  3.751848  0.005  -0.088361  0.00113  4.022137  0.001  -0.082139  0.001389  4.040452  0.001  -0.077476  -0.092182  0.000892  4.010294  0.0
C  C65  1  0.84095502  0.81203149  0.41170546  1  -0.056937  0.006053  3.752081  0.005  -0.0889  0.001153  4.022454  0.001  -0.082693  0.001427  4.040785  0.001  -0.07771  -0.09272  0.000901  4.010607  0.0
C  C66  1  0.84102973  0.68798305  0.91174220  1  -0.056748  -0.005376  3.752082  -0.005  -0.088718  -0.000954  4.022428  -0.001  -0.082501  -0.001197  4.040751  -0.001  -0.077464  -0.092533  -0.000746  4.010561  0.0
C  C67  1  0.15897009  0.18796597  0.58828845  1  -0.056709  0.006119  3.752076  0.005  -0.0887  0.001174  4.022551  0.001  -0.082484  0.001431  4.040882  0.001  -0.077611  -0.092521  0.000928  4.010703  0.0
C  C68  1  0.10740599  0.34189550  0.96789996  1  0.027737  -0.001648  3.788748  -0.002  0.00968  0.000122  4.04988  0.0  -0.001037  3.4e-05  4.07527  0.0  0.057437  0.016127  0.000158  4.034134  0.0
C  C69  1  0.89255506  0.84192154  0.53207629  1  0.02824  -0.001301  3.788117  -0.002  0.00992  0.000283  4.049474  0.0  -0.000797  0.00018  4.074866  0.0  0.057426  0.016369  0.00035  4.03372  0.0
C  C70  1  0.89262571  0.65807768  0.03211650  1  0.027848  0.001565  3.789018  0.002  0.009751  -0.000199  4.050189  0.0  -0.000971  -4.2e-05  4.075586  0.0  0.057552  0.016201  -0.000321  4.034428  0.0
C  C71  1  0.10741011  0.15808491  0.46790782  1  0.028193  -0.001212  3.788434  -0.002  0.009906  0.000359  4.049802  0.0  -0.000816  0.000221  4.075197  0.0  0.057591  0.016353  0.000459  4.034056  0.0
C  C72  1  0.11861632  0.45842145  0.92797924  1  -0.085314  0.008297  3.724529  0.007  -0.121492  0.002105  3.985006  0.002  -0.113434  0.002218  4.004072  0.002  -0.067061  -0.125726  0.002005  3.970711  0.002
C  C73  1  0.88133689  0.95843107  0.57201604  1  -0.085465  0.008173  3.724219  0.007  -0.121439  0.002228  3.984751  0.002  -0.113366  0.002268  4.003801  0.002  -0.066943  -0.125649  0.002082  3.97043  0.002
C  C74  1  0.88140157  0.54155263  0.07202290  1  -0.085146  -0.007382  3.723829  -0.007  -0.121367  -0.00194  3.984356  -0.002  -0.113315  -0.001987  4.003451  -0.002  -0.06713  -0.125569  -0.001968  3.970015  -0.002
C  C75  1  0.11863198  0.04156729  0.42799300  1  -0.085577  0.008055  3.724104  0.007  -0.121651  0.002056  3.984709  0.002  -0.113587  0.002114  4.00378  0.002  -0.067177  -0.125868  0.001977  3.970395  0.002
C  C76  1  0.18510015  0.66633936  0.95844447  1  0.163846  0.022413  3.672548  0.022  0.119197  0.005375  3.938828  0.007  0.13863  0.006991  3.954093  0.008  0.077758  0.105918  0.003775  3.930595  0.005
C  C77  1  0.81484578  0.16635012  0.54153974  1  0.163356  0.02229  3.67362  0.021  0.118793  0.005413  3.939907  0.007  0.13819  0.006982  3.955194  0.008  0.077616  0.10554  0.003865  3.931681  0.005
C  C78  1  0.81486295  0.33365720  0.04154605  1  0.16349  -0.020014  3.672924  -0.022  0.118852  -0.00468  3.93943  -0.007  0.138266  -0.00611  3.954687  -0.008  0.077668  0.105593  -0.003254  3.931198  -0.005
C  C79  1  0.18512194  0.83365094  0.45848194  1  0.16347  0.022252  3.673885  0.021  0.118817  0.005379  3.940151  0.007  0.138241  0.006946  3.955417  0.008  0.077569  0.105553  0.00381  3.931919  0.005
C  C80  1  0.21565600  0.87917354  0.96182225  1  -0.010592  -0.004465  3.635277  -0.003  -0.064068  -0.003894  3.894533  -0.003  -0.060076  -0.002348  3.909926  -0.002  -0.069933  -0.066011  -0.005107  3.883649  -0.004
C  C81  1  0.78430986  0.37918022  0.53818332  1  -0.010233  -0.004385  3.634471  -0.003  -0.063846  -0.003787  3.893945  -0.003  -0.059834  -0.002306  3.909242  -0.002  -0.069994  -0.065789  -0.00493  3.883103  -0.004
C  C82  1  0.78435494  0.12081493  0.03817658  1  -0.010642  0.005078  3.634975  0.003  -0.064233  0.004211  3.89442  0.003  -0.060237  0.002676  3.909764  0.002  -0.069937  -0.066117  0.005343  3.883475  0.004
C  C83  1  0.21570396  0.62082353  0.46182477  1  -0.010781  -0.004449  3.634834  -0.003  -0.06433  -0.003866  3.894206  -0.003  -0.060344  -0.002331  3.909528  -0.002  -0.070119  -0.066196  -0.005062  3.883287  -0.004
C  C84  1  0.33717964  0.95672274  0.01126882  1  -0.004192  0.003225  3.62996  0.006  -0.060938  -0.000787  3.8969  0.002  -0.055208  3.1e-05  3.910374  0.002  -0.07632  -0.064367  -0.001563  3.888001  0.001
C  C85  1  0.66276995  0.45673703  0.48872344  1  -0.003847  0.003263  3.629354  0.006  -0.060768  -0.000705  3.896396  0.002  -0.054936  6.1e-05  3.909892  0.002  -0.076164  -0.064238  -0.001415  3.887526  0.001
C  C86  1  0.66280421  0.04326932  0.98874019  1  -0.003886  -0.002575  3.629428  -0.006  -0.06068  0.000991  3.896471  -0.002  -0.054933  0.000258  3.909936  -0.002  -0.076246  -0.064126  0.001634  3.887539  -0.001
C  C87  1  0.33724799  0.54326582  0.51127354  1  -0.003766  0.003169  3.629569  0.006  -0.060847  -0.000888  3.896747  0.002  -0.054958  -3.6e-05  3.910148  0.002  -0.07626  -0.064383  -0.001685  3.887902  0.001
C  C88  1  0.29639039  0.00771216  0.20627524  1  -0.147464  0.003292  3.629171  0.006  -0.241571  -0.000474  3.889849  0.002  -0.236005  0.000431  3.903027  0.003  -0.153669  -0.244772  -0.001317  3.881285  0.002
C  C89  1  0.70360112  0.50774020  0.29372848  1  -0.147213  0.003333  3.629073  0.006  -0.241233  -0.00038  3.889892  0.002  -0.235626  0.000511  3.903017  0.003  -0.153496  -0.24446  -0.001212  3.881356  0.002
C  C90  1  0.70357369  0.99232126  0.79371636  1  -0.147407  -0.002496  3.629459  -0.006  -0.241509  0.000771  3.890248  -0.002  -0.235896  -7.5e-05  3.903403  -0.003  -0.153695  -0.244771  0.001523  3.881712  -0.002
C  C91  1  0.29641085  0.49225546  0.70626715  1  -0.14748  0.003303  3.628833  0.006  -0.241495  -0.000416  3.889602  0.002  -0.235881  0.000498  3.902718  0.003  -0.153665  -0.244736  -0.001271  3.881029  0.002
C  C92  1  0.51394626  0.72069765  0.93593488  1  0.31141  0.008139  4.031307  0.004  0.308773  0.001402  4.320325  -0.002  0.336397  0.002717  4.328683  -0.001  0.149797  0.291048  0.000412  4.313248  -0.003
C  C93  1  0.48608196  0.22067746  0.56408081  1  0.310837  -0.006513  4.031711  -0.003  0.308178  -0.000392  4.32074  0.003  0.335801  -0.001774  4.329111  0.001  0.149628  0.290463  0.000585  4.313677  0.004
C  C94  1  0.48604656  0.27931689  0.06407530  1  0.310892  0.007994  4.031943  0.004  0.308274  0.000718  4.32107  -0.003  0.335908  0.002219  4.32946  -0.001  0.149457  0.290551  -0.000348  4.313985  -0.004
C  C95  1  0.51395207  0.77928224  0.43590694  1  0.310834  0.008614  4.031425  0.004  0.308227  0.001418  4.320566  -0.002  0.33586  0.002737  4.328944  -0.001  0.149611  0.290487  0.000428  4.313495  -0.003
S  S96  1  0.57934286  0.71365862  0.07727888  1  -0.369942  0.005808  2.175651  0.002  -0.354343  0.003602  2.498921  0.001  -0.369969  0.003947  2.488548  0.001  -0.145612  -0.342572  0.003229  2.505777  0.001
S  S97  1  0.42074288  0.21356326  0.42272478  1  -0.369844  -0.002312  2.175411  -0.002  -0.354237  -0.000699  2.498812  -0.001  -0.369864  -0.00081  2.488336  -0.001  -0.14566  -0.342478  -0.000768  2.505691  -0.001
S  S98  1  0.42080891  0.28648270  0.92271676  1  -0.369482  -0.000196  2.175759  -0.001  -0.354135  0.000136  2.499157  0.0  -0.369696  0.000874  2.488749  0.001  -0.145548  -0.342378  -0.000678  2.506065  0.0
S  S99  1  0.57922931  0.78651243  0.57725663  1  -0.369487  0.003294  2.175571  0.0  -0.354189  0.003186  2.499037  0.0  -0.369779  0.003849  2.488613  0.001  -0.145626  -0.342389  0.002307  2.505935  0.0
N  N100  1  0.23920011  0.75974610  0.01708566  1  -0.307218  -0.110532  3.28964  -0.135  -0.260645  -0.067466  3.607293  -0.088  -0.296353  -0.056592  3.62911  -0.078  -0.376827  -0.240174  -0.072899  3.595951  -0.091
N  N101  1  0.76080981  0.25978151  0.48290788  1  -0.307354  -0.110251  3.29016  -0.135  -0.260697  -0.067342  3.607765  -0.088  -0.296421  -0.056459  3.629579  -0.077  -0.376857  -0.240256  -0.072734  3.596488  -0.091
N  N102  1  0.76086199  0.24022978  0.98289215  1  -0.307163  0.121679  3.289934  0.135  -0.260631  0.072971  3.607674  0.088  -0.296306  0.062387  3.629557  0.078  -0.376837  -0.240174  0.077635  3.596318  0.091
N  N103  1  0.23919496  0.74022764  0.51710503  1  -0.307086  -0.109945  3.290429  -0.135  -0.260515  -0.067112  3.60808  -0.087  -0.296195  -0.056271  3.629894  -0.077  -0.376754  -0.240078  -0.072532  3.596735  -0.091
N  N104  1  0.37878357  0.94113853  0.14139101  1  -0.31872  -0.128979  3.277472  -0.158  -0.27435  -0.087788  3.559759  -0.114  -0.309225  -0.070194  3.582282  -0.098  -0.485464  -0.253735  -0.097249  3.546469  -0.121
N  N105  1  0.62118543  0.44116635  0.35859356  1  -0.318785  -0.129037  3.277763  -0.158  -0.274541  -0.087867  3.559874  -0.115  -0.309447  -0.070283  3.582372  -0.098  -0.485645  -0.253978  -0.097285  3.546676  -0.121
N  N106  1  0.62118236  0.05887062  0.85861306  1  -0.31872  0.141796  3.277329  0.158  -0.274371  0.0948  3.559407  0.114  -0.309207  0.077352  3.581904  0.098  -0.485478  -0.253751  0.103302  3.546131  0.121
N  N107  1  0.37883748  0.55884099  0.64140542  1  -0.3185  -0.128873  3.277373  -0.158  -0.274111  -0.087631  3.559316  -0.114  -0.308987  -0.070144  3.581783  -0.098  -0.485355  -0.253457  -0.096955  3.54604  -0.121
N  N108  1  0.04363101  0.25190110  0.88578406  1  0.469559  0.001965  3.964907  0.002  0.521673  0.000545  4.230257  0.001  0.544071  0.000429  4.239797  0.0  0.035688  0.506172  0.000515  4.224776  0.0
N  N109  1  0.95638002  0.75191328  0.61419003  1  0.469207  0.001984  3.964853  0.002  0.521543  0.000496  4.229981  0.0  0.543938  0.000403  4.239527  0.0  0.035815  0.506034  0.00059  4.224505  0.001
N  N110  1  0.95642266  0.74806399  0.11423138  1  0.469781  -0.001745  3.964418  -0.002  0.521898  -0.00057  4.229818  -0.001  0.544292  -0.000386  4.239367  0.0  0.035897  0.506389  -0.000647  4.224349  -0.001
N  N111  1  0.04363019  0.24808328  0.38578542  1  0.469476  0.001953  3.964587  0.002  0.521785  0.00056  4.229767  0.0  0.544185  0.000406  4.239318  0.0  0.035683  0.506282  0.000718  4.224298  0.001
N  N112  1  0.46537019  0.72698623  0.83271727  1  -0.538395  -0.044687  3.055896  -0.052  -0.502402  -0.034468  3.360126  -0.041  -0.527242  -0.032359  3.355129  -0.041  -0.438037  -0.487282  -0.034963  3.363891  -0.04
N  N113  1  0.53459601  0.22702221  0.66729516  1  -0.537907  0.050214  3.056099  0.053  -0.501911  0.038274  3.360242  0.042  -0.526712  0.036783  3.355301  0.042  -0.437922  -0.486809  0.037972  3.364015  0.041
N  N114  1  0.53444351  0.27289794  0.16732523  1  -0.538174  -0.046839  3.05604  -0.054  -0.502135  -0.035704  3.360217  -0.042  -0.52705  -0.033565  3.355201  -0.042  -0.437893  -0.487043  -0.036191  3.364004  -0.041
N  N115  1  0.46551021  0.77279093  0.33266775  1  -0.538059  -0.045653  3.055416  -0.053  -0.50216  -0.034768  3.359745  -0.041  -0.52703  -0.03254  3.354757  -0.041  -0.437967  -0.487019  -0.035445  3.36349  -0.041
O  O116  1  0.32639158  0.58691035  0.20170999  1  -0.519048  -0.095236  2.068057  -0.123  -0.496115  -0.065522  2.349896  -0.093  -0.53817  -0.050376  2.346311  -0.076  -0.314334  -0.468495  -0.076008  2.352141  -0.103
O  O117  1  0.67373596  0.08701020  0.29820807  1  -0.519262  -0.09462  2.068336  -0.123  -0.496105  -0.065165  2.350256  -0.092  -0.53817  -0.05018  2.346545  -0.076  -0.314153  -0.468477  -0.075511  2.352517  -0.102
O  O118  1  0.67371097  0.41304844  0.79822543  1  -0.519197  0.104238  2.067599  0.122  -0.496407  0.070399  2.349493  0.092  -0.538361  0.055334  2.345812  0.076  -0.314374  -0.468785  0.080227  2.351866  0.102
O  O119  1  0.32637900  0.91305739  0.70177575  1  -0.518984  -0.095267  2.067639  -0.123  -0.495964  -0.065455  2.349662  -0.093  -0.537965  -0.050384  2.345966  -0.076  -0.314108  -0.468353  -0.075929  2.352021  -0.103
O  O120  1  0.04439957  0.14497589  0.92025929  1  -0.397369  0.001722  1.745122  0.002  -0.38137  0.000635  1.943934  0.001  -0.392187  0.000611  1.939325  0.001  -0.15646  -0.374522  0.000583  1.947868  0.001
O  O121  1  0.95563796  0.64497912  0.57970385  1  -0.397498  0.001708  1.744693  0.002  -0.381549  0.00056  1.94335  0.001  -0.392374  0.000535  1.938745  0.001  -0.156672  -0.374703  0.000561  1.947289  0.001
O  O122  1  0.95566498  0.85499999  0.07976551  1  -0.397561  -0.001623  1.744507  -0.002  -0.381489  -0.000754  1.943288  -0.001  -0.392311  -0.000635  1.938676  -0.001  -0.156506  -0.374627  -0.00082  1.947222  -0.001
O  O123  1  0.04435934  0.35502733  0.42026522  1  -0.397566  0.001556  1.744261  0.002  -0.381634  0.000621  1.942955  0.001  -0.39247  0.000553  1.938347  0.001  -0.156653  -0.374773  0.000696  1.946902  0.001
O  O124  1  0.99045210  0.28286260  0.78101232  1  -0.40482  -4e-06  1.785556  0.0  -0.387399  -0.000413  1.993568  0.0  -0.400089  -0.000236  1.988375  0.0  -0.153721  -0.379368  -0.000732  1.997961  -0.001
O  O125  1  0.00955934  0.78287405  0.71895257  1  -0.404551  0.000278  1.786198  0.0  -0.387093  -0.000143  1.993976  0.0  -0.399765  4.5e-05  1.988777  0.0  -0.153568  -0.379059  -0.000435  1.998352  0.0
O  O126  1  0.00958768  0.71708720  0.21899566  1  -0.404717  -0.002052  1.78549  -0.002  -0.387359  -0.001135  1.993519  -0.001  -0.400019  -0.000697  1.988298  -0.001  -0.15377  -0.379337  -0.001539  1.997917  -0.002
O  O127  1  0.99049786  0.21713510  0.28101810  1  -0.404625  0.002646  1.786046  0.002  -0.387213  0.001555  1.993996  0.001  -0.399859  0.001133  1.988732  0.001  -0.153547  -0.3792  0.001958  1.998407  0.002
