# generated using pymatgen
data_CuH4(CN)8
_symmetry_space_group_name_H-M   'P 1'
_cell_length_a   11.35051727
_cell_length_b   13.09096174
_cell_length_c   13.09095957
_cell_angle_alpha   90.00046321
_cell_angle_beta   89.99999902
_cell_angle_gamma   89.99998632
_symmetry_Int_Tables_number   1
_chemical_formula_structural   CuH4(CN)8
_chemical_formula_sum   'Cu8 H32 C64 N64'
_cell_volume   1945.17504306
_cell_formula_units_Z   8
loop_
 _symmetry_equiv_pos_site_id
 _symmetry_equiv_pos_as_xyz
  1  'x, y, z'
loop_
 _atom_site_type_symbol
 _atom_site_label
 _atom_site_symmetry_multiplicity
 _atom_site_fract_x
 _atom_site_fract_y
 _atom_site_fract_z
 _atom_site_occupancy
 _atom_site_pbe_bader_charge
 _atom_site_pbe_bader_spin_density
 _atom_site_pbe_cm5_charge
 _atom_site_pbe_ddec_charge
 _atom_site_pbe_ddec_spin_density
 _atom_site_pbe_ddec_sum_bond_order
 _atom_site_pbe_magmom
Cu  Cu0  1  0.54435573  0.49652171  0.70693414  1  1.030864  0.565104  0.818199  0.55184  0.718953  2.613378  0.563
Cu  Cu1  1  0.04435562  0.50347832  0.29306611  1  1.030942  0.565095  0.818204  0.551843  0.718936  2.613394  0.563
Cu  Cu2  1  0.79435487  0.79306638  0.99652144  1  1.030732  0.565097  0.81822  0.551877  0.718944  2.613345  0.563
Cu  Cu3  1  0.29435484  0.20693360  0.00347881  1  1.03073  0.565098  0.818221  0.551885  0.718945  2.613336  0.563
Cu  Cu4  1  0.70564537  0.00347797  0.20693366  1  1.030734  0.56509  0.81824  0.551903  0.718934  2.613377  0.563
Cu  Cu5  1  0.20564599  0.99652126  0.79306583  1  1.030872  0.565103  0.818198  0.551855  0.718953  2.613341  0.563
Cu  Cu6  1  0.45564433  0.70693398  0.49652184  1  1.030941  0.5651  0.818197  0.551835  0.718945  2.613377  0.563
Cu  Cu7  1  0.95564451  0.29306597  0.50347840  1  1.030867  0.565098  0.818238  0.551872  0.718941  2.613388  0.563
H  H8  1  0.66860736  0.33976831  0.84765352  1  0.132786  0.002528  0.118015  0.087615  0.001159  1.012662  0.002
H  H9  1  0.16860720  0.66023169  0.15234673  1  0.132788  0.002529  0.118013  0.087609  0.001159  1.012687  0.002
H  H10  1  0.91860650  0.65234575  0.83976766  1  0.132767  0.002529  0.117996  0.087579  0.001159  1.012697  0.002
H  H11  1  0.41860730  0.34765421  0.16023259  1  0.132772  0.002529  0.118007  0.087604  0.001159  1.012658  0.002
H  H12  1  0.58139374  0.16023251  0.34765430  1  0.132764  0.002529  0.117998  0.087594  0.00116  1.01267  0.002
H  H13  1  0.08139353  0.83976752  0.65234595  1  0.132764  0.002528  0.117992  0.087577  0.001159  1.012703  0.002
H  H14  1  0.33139271  0.84765335  0.33976843  1  0.132789  0.002529  0.118015  0.087602  0.001159  1.012696  0.002
H  H15  1  0.83139292  0.15234662  0.66023181  1  0.132784  0.002529  0.118009  0.087614  0.001159  1.012691  0.002
H  H16  1  0.87875902  0.29546001  0.88685749  1  0.121905  0.001273  0.105311  0.113225  0.000694  1.036515  0.001
H  H17  1  0.37875885  0.70453918  0.11314199  1  0.121908  0.001273  0.105306  0.113212  0.000694  1.036491  0.001
H  H18  1  0.12875968  0.61314150  0.79546059  1  0.121897  0.001273  0.105298  0.113197  0.000694  1.036527  0.001
H  H19  1  0.62875984  0.38685851  0.20453966  1  0.121897  0.001274  0.105297  0.113215  0.000694  1.036506  0.001
H  H20  1  0.37124032  0.20453959  0.38685864  1  0.121896  0.001274  0.105296  0.113213  0.000694  1.036506  0.001
H  H21  1  0.87123947  0.79546037  0.61314161  1  0.121898  0.001273  0.105299  0.113207  0.000694  1.036515  0.001
H  H22  1  0.12124105  0.88685810  0.29546092  1  0.121909  0.001274  0.105304  0.113215  0.000694  1.036496  0.001
H  H23  1  0.62124039  0.11314191  0.70453933  1  0.121902  0.001273  0.105302  0.113206  0.000694  1.036496  0.001
H  H24  1  0.04020780  0.38290018  0.78767337  1  0.149771  0.000217  0.10467  0.102942  0.000111  1.042101  0.0
H  H25  1  0.54020789  0.61709985  0.21232612  1  0.149773  0.000217  0.104675  0.102941  0.000111  1.042116  0.0
H  H26  1  0.29020869  0.71232630  0.88290072  1  0.149597  0.000216  0.104668  0.102942  0.000111  1.042092  0.0
H  H27  1  0.79020888  0.28767292  0.11709952  1  0.149598  0.000217  0.10467  0.102942  0.000111  1.042093  0.0
H  H28  1  0.20979130  0.11709949  0.28767381  1  0.149598  0.000217  0.104669  0.102943  0.000111  1.042091  0.0
H  H29  1  0.70979131  0.88290051  0.71232721  1  0.149599  0.000217  0.104679  0.102945  0.000111  1.042101  0.0
H  H30  1  0.95979227  0.78767391  0.38290024  1  0.149773  0.000217  0.104674  0.102931  0.000111  1.042119  0.0
H  H31  1  0.45979223  0.21232604  0.61710000  1  0.149771  0.000216  0.104673  0.102935  0.000111  1.042118  0.0
H  H32  1  0.98513300  0.50899570  0.65230947  1  0.162473  0.001654  0.107014  0.118738  0.000932  1.038328  0.001
H  H33  1  0.48513289  0.49100501  0.34769002  1  0.162569  0.001654  0.106989  0.118702  0.000932  1.038286  0.001
H  H34  1  0.23513190  0.84769174  0.00899742  1  0.162422  0.001654  0.107019  0.118721  0.000932  1.038316  0.001
H  H35  1  0.73513211  0.15230825  0.99100283  1  0.162502  0.001654  0.107021  0.118727  0.000932  1.038314  0.001
H  H36  1  0.26486797  0.99100264  0.15230835  1  0.162503  0.001654  0.107016  0.118716  0.000932  1.038323  0.001
H  H37  1  0.76486822  0.00899734  0.84769190  1  0.162425  0.001654  0.10701  0.118709  0.000932  1.03828  0.001
H  H38  1  0.01486707  0.65231013  0.50899512  1  0.162564  0.001654  0.106984  0.118691  0.000932  1.038299  0.001
H  H39  1  0.51486635  0.34768991  0.49100437  1  0.162472  0.001654  0.107001  0.118741  0.000932  1.038328  0.001
C  C40  1  0.74149126  0.37503140  0.80633201  1  0.40045  -0.000925  0.053716  0.104791  -0.001718  3.935248  -0.001
C  C41  1  0.24149111  0.62496859  0.19366747  1  0.400698  -0.000924  0.053674  0.104746  -0.001717  3.935363  -0.001
C  C42  1  0.99148951  0.69366828  0.87503185  1  0.400171  -0.000925  0.053721  0.104811  -0.001718  3.935336  -0.001
C  C43  1  0.49148945  0.30633165  0.12496839  1  0.400184  -0.000925  0.053714  0.104789  -0.001718  3.935302  -0.001
C  C44  1  0.50851073  0.12496832  0.30633175  1  0.399908  -0.000925  0.053717  0.104779  -0.001717  3.935335  -0.001
C  C45  1  0.00851050  0.87503171  0.69366850  1  0.399907  -0.000926  0.053718  0.104802  -0.001718  3.935356  -0.001
C  C46  1  0.25850881  0.80633186  0.37503153  1  0.400431  -0.000925  0.053738  0.104837  -0.001718  3.935364  -0.001
C  C47  1  0.75850901  0.19366736  0.62496871  1  0.400697  -0.000924  0.053644  0.104697  -0.001717  3.935423  -0.001
C  C48  1  0.85874935  0.35160539  0.82801253  1  0.035654  0.005671  -0.081391  -0.117146  0.003915  3.924238  0.005
C  C49  1  0.35874920  0.64839458  0.17198772  1  0.035655  0.005671  -0.081361  -0.117087  0.003915  3.924271  0.005
C  C50  1  0.10874825  0.67198691  0.85160568  1  0.035716  0.005671  -0.081393  -0.117109  0.003915  3.924273  0.005
C  C51  1  0.60874842  0.32801234  0.14839457  1  0.035854  0.005671  -0.081387  -0.117147  0.003915  3.924318  0.005
C  C52  1  0.39125175  0.14839451  0.32801246  1  0.035859  0.005671  -0.081387  -0.117143  0.003915  3.924323  0.005
C  C53  1  0.89125177  0.85160545  0.67198779  1  0.035854  0.00567  -0.08139  -0.117137  0.003915  3.924319  0.005
C  C54  1  0.14125071  0.82801238  0.35160553  1  0.035656  0.005671  -0.081434  -0.117208  0.003915  3.924343  0.005
C  C55  1  0.64125092  0.17198763  0.64839472  1  0.035656  0.005671  -0.081363  -0.117081  0.003915  3.924288  0.005
C  C56  1  0.94765102  0.39969482  0.77231551  1  -0.086601  -0.00334  -0.062409  -0.008567  -0.00401  3.921702  -0.002
C  C57  1  0.44765088  0.60030513  0.22768474  1  -0.086615  -0.00334  -0.062456  -0.008627  -0.00401  3.92179  -0.002
C  C58  1  0.19765080  0.72768430  0.89969482  1  -0.086443  -0.00334  -0.062425  -0.008614  -0.00401  3.921701  -0.002
C  C59  1  0.69765099  0.27231570  0.10030543  1  -0.086571  -0.003339  -0.062419  -0.008578  -0.00401  3.921746  -0.002
C  C60  1  0.30234920  0.10030539  0.27231581  1  -0.086575  -0.003339  -0.062419  -0.008584  -0.00401  3.921744  -0.002
C  C61  1  0.80234921  0.89969459  0.72768444  1  -0.086571  -0.003339  -0.062429  -0.008589  -0.00401  3.92175  -0.002
C  C62  1  0.05234905  0.77231538  0.39969498  1  -0.086609  -0.003339  -0.062438  -0.008568  -0.00401  3.921732  -0.002
C  C63  1  0.55234924  0.22768465  0.60030527  1  -0.086609  -0.00334  -0.062451  -0.008608  -0.00401  3.921787  -0.002
C  C64  1  0.91719954  0.47026000  0.69672469  1  -0.046458  0.003912  -0.080438  -0.159643  0.002293  3.935711  0.004
C  C65  1  0.41719941  0.52974072  0.30327479  1  -0.046452  0.003912  -0.080392  -0.159568  0.002293  3.935783  0.004
C  C66  1  0.16719931  0.80327567  0.97025985  1  -0.046387  0.003911  -0.080438  -0.159599  0.002293  3.935802  0.004
C  C67  1  0.66719864  0.19672433  0.02973963  1  -0.046491  0.003912  -0.080435  -0.159598  0.002293  3.935807  0.004
C  C68  1  0.33280069  0.02973960  0.19672443  1  -0.046373  0.003912  -0.080429  -0.159596  0.002293  3.935779  0.004
C  C69  1  0.83280155  0.97026037  0.80327582  1  -0.046499  0.003912  -0.080422  -0.159588  0.002293  3.935761  0.004
C  C70  1  0.08280053  0.69672458  0.47025941  1  -0.046468  0.003912  -0.080399  -0.159593  0.002293  3.935767  0.004
C  C71  1  0.58279982  0.30327468  0.52974008  1  -0.046443  0.003912  -0.08039  -0.159596  0.002293  3.935725  0.004
C  C72  1  0.79832478  0.49079319  0.67979325  1  0.492464  0.000524  0.120682  0.151864  -0.000361  4.011125  0.0
C  C73  1  0.29832466  0.50920755  0.32020700  1  0.492454  0.000525  0.120706  0.151887  -0.00036  4.011164  0.0
C  C74  1  0.04832367  0.82020883  0.99079317  1  0.492505  0.000525  0.120727  0.151962  -0.00036  4.011019  0.0
C  C75  1  0.54832300  0.17979120  0.00920631  1  0.492617  0.000524  0.120715  0.151909  -0.00036  4.011113  0.0
C  C76  1  0.45167721  0.00920703  0.17979128  1  0.49251  0.000525  0.120747  0.151974  -0.00036  4.011064  0.0
C  C77  1  0.95167719  0.99079368  0.82020820  1  0.492614  0.000524  0.120712  0.151927  -0.00036  4.011081  0.0
C  C78  1  0.20167529  0.67979312  0.49079259  1  0.492466  0.000524  0.120691  0.151893  -0.000361  4.011138  0.0
C  C79  1  0.70167546  0.32020688  0.50920689  1  0.492469  0.000525  0.120689  0.151888  -0.00036  4.011102  0.0
C  C80  1  0.75190838  0.56410226  0.60631459  1  0.990381  0.004299  0.210218  0.223858  0.003184  4.048331  0.007
C  C81  1  0.25190828  0.43589849  0.39368566  1  0.98952  0.004296  0.210235  0.223852  0.003184  4.048352  0.007
C  C82  1  0.00190640  0.89368785  0.06410281  1  0.989551  0.004295  0.210139  0.223649  0.003184  4.048542  0.007
C  C83  1  0.50190662  0.10631219  0.93589744  1  0.989551  0.004295  0.210186  0.223803  0.003183  4.048412  0.007
C  C84  1  0.49809347  0.93589724  0.10631226  1  0.990413  0.004298  0.210185  0.223778  0.003184  4.048376  0.007
C  C85  1  0.99809370  0.06410270  0.89368722  1  0.990413  0.004298  0.210152  0.223765  0.003184  4.048421  0.007
C  C86  1  0.24809169  0.60631447  0.56410166  1  0.990383  0.004299  0.210214  0.223814  0.003184  4.048332  0.007
C  C87  1  0.74809184  0.39368552  0.43589782  1  0.989518  0.004296  0.210238  0.223886  0.003184  4.048329  0.007
C  C88  1  0.70794473  0.67853193  0.49949171  1  0.981159  0.003543  0.221264  0.23291  0.002313  4.034318  0.006
C  C89  1  0.20794466  0.32146883  0.50050853  1  0.981168  0.003543  0.221228  0.232892  0.002313  4.034358  0.006
C  C90  1  0.95794489  0.00051013  0.17853313  1  0.981268  0.003544  0.221349  0.232963  0.002314  4.034331  0.006
C  C91  1  0.45794550  0.99948981  0.82146712  1  0.981259  0.003543  0.22134  0.232952  0.002313  4.034316  0.006
C  C92  1  0.54205447  0.82146693  0.99948925  1  0.98096  0.003544  0.22133  0.232927  0.002314  4.034315  0.006
C  C93  1  0.04205445  0.17853310  0.00051023  1  0.981267  0.003544  0.221321  0.232932  0.002314  4.034328  0.006
C  C94  1  0.29205534  0.49949161  0.67853134  1  0.981165  0.003542  0.221223  0.232866  0.002313  4.034476  0.006
C  C95  1  0.79205458  0.50050837  0.32146814  1  0.981155  0.003543  0.221278  0.232924  0.002314  4.034305  0.006
C  C96  1  0.68789982  0.75983429  0.42607191  1  0.968324  0.001611  0.21539  0.191852  0.000505  4.058342  0.003
C  C97  1  0.18789977  0.24016571  0.57392834  1  0.968326  0.001611  0.215395  0.19187  0.000505  4.058323  0.003
C  C98  1  0.93790086  0.07392982  0.25983533  1  0.968331  0.001611  0.215444  0.191879  0.000505  4.058352  0.003
C  C99  1  0.43790061  0.92607013  0.74016491  1  0.968328  0.00161  0.215438  0.191849  0.000504  4.058364  0.003
C  C100  1  0.56209938  0.74016474  0.92606956  1  0.968329  0.001611  0.215441  0.191872  0.000504  4.05837  0.003
C  C101  1  0.06209934  0.25983529  0.07392993  1  0.968329  0.001611  0.215437  0.191855  0.000505  4.058374  0.003
C  C102  1  0.31210025  0.42607105  0.75983372  1  0.968327  0.00161  0.215399  0.191852  0.000504  4.058396  0.003
C  C103  1  0.81210035  0.57392816  0.24016576  1  0.968328  0.001612  0.215401  0.191868  0.000505  4.05832  0.003
N  N104  1  0.71178864  0.44243868  0.73398083  1  -1.178762  0.090605  -0.334287  -0.258507  0.059016  3.593496  0.079
N  N105  1  0.21178851  0.55756131  0.26601866  1  -1.178692  0.090607  -0.334283  -0.258512  0.059017  3.593561  0.079
N  N106  1  0.96178601  0.76601924  0.94243897  1  -1.178363  0.090601  -0.33428  -0.258512  0.059013  3.593409  0.079
N  N107  1  0.46178597  0.23398070  0.05756051  1  -1.178168  0.0906  -0.334273  -0.25849  0.059012  3.593454  0.079
N  N108  1  0.53821423  0.05756121  0.23398002  1  -1.178372  0.090599  -0.334306  -0.258515  0.059011  3.593489  0.079
N  N109  1  0.03821398  0.94243882  0.76601947  1  -1.178166  0.090601  -0.334284  -0.258518  0.059012  3.59346  0.079
N  N110  1  0.28821143  0.73398068  0.44243806  1  -1.178899  0.090604  -0.334271  -0.258492  0.059016  3.593468  0.079
N  N111  1  0.78821161  0.26601853  0.55756142  1  -1.178825  0.090605  -0.334264  -0.258518  0.059016  3.593566  0.079
N  N112  1  0.63352611  0.56863133  0.60279691  1  -0.721351  0.11349  -0.268181  -0.183961  0.074947  3.642594  0.098
N  N113  1  0.13352601  0.43136868  0.39720334  1  -0.721349  0.113489  -0.268186  -0.183943  0.074947  3.642614  0.098
N  N114  1  0.88352525  0.89720547  0.06863266  1  -0.721173  0.113486  -0.268237  -0.18406  0.074945  3.643085  0.098
N  N115  1  0.38352523  0.10279449  0.93136682  1  -0.721153  0.113491  -0.268295  -0.184224  0.074948  3.643162  0.098
N  N116  1  0.61647486  0.93136661  0.10279454  1  -0.721155  0.11349  -0.268264  -0.184169  0.074947  3.643051  0.098
N  N117  1  0.11647573  0.06863264  0.89720571  1  -0.721311  0.113485  -0.268212  -0.184068  0.074945  3.643005  0.098
N  N118  1  0.36647396  0.60279678  0.56863149  1  -0.721348  0.113492  -0.268183  -0.183927  0.074948  3.642593  0.098
N  N119  1  0.86647411  0.39720318  0.43136876  1  -0.721355  0.113487  -0.268187  -0.183985  0.074946  3.642624  0.098
N  N120  1  0.60542254  0.64110168  0.53617413  1  -0.700126  0.107165  -0.261312  -0.18867  0.071527  3.594349  0.093
N  N121  1  0.10542245  0.35889834  0.46382612  1  -0.700136  0.107165  -0.261268  -0.188673  0.071527  3.594396  0.093
N  N122  1  0.85542344  0.96382806  0.14110355  1  -0.700208  0.107167  -0.26126  -0.188489  0.071529  3.594498  0.093
N  N123  1  0.35542256  0.03617190  0.85889593  1  -0.700218  0.107169  -0.261256  -0.188443  0.07153  3.594456  0.093
N  N124  1  0.64457667  0.85889572  0.03617194  1  -0.699541  0.107171  -0.261276  -0.188491  0.071528  3.59447  0.093
N  N125  1  0.14457664  0.14110352  0.96382831  1  -0.699795  0.107173  -0.261256  -0.188484  0.071528  3.594504  0.093
N  N126  1  0.39457753  0.53617401  0.64110184  1  -0.699778  0.107172  -0.261268  -0.188669  0.071528  3.594405  0.093
N  N127  1  0.89457678  0.46382595  0.35889840  1  -0.699753  0.10717  -0.261297  -0.188645  0.071527  3.59434  0.093
N  N128  1  0.80299855  0.63218942  0.54160914  1  -1.119403  0.013365  -0.313495  -0.365585  0.007951  3.115059  0.009
N  N129  1  0.30299847  0.36781055  0.45839111  1  -1.119615  0.013365  -0.313519  -0.365595  0.007952  3.115105  0.009
N  N130  1  0.05299745  0.95839306  0.13219052  1  -1.119562  0.013365  -0.313533  -0.365571  0.007952  3.115114  0.009
N  N131  1  0.55299769  0.04160696  0.86780897  1  -1.119575  0.013364  -0.313515  -0.365577  0.007951  3.115079  0.009
N  N132  1  0.44700242  0.86780955  0.04160626  1  -1.119783  0.013365  -0.313516  -0.365557  0.007952  3.115048  0.009
N  N133  1  0.94700263  0.13219040  0.95839322  1  -1.119773  0.013363  -0.313532  -0.365612  0.00795  3.115121  0.009
N  N134  1  0.19700151  0.54160904  0.63218961  1  -1.1194  0.013365  -0.313492  -0.365561  0.007952  3.115112  0.009
N  N135  1  0.69700165  0.45839096  0.36781064  1  -1.119625  0.013365  -0.313529  -0.365632  0.007951  3.115127  0.009
N  N136  1  0.57200994  0.78128338  0.40766540  1  -0.685832  0.074155  -0.250151  -0.236965  0.049748  3.586917  0.065
N  N137  1  0.07200990  0.21871665  0.59233485  1  -0.68576  0.074159  -0.250158  -0.236987  0.04975  3.586947  0.065
N  N138  1  0.82201010  0.09233499  0.28128456  1  -0.685685  0.07416  -0.250208  -0.237072  0.049751  3.58694  0.065
N  N139  1  0.32201074  0.90766499  0.71871569  1  -0.685665  0.074164  -0.250178  -0.237011  0.049753  3.586882  0.065
N  N140  1  0.67798926  0.71871550  0.90766440  1  -0.685654  0.074163  -0.250196  -0.237058  0.049753  3.586933  0.065
N  N141  1  0.17798921  0.28128374  0.09233509  1  -0.685715  0.074158  -0.250181  -0.237028  0.04975  3.586901  0.065
N  N142  1  0.42799012  0.40766529  0.78128280  1  -0.685766  0.074158  -0.250147  -0.23696  0.049749  3.586909  0.065
N  N143  1  0.92799022  0.59233466  0.21871668  1  -0.685836  0.074156  -0.250155  -0.236978  0.049748  3.586934  0.065
N  N144  1  0.56991576  0.85798489  0.34166062  1  -0.106295  0.002314  -0.093219  -0.05441  0.000881  3.238133  0.002
N  N145  1  0.06991573  0.14201514  0.65833963  1  -0.106304  0.002314  -0.093216  -0.054394  0.00088  3.238147  0.002
N  N146  1  0.81991679  0.15834114  0.35798585  1  -0.106292  0.002315  -0.093105  -0.054246  0.000882  3.237993  0.002
N  N147  1  0.31991658  0.84165883  0.64201363  1  -0.106337  0.002312  -0.093158  -0.05434  0.00088  3.237986  0.002
N  N148  1  0.68008345  0.64201346  0.84165900  1  -0.106349  0.002314  -0.093143  -0.054313  0.00088  3.238013  0.002
N  N149  1  0.18008337  0.35798578  0.15834125  1  -0.106323  0.002314  -0.093142  -0.054309  0.000881  3.237975  0.002
N  N150  1  0.43008343  0.34166052  0.85798508  1  -0.106285  0.002312  -0.093219  -0.054398  0.00088  3.238122  0.002
N  N151  1  0.93008439  0.65833943  0.14201516  1  -0.106301  0.002314  -0.093227  -0.054413  0.000881  3.238141  0.002
N  N152  1  0.68057591  0.88214497  0.32065003  1  -0.174684  0.011791  -0.11813  -0.072934  0.007565  3.469017  0.012
N  N153  1  0.18057589  0.11785503  0.67934945  1  -0.174676  0.011795  -0.118128  -0.072946  0.007567  3.469021  0.012
N  N154  1  0.93057518  0.17935114  0.38214688  1  -0.174716  0.011794  -0.118189  -0.073001  0.007566  3.469011  0.012
N  N155  1  0.43057585  0.82064881  0.61785336  1  -0.1747  0.011794  -0.118182  -0.072991  0.007566  3.468986  0.012
N  N156  1  0.56942418  0.61785320  0.82064898  1  -0.174708  0.011796  -0.118178  -0.072975  0.007567  3.468951  0.012
N  N157  1  0.06942409  0.38214682  0.17935127  1  -0.174701  0.011792  -0.118184  -0.072999  0.007565  3.468989  0.012
N  N158  1  0.31942416  0.32064995  0.88214518  1  -0.174693  0.011792  -0.118135  -0.072945  0.007565  3.468996  0.012
N  N159  1  0.81942423  0.67935002  0.11785506  1  -0.1747  0.011793  -0.118136  -0.072949  0.007566  3.469035  0.012
N  N160  1  0.75720943  0.82205868  0.37227397  1  -0.646746  0.001045  -0.211455  -0.233248  0.000402  3.150203  0.0
N  N161  1  0.25720939  0.17794131  0.62772552  1  -0.646407  0.001043  -0.21146  -0.23325  0.000401  3.150196  0.0
N  N162  1  0.00721022  0.12772683  0.32206018  1  -0.646804  0.001044  -0.211523  -0.233291  0.000402  3.150195  0.0
N  N163  1  0.50721024  0.87227321  0.67793931  1  -0.646467  0.001043  -0.211511  -0.233251  0.000401  3.150148  0.0
N  N164  1  0.49278977  0.67793915  0.87227264  1  -0.646819  0.001042  -0.211517  -0.23327  0.000401  3.150151  0.0
N  N165  1  0.99278995  0.32206078  0.12772684  1  -0.646462  0.001045  -0.211506  -0.233244  0.000402  3.150151  0.0
N  N166  1  0.24279064  0.37227465  0.82205889  1  -0.64675  0.001044  -0.211466  -0.233247  0.000401  3.150208  0.0
N  N167  1  0.74279073  0.62772610  0.17794060  1  -0.646377  0.001044  -0.21145  -0.233238  0.000401  3.150196  0.0
