# generated using pymatgen
data_ErH16C15O11
_symmetry_space_group_name_H-M   'P 1'
_cell_length_a   7.40543053
_cell_length_b   9.30795652
_cell_length_c   13.10024110
_cell_angle_alpha   101.63915384
_cell_angle_beta   100.76328153
_cell_angle_gamma   107.71292500
_symmetry_Int_Tables_number   1
_chemical_formula_structural   ErH16C15O11
_chemical_formula_sum   'Er2 H32 C30 O22'
_cell_volume   812.15537179
_cell_formula_units_Z   2
loop_
 _symmetry_equiv_pos_site_id
 _symmetry_equiv_pos_as_xyz
  1  'x, y, z'
loop_
 _atom_site_type_symbol
 _atom_site_label
 _atom_site_symmetry_multiplicity
 _atom_site_fract_x
 _atom_site_fract_y
 _atom_site_fract_z
 _atom_site_occupancy
 _atom_site_hle17_bader_spin_density
 _atom_site_hle17_ddec_charge
 _atom_site_hle17_ddec_spin_density
 _atom_site_hle17_ddec_sum_bond_order
 _atom_site_hle17_magmom
 _atom_site_hse06_10hf_bader_spin_density
 _atom_site_hse06_10hf_ddec_charge
 _atom_site_hse06_10hf_ddec_spin_density
 _atom_site_hse06_10hf_ddec_sum_bond_order
 _atom_site_hse06_10hf_magmom
 _atom_site_hse06_bader_spin_density
 _atom_site_hse06_ddec_charge
 _atom_site_hse06_ddec_spin_density
 _atom_site_hse06_ddec_sum_bond_order
 _atom_site_hse06_magmom
 _atom_site_pbe_bader_spin_density
 _atom_site_pbe_cm5_charge
 _atom_site_pbe_ddec_charge
 _atom_site_pbe_ddec_spin_density
 _atom_site_pbe_ddec_sum_bond_order
 _atom_site_pbe_magmom
Er  Er0  1  0.84941869  0.78625180  0.98882648  1  0  2.245268  0  1.58112  0  0  2.096995  0  2.053718  0  0  2.236072  0  1.847058  0  0  1.4924  2.060471  0  2.082843  0
Er  Er1  1  0.15061148  0.21375372  0.01117906  1  0  2.245266  0  1.581151  0  0  2.097171  0  2.053526  0  0  2.236114  0  1.847097  0  0  1.492455  2.060645  0  2.082646  0
H  H2  1  0.80481193  0.43810329  0.90975406  1  0  0.448463  0  0.849852  0  0  0.414697  0  0.917278  0  0  0.427204  0  0.89938  0  0  0.300605  0.406107  0  0.929625  0
H  H3  1  0.19519431  0.56189214  0.09023720  1  0  0.448464  0  0.849882  0  0  0.414674  0  0.917333  0  0  0.427196  0  0.899411  0  0  0.300623  0.406096  0  0.929662  0
H  H4  1  0.60982693  0.46365538  0.84708414  1  0  0.457159  0  0.786122  0  0  0.439256  0  0.835942  0  0  0.44734  0  0.828339  0  0  0.340901  0.433568  0  0.842223  0
H  H5  1  0.39017012  0.53636046  0.15291940  1  0  0.457149  0  0.786155  0  0  0.439239  0  0.835994  0  0  0.447327  0  0.828381  0  0  0.340865  0.433548  0  0.842281  0
H  H6  1  0.49630088  0.77921193  0.01712191  1  0  0.442249  0  0.832034  0  0  0.417373  0  0.894175  0  0  0.428078  0  0.878598  0  0  0.315625  0.409536  0  0.905783  0
H  H7  1  0.50368353  0.22078265  0.98287500  1  0  0.442328  0  0.831989  0  0  0.417451  0  0.894079  0  0  0.42816  0  0.878494  0  0  0.315659  0.409621  0  0.905678  0
H  H8  1  0.42481997  0.59769873  0.99714521  1  0  0.435656  0  0.851494  0  0  0.411074  0  0.906592  0  0  0.421573  0  0.891389  0  0  0.307896  0.403949  0  0.917045  0
H  H9  1  0.57519499  0.40230048  0.00285271  1  0  0.435695  0  0.851471  0  0  0.411095  0  0.906562  0  0  0.421611  0  0.891338  0  0  0.307873  0.403967  0  0.917021  0
H  H10  1  0.80735212  0.23315417  0.27657244  1  0  0.086781  0  0.974587  0  0  0.09664  0  1.040263  0  0  0.097436  0  1.040314  0  0  0.110211  0.096103  0  1.040137  0
H  H11  1  0.19267595  0.76682707  0.72341697  1  0  0.086701  0  0.974693  0  0  0.09659  0  1.040447  0  0  0.097396  0  1.040495  0  0  0.110163  0.096061  0  1.040319  0
H  H12  1  0.59967168  0.22804782  0.18268644  1  0  0.123029  0  0.940157  0  0  0.130765  0  1.002975  0  0  0.133589  0  1.000668  0  0  0.119479  0.128826  0  1.00472  0
H  H13  1  0.40035972  0.77195202  0.81730839  1  0  0.122815  0  0.940214  0  0  0.130638  0  1.003047  0  0  0.13349  0  1.00072  0  0  0.119461  0.128705  0  1.004794  0
H  H14  1  0.40095951  0.76014322  0.25564861  1  0  0.086091  0  0.987484  0  0  0.096811  0  1.053952  0  0  0.100791  0  1.05015  0  0  0.097544  0.093949  0  1.056726  0
H  H15  1  0.59899496  0.23985017  0.74435703  1  0  0.085975  0  0.987642  0  0  0.096745  0  1.054043  0  0  0.100791  0  1.050159  0  0  0.09749  0.093851  0  1.056855  0
H  H16  1  0.45560184  0.67794656  0.42721582  1  0  0.10463  0  0.960938  0  0  0.11709  0  1.019894  0  0  0.119945  0  1.018241  0  0  0.103433  0.114914  0  1.02139  0
H  H17  1  0.54439357  0.32207496  0.57279227  1  0  0.104529  0  0.961008  0  0  0.116977  0  1.020004  0  0  0.119833  0  1.018354  0  0  0.103386  0.114806  0  1.021484  0
H  H18  1  0.91803842  0.12686356  0.58089624  1  0  0.105832  0  0.965172  0  0  0.115971  0  1.026825  0  0  0.118909  0  1.025857  0  0  0.102694  0.113821  0  1.027684  0
H  H19  1  0.08196858  0.87311344  0.41908844  1  0  0.105841  0  0.965039  0  0  0.11592  0  1.026774  0  0  0.118887  0  1.025772  0  0  0.102712  0.113775  0  1.027626  0
H  H20  1  0.85206653  0.20955697  0.41842473  1  0  0.093432  0  1.018038  0  0  0.103244  0  1.082868  0  0  0.104591  0  1.084776  0  0  0.094901  0.102373  0  1.081411  0
H  H21  1  0.14793310  0.79044393  0.58157980  1  0  0.093422  0  1.018018  0  0  0.103236  0  1.08285  0  0  0.104579  0  1.084759  0  0  0.094894  0.102364  0  1.081397  0
H  H22  1  0.78514148  0.06328247  0.71558346  1  0  0.089898  0  0.945696  0  0  0.097713  0  1.016421  0  0  0.099273  0  1.015292  0  0  0.112776  0.096755  0  1.017003  0
H  H23  1  0.21488307  0.93673779  0.28443837  1  0  0.089848  0  0.945914  0  0  0.097616  0  1.016686  0  0  0.099171  0  1.015566  0  0  0.112748  0.096667  0  1.017261  0
H  H24  1  0.98187983  0.99377583  0.70635916  1  0  0.094508  0  0.9187  0  0  0.103345  0  0.983779  0  0  0.104841  0  0.983285  0  0  0.113521  0.102378  0  0.984124  0
H  H25  1  0.01812361  0.00624266  0.29362242  1  0  0.094537  0  0.91872  0  0  0.103349  0  0.983815  0  0  0.104842  0  0.98333  0  0  0.113491  0.102389  0  0.984162  0
H  H26  1  0.97483846  0.44866451  0.19471829  1  0  0.105964  0  0.960139  0  0  0.112855  0  1.027669  0  0  0.11643  0  1.024831  0  0  0.116189  0.110201  0  1.030127  0
H  H27  1  0.02515445  0.55132810  0.80527369  1  0  0.105976  0  0.960249  0  0  0.112822  0  1.027775  0  0  0.116407  0  1.024929  0  0  0.116197  0.110164  0  1.030229  0
H  H28  1  0.14443796  0.63351023  0.28189760  1  0  0.074296  0  0.964687  0  0  0.083953  0  1.035488  0  0  0.084755  0  1.034933  0  0  0.108912  0.08347  0  1.035635  0
H  H29  1  0.85556135  0.36647326  0.71811950  1  0  0.074354  0  0.964668  0  0  0.083936  0  1.03548  0  0  0.084755  0  1.034923  0  0  0.108888  0.083451  0  1.035622  0
H  H30  1  0.72069836  0.59484538  0.46952455  1  0  0.118413  0  0.954354  0  0  0.127168  0  1.016406  0  0  0.130811  0  1.013936  0  0  0.108315  0.124696  0  1.01804  0
H  H31  1  0.27927588  0.40514884  0.53046533  1  0  0.118463  0  0.954422  0  0  0.127288  0  1.016386  0  0  0.130932  0  1.013913  0  0  0.108322  0.124817  0  1.018019  0
H  H32  1  0.16813442  0.45264802  0.35592522  1  0  0.113702  0  0.957918  0  0  0.124464  0  1.01793  0  0  0.128142  0  1.015219  0  0  0.107686  0.121833  0  1.019934  0
H  H33  1  0.83184965  0.54735578  0.64407537  1  0  0.113642  0  0.957924  0  0  0.124515  0  1.017792  0  0  0.128199  0  1.015077  0  0  0.107693  0.121893  0  1.019784  0
C  C34  1  0.77165544  0.10500949  0.11520844  1  0  0.749013  0  3.785324  0  0  0.700572  0  4.085172  0  0  0.736047  0  4.077788  0  0  0.234202  0.676993  0  4.092409  0
C  C35  1  0.22835206  0.89497789  0.88478627  1  0  0.748851  0  3.785263  0  0  0.700271  0  4.085439  0  0  0.735767  0  4.078033  0  0  0.233953  0.676692  0  4.092673  0
C  C36  1  0.68498772  0.15643546  0.20659077  1  0  -0.087251  0  3.606102  0  0  -0.137728  0  3.848087  0  0  -0.134647  0  3.847161  0  0  -0.067116  -0.139529  0  3.847415  0
C  C37  1  0.31500712  0.84355609  0.79339510  1  0  -0.086677  0  3.60593  0  0  -0.137461  0  3.848353  0  0  -0.134429  0  3.847433  0  0  -0.066988  -0.139287  0  3.84771  0
C  C38  1  0.61964858  0.98910422  0.32512592  1  0  0.253299  0  3.80148  0  0  0.242617  0  4.065879  0  0  0.252905  0  4.080637  0  0  0.071242  0.235419  0  4.055947  0
C  C39  1  0.38032576  0.01089920  0.67487455  1  0  0.253038  0  3.802174  0  0  0.242484  0  4.066375  0  0  0.252765  0  4.081151  0  0  0.071147  0.235285  0  4.056436  0
C  C40  1  0.51300173  0.83816491  0.32859896  1  0  -0.168072  0  3.791782  0  0  -0.192628  0  4.054915  0  0  -0.19492  0  4.071074  0  0  -0.110974  -0.190956  0  4.044041  0
C  C41  1  0.48696284  0.16183696  0.67140731  1  0  -0.167967  0  3.792048  0  0  -0.192586  0  4.055109  0  0  -0.194923  0  4.071244  0  0  -0.110892  -0.190894  0  4.04425  0
C  C42  1  0.54450251  0.79275121  0.42312222  1  0  -0.15853  0  3.775696  0  0  -0.180839  0  4.032632  0  0  -0.183174  0  4.051592  0  0  -0.104724  -0.179182  0  4.019835  0
C  C43  1  0.45548174  0.20726070  0.57687581  1  0  -0.158208  0  3.775283  0  0  -0.180573  0  4.032245  0  0  -0.182914  0  4.051233  0  0  -0.104556  -0.178918  0  4.019437  0
C  C44  1  0.68775563  0.89670302  0.51611793  1  0  0.246145  0  3.801195  0  0  0.237171  0  4.060535  0  0  0.245317  0  4.079178  0  0  0.074009  0.231612  0  4.047587  0
C  C45  1  0.31221658  0.10329107  0.48388322  1  0  0.245982  0  3.801515  0  0  0.237108  0  4.060739  0  0  0.245184  0  4.079411  0  0  0.074036  0.231547  0  4.04779  0
C  C46  1  0.80138032  0.04449272  0.51144673  1  0  -0.169726  0  3.77733  0  0  -0.188224  0  4.030264  0  0  -0.192308  0  4.052518  0  0  -0.106533  -0.18537  0  4.015277  0
C  C47  1  0.19860347  0.95550416  0.48854819  1  0  -0.169724  0  3.777217  0  0  -0.18818  0  4.030126  0  0  -0.192289  0  4.052381  0  0  -0.10659  -0.18533  0  4.015146  0
C  C48  1  0.76598633  0.09107528  0.41680327  1  0  -0.172793  0  3.771364  0  0  -0.194929  0  4.024845  0  0  -0.198701  0  4.046159  0  0  -0.112003  -0.192419  0  4.010529  0
C  C49  1  0.23401064  0.90892898  0.58320383  1  0  -0.172698  0  3.771335  0  0  -0.194859  0  4.024709  0  0  -0.198628  0  4.046025  0  0  -0.111952  -0.192349  0  4.010402  0
C  C50  1  0.82440539  0.95707483  0.70513050  1  0  -0.061664  0  3.633063  0  0  -0.116145  0  3.888475  0  0  -0.112717  0  3.888219  0  0  -0.059699  -0.118296  0  3.888026  0
C  C51  1  0.17560330  0.04293567  0.29487321  1  0  -0.061705  0  3.633219  0  0  -0.116133  0  3.888651  0  0  -0.112759  0  3.888373  0  0  -0.059625  -0.11831  0  3.888222  0
C  C52  1  0.80258314  0.89668473  0.80267040  1  0  0.720905  0  3.823702  0  0  0.672795  0  4.123367  0  0  0.707459  0  4.121206  0  0  0.214911  0.648947  0  4.130938  0
C  C53  1  0.19744350  0.10332180  0.19733804  1  0  0.721241  0  3.823812  0  0  0.673139  0  4.123431  0  0  0.7078  0  4.121264  0  0  0.215005  0.649303  0  4.131  0
C  C54  1  0.94025388  0.64873376  0.15273977  1  0  0.669632  0  3.879127  0  0  0.619845  0  4.182319  0  0  0.65145  0  4.183447  0  0  0.195411  0.597692  0  4.187112  0
C  C55  1  0.05978746  0.35128257  0.84726914  1  0  0.669825  0  3.878779  0  0  0.620032  0  4.181938  0  0  0.651639  0  4.183057  0  0  0.195489  0.597886  0  4.186717  0
C  C56  1  0.98900890  0.56863002  0.23695798  1  0  -0.084753  0  3.676513  0  0  -0.13773  0  3.932202  0  0  -0.134499  0  3.931496  0  0  -0.071304  -0.139326  0  3.931469  0
C  C57  1  0.01098335  0.43136598  0.76304593  1  0  -0.084863  0  3.676576  0  0  -0.137635  0  3.932038  0  0  -0.134436  0  3.931338  0  0  -0.071292  -0.139227  0  3.931282  0
C  C58  1  0.93650720  0.53003749  0.40173889  1  0  0.23588  0  3.824187  0  0  0.226631  0  4.088746  0  0  0.235297  0  4.105845  0  0  0.070783  0.220535  0  4.077101  0
C  C59  1  0.06344897  0.46993873  0.59824669  1  0  0.235945  0  3.824083  0  0  0.22657  0  4.088795  0  0  0.235246  0  4.105892  0  0  0.070726  0.220469  0  4.077155  0
C  C60  1  0.84113391  0.55117743  0.48280055  1  0  -0.135504  0  3.74231  0  0  -0.158868  0  3.998266  0  0  -0.160242  0  4.014294  0  0  -0.096369  -0.157744  0  3.987158  0
C  C61  1  0.15883566  0.44880853  0.51718690  1  0  -0.135602  0  3.742606  0  0  -0.158966  0  3.998529  0  0  -0.160347  0  4.014551  0  0  -0.096409  -0.157848  0  3.987422  0
C  C62  1  0.09532746  0.47714034  0.41876531  1  0  -0.199386  0  3.79485  0  0  -0.218643  0  4.05196  0  0  -0.221708  0  4.069855  0  0  -0.109794  -0.216429  0  4.039718  0
C  C63  1  0.90464126  0.52283516  0.58122811  1  0  -0.199442  0  3.794801  0  0  -0.218733  0  4.051922  0  0  -0.221816  0  4.06982  0  0  -0.109853  -0.216528  0  4.039684  0
O  O64  1  0.71235545  0.96007211  0.06629745  1  0  -0.733279  0  2.097707  0  0  -0.67904  0  2.349979  0  0  -0.716481  0  2.335774  0  0  -0.385502  -0.660897  0  2.357413  0
O  O65  1  0.28763981  0.03992181  0.93368118  1  0  -0.733219  0  2.097673  0  0  -0.678928  0  2.35001  0  0  -0.716354  0  2.335804  0  0  -0.38533  -0.660779  0  2.357431  0
O  O66  1  0.90210182  0.21322370  0.09576275  1  0  -0.724537  0  2.045217  0  0  -0.674758  0  2.302385  0  0  -0.713498  0  2.28934  0  0  -0.388489  -0.65617  0  2.308394  0
O  O67  1  0.09791373  0.78676509  0.90424203  1  0  -0.724663  0  2.045147  0  0  -0.674754  0  2.30241  0  0  -0.713519  0  2.289332  0  0  -0.388528  -0.65616  0  2.308412  0
O  O68  1  0.55864218  0.02643772  0.23110647  1  0  -0.253712  0  2.334858  0  0  -0.187235  0  2.568038  0  0  -0.202773  0  2.568597  0  0  -0.1819  -0.175852  0  2.566811  0
O  O69  1  0.44136384  0.97356920  0.76889799  1  0  -0.253683  0  2.334505  0  0  -0.187146  0  2.567697  0  0  -0.202678  0  2.568275  0  0  -0.181881  -0.175756  0  2.56648  0
O  O70  1  0.70445051  0.84330297  0.60720907  1  0  -0.256083  0  2.313233  0  0  -0.189657  0  2.544579  0  0  -0.205728  0  2.547361  0  0  -0.182845  -0.178216  0  2.542036  0
O  O71  1  0.29553838  0.15671947  0.39279861  1  0  -0.256  0  2.313135  0  0  -0.189658  0  2.544515  0  0  -0.205583  0  2.547212  0  0  -0.182897  -0.178204  0  2.541971  0
O  O72  1  0.89557335  0.99825571  0.89542721  1  0  -0.85524  0  2.199555  0  0  -0.799148  0  2.468547  0  0  -0.848854  0  2.458598  0  0  -0.448692  -0.779222  0  2.473258  0
O  O73  1  0.10447852  0.00174256  0.10457600  1  0  -0.855357  0  2.199613  0  0  -0.799307  0  2.468696  0  0  -0.849012  0  2.458708  0  0  -0.448706  -0.77939  0  2.473428  0
O  O74  1  0.70941648  0.75638418  0.79788623  1  0  -0.651007  0  1.91904  0  0  -0.610571  0  2.153095  0  0  -0.642878  0  2.140845  0  0  -0.353485  -0.594842  0  2.16001  0
O  O75  1  0.29058984  0.24363193  0.20213189  1  0  -0.651221  0  1.918857  0  0  -0.610771  0  2.15287  0  0  -0.643065  0  2.140629  0  0  -0.353583  -0.595046  0  2.159789  0
O  O76  1  0.04995814  0.66070369  0.08678449  1  0  -0.693059  0  1.988828  0  0  -0.633667  0  2.22141  0  0  -0.668173  0  2.212183  0  0  -0.355437  -0.615053  0  2.226847  0
O  O77  1  0.95011096  0.33933211  0.91324275  1  0  -0.693224  0  1.988373  0  0  -0.633883  0  2.220962  0  0  -0.668403  0  2.211797  0  0  -0.355614  -0.615275  0  2.226406  0
O  O78  1  0.80222666  0.70229068  0.14520734  1  0  -0.66612  0  1.965567  0  0  -0.625519  0  2.210929  0  0  -0.658309  0  2.200419  0  0  -0.371713  -0.60967  0  2.216871  0
O  O79  1  0.19778877  0.29769703  0.85478122  1  0  -0.666055  0  1.96544  0  0  -0.625551  0  2.210867  0  0  -0.658311  0  2.200355  0  0  -0.371638  -0.609705  0  2.216799  0
O  O80  1  0.86808697  0.56676467  0.30899030  1  0  -0.244375  0  2.314316  0  0  -0.180064  0  2.545782  0  0  -0.19532  0  2.547022  0  0  -0.181895  -0.16906  0  2.544128  0
O  O81  1  0.13188558  0.43322486  0.69100101  1  0  -0.244335  0  2.313959  0  0  -0.180006  0  2.545377  0  0  -0.195268  0  2.546622  0  0  -0.181803  -0.169  0  2.543712  0
O  O82  1  0.71691192  0.50394580  0.91324191  1  0  -0.913205  0  1.886973  0  0  -0.857828  0  2.085317  0  0  -0.889186  0  2.051396  0  0  -0.605828  -0.843375  0  2.104752  0
O  O83  1  0.28309213  0.49604951  0.08675831  1  0  -0.91318  0  1.886989  0  0  -0.857841  0  2.085425  0  0  -0.889187  0  2.051483  0  0  -0.605859  -0.843392  0  2.104852  0
O  O84  1  0.49076574  0.68220320  0.96742372  1  0  -0.871946  0  1.843727  0  0  -0.825796  0  2.032411  0  0  -0.854085  0  1.99593  0  0  -0.619303  -0.812512  0  2.053899  0
O  O85  1  0.50923023  0.31779990  0.03257471  1  0  -0.872066  0  1.843711  0  0  -0.825924  0  2.032377  0  0  -0.854223  0  1.995875  0  0  -0.619322  -0.812631  0  2.053838  0
