# generated using pymatgen
data_Cd3H40C66N6O13
_symmetry_space_group_name_H-M   'P 1'
_cell_length_a   11.29661044
_cell_length_b   13.87126293
_cell_length_c   21.98479834
_cell_angle_alpha   74.94614084
_cell_angle_beta   78.11640615
_cell_angle_gamma   71.60098383
_symmetry_Int_Tables_number   1
_chemical_formula_structural   Cd3H40C66N6O13
_chemical_formula_sum   'Cd6 H80 C132 N12 O26'
_cell_volume   3127.68437777
_cell_formula_units_Z   2
loop_
 _symmetry_equiv_pos_site_id
 _symmetry_equiv_pos_as_xyz
  1  'x, y, z'
loop_
 _atom_site_type_symbol
 _atom_site_label
 _atom_site_symmetry_multiplicity
 _atom_site_fract_x
 _atom_site_fract_y
 _atom_site_fract_z
 _atom_site_occupancy
 _atom_site_pbe_bader_charge
 _atom_site_pbe_bader_spin_density
 _atom_site_pbe_cm5_charge
 _atom_site_pbe_ddec_charge
 _atom_site_pbe_ddec_spin_density
 _atom_site_pbe_ddec_sum_bond_order
 _atom_site_pbe_magmom
Cd  Cd0  1  0.62411620  0.17732457  0.49953259  1  1.255287  0  0.766877  0.860987  0  2.141315  0
Cd  Cd1  1  0.37588875  0.82267757  0.50046909  1  1.255092  0  0.766859  0.86105  0  2.141189  0
Cd  Cd2  1  0.78226532  0.27833186  0.85038668  1  1.279834  0  0.773537  0.900424  0  2.172458  0
Cd  Cd3  1  0.21773690  0.72166486  0.14961615  1  1.279701  0  0.773559  0.900445  0  2.172374  0
Cd  Cd4  1  0.98136789  0.47553711  0.81073072  1  1.279365  0  0.766745  0.887707  0  2.158039  0
Cd  Cd5  1  0.01863125  0.52446893  0.18927096  1  1.279343  0  0.766734  0.887678  0  2.158039  0
H  H6  1  0.55523326  0.29215464  0.57927029  1  0.630176  0  0.284591  0.381639  0  0.958429  0
H  H7  1  0.44475246  0.70785624  0.42072387  1  0.630235  0  0.284615  0.381664  0  0.958347  0
H  H8  1  0.65964288  0.35111800  0.55381049  1  0.592309  0  0.323683  0.402108  0  0.877573  0
H  H9  1  0.34035020  0.64888726  0.44619424  1  0.592363  0  0.323702  0.402013  0  0.877715  0
H  H10  1  0.23802380  0.32279877  0.64938234  1  0.140919  0  0.108069  0.118617  0  1.007567  0
H  H11  1  0.76195819  0.67721272  0.35062441  1  0.140432  0  0.108083  0.118615  0  1.007611  0
H  H12  1  0.38638860  0.01581996  0.32173827  1  0.102403  0  0.101534  0.108569  0  1.038798  0
H  H13  1  0.61360413  0.98418619  0.67825908  1  0.102275  0  0.101542  0.108515  0  1.038711  0
H  H14  1  0.93268866  0.02095494  0.74921477  1  0.099928  0  0.098588  0.102456  0  1.044146  0
H  H15  1  0.06732269  0.97904413  0.25078170  1  0.099612  0  0.098547  0.102384  0  1.044246  0
H  H16  1  0.46873579  0.11924526  0.33855527  1  0.108156  0  0.106416  0.110334  0  1.043184  0
H  H17  1  0.53125935  0.88074536  0.66144384  1  0.108455  0  0.106436  0.110418  0  1.043119  0
H  H18  1  0.33646828  0.88094133  0.28485253  1  0.075393  0  0.108  0.116166  0  0.992296  0
H  H19  1  0.66352560  0.11906405  0.71514390  1  0.075316  0  0.107989  0.116244  0  0.992294  0
H  H20  1  0.29325080  0.33346805  0.18024791  1  0.09974  0  0.101721  0.111824  0  1.038324  0
H  H21  1  0.70675942  0.66653177  0.81975130  1  0.099764  0  0.101687  0.111821  0  1.03833  0
H  H22  1  0.37285623  0.20780600  0.13292623  1  0.047923  0  0.093052  0.085991  0  1.056382  0
H  H23  1  0.62714581  0.79219933  0.86706979  1  0.048072  0  0.093031  0.085956  0  1.056399  0
H  H24  1  0.33749276  0.00214697  0.63850024  1  0.086559  0  0.105503  0.113865  0  1.02789  0
H  H25  1  0.66251456  0.99786991  0.36149792  1  0.086258  0  0.105583  0.11408  0  1.027727  0
H  H26  1  0.43348406  0.44464168  0.30859725  1  0.135598  0  0.112175  0.126307  0  0.98913  0
H  H27  1  0.56650991  0.55535269  0.69141048  1  0.135536  0  0.112209  0.126368  0  0.989132  0
H  H28  1  0.26581496  0.69360637  0.72547432  1  0.112747  0  0.105271  0.11538  0  1.003007  0
H  H29  1  0.73420494  0.30639422  0.27452099  1  0.112321  0  0.105266  0.115231  0  1.003021  0
H  H30  1  0.31981072  0.86111154  0.69308037  1  0.055387  0  0.096379  0.094375  0  1.067797  0
H  H31  1  0.68020393  0.13889134  0.30691923  1  0.055608  0  0.096359  0.094334  0  1.067893  0
H  H32  1  0.88273637  0.85227724  0.78469138  1  0.105881  0  0.095767  0.098517  0  1.052922  0
H  H33  1  0.11727960  0.14771876  0.21530190  1  0.105957  0  0.095683  0.098463  0  1.053045  0
H  H34  1  0.33241969  0.06693166  0.09609466  1  0.06447  0  0.096323  0.096201  0  1.03931  0
H  H35  1  0.66758521  0.93307599  0.90390069  1  0.064485  0  0.096328  0.09625  0  1.039181  0
H  H36  1  0.00119616  0.13308605  0.75932556  1  0.113852  0  0.100996  0.104532  0  1.044982  0
H  H37  1  0.99879952  0.86690843  0.24067424  1  0.113842  0  0.101026  0.104573  0  1.044999  0
H  H38  1  0.16424393  0.26764426  0.09777168  1  0.089785  0  0.107198  0.122263  0  1.023958  0
H  H39  1  0.83576071  0.73235327  0.90222712  1  0.089823  0  0.10724  0.122304  0  1.023868  0
H  H40  1  0.28068277  0.35796045  0.75916867  1  0.12039  0  0.128698  0.103582  0  0.964764  0
H  H41  1  0.71931594  0.64204408  0.24083057  1  0.120408  0  0.128723  0.103614  0  0.964743  0
H  H42  1  0.76857240  0.50141367  0.93400124  1  0.122259  0  0.112902  0.085964  0  1.030776  0
H  H43  1  0.23142792  0.49859158  0.06600135  1  0.122219  0  0.112914  0.086006  0  1.03078  0
H  H44  1  0.74508053  0.46345396  0.05459590  1  0.076557  0  0.109218  0.116736  0  0.986388  0
H  H45  1  0.25492417  0.53654347  0.94540928  1  0.076559  0  0.109226  0.116778  0  0.986406  0
H  H46  1  0.93612837  0.35994840  0.10781333  1  0.119076  0  0.113574  0.12009  0  1.009525  0
H  H47  1  0.06387792  0.64004137  0.89218653  1  0.119083  0  0.113537  0.119959  0  1.009561  0
H  H48  1  0.21677922  0.04578597  0.95366945  1  0.123238  0  0.11459  0.12499  0  0.968978  0
H  H49  1  0.78321546  0.95420068  0.04633671  1  0.123335  0  0.114585  0.124981  0  0.969027  0
H  H50  1  0.36610187  0.20715144  0.02832062  1  0.038363  0  0.105338  0.109379  0  1.012101  0
H  H51  1  0.63390022  0.79285383  0.97167904  1  0.038401  0  0.105344  0.109375  0  1.01211  0
H  H52  1  0.20015087  0.99396081  0.36061260  1  0.078542  0  0.103821  0.106159  0  1.040515  0
H  H53  1  0.79984262  0.00603212  0.63938814  1  0.07839  0  0.103803  0.106191  0  1.04052  0
H  H54  1  0.08203356  0.14594806  0.86693274  1  0.117627  0  0.11971  0.09678  0  0.993875  0
H  H55  1  0.91796679  0.85403782  0.13307111  1  0.117402  0  0.119714  0.096842  0  0.993846  0
H  H56  1  0.48529596  0.19442447  0.91860837  1  0.130428  0  0.108612  0.121621  0  1.010608  0
H  H57  1  0.51470774  0.80557310  0.08138825  1  0.129944  0  0.108673  0.121705  0  1.010543  0
H  H58  1  0.92511146  0.08954006  0.14525459  1  0.10423  0  0.10445  0.111822  0  1.028598  0
H  H59  1  0.07488262  0.91046212  0.85474870  1  0.104239  0  0.10445  0.111845  0  1.028484  0
H  H60  1  0.96747963  0.74383724  0.45763458  1  0.073804  0  0.115045  0.115485  0  0.968247  0
H  H61  1  0.03250752  0.25616116  0.54236506  1  0.073768  0  0.115021  0.115486  0  0.968242  0
H  H62  1  0.61981022  0.93058081  0.54209317  1  0.158422  0  0.120842  0.107053  0  1.015481  0
H  H63  1  0.38018008  0.06942454  0.45790639  1  0.158302  0  0.120808  0.106986  0  1.015442  0
H  H64  1  0.78086485  0.34895694  0.42610085  1  0.108568  0  0.125177  0.094812  0  0.965372  0
H  H65  1  0.21915032  0.65103891  0.57390254  1  0.109573  0  0.125075  0.094762  0  0.965306  0
H  H66  1  0.14913443  0.18738314  0.34513587  1  0.091623  0  0.11158  0.114159  0  0.988617  0
H  H67  1  0.85086582  0.81260833  0.65485663  1  0.091702  0  0.111625  0.114216  0  0.988606  0
H  H68  1  0.70292843  0.18897563  0.16610249  1  0.112592  0  0.108529  0.117987  0  1.004032  0
H  H69  1  0.29706704  0.81102502  0.83389862  1  0.112617  0  0.108528  0.118033  0  1.003931  0
H  H70  1  0.75144295  0.75792627  0.52011392  1  0.09023  0  0.115837  0.126414  0  0.975852  0
H  H71  1  0.24854515  0.24207752  0.47988748  1  0.09023  0  0.115848  0.126419  0  0.97574  0
H  H72  1  0.48291686  0.24872472  0.80113282  1  0.090785  0  0.116698  0.128429  0  0.992637  0
H  H73  1  0.51708180  0.75127442  0.19886455  1  0.090808  0  0.116694  0.128474  0  0.992567  0
H  H74  1  0.99094470  0.35525587  0.36315212  1  0.118708  0  0.118628  0.134197  0  0.971139  0
H  H75  1  0.00906521  0.64473935  0.63684467  1  0.118628  0  0.118628  0.134209  0  0.971104  0
H  H76  1  0.13573942  0.83240993  0.40033208  1  0.140858  0  0.108723  0.123085  0  0.995889  0
H  H77  1  0.86425095  0.16758692  0.59966655  1  0.140797  0  0.108728  0.123117  0  0.995938  0
H  H78  1  0.11963797  0.03676970  0.06685993  1  0.115736  0  0.112001  0.125638  0  0.995093  0
H  H79  1  0.88036009  0.96322316  0.93314351  1  0.115713  0  0.111976  0.125629  0  0.99516  0
H  H80  1  0.39934434  0.42005877  0.03015496  1  0.091436  0  0.104499  0.106177  0  1.039013  0
H  H81  1  0.60065967  0.57993796  0.96984585  1  0.091483  0  0.10451  0.106159  0  1.038994  0
H  H82  1  0.51016918  0.31711518  0.12426428  1  0.094059  0  0.109206  0.111471  0  1.022255  0
H  H83  1  0.48983355  0.68288542  0.87573742  1  0.094305  0  0.109226  0.111507  0  1.022243  0
H  H84  1  0.51227715  0.40441128  0.92023205  1  0.115847  0  0.11862  0.089543  0  0.985899  0
H  H85  1  0.48772476  0.59558082  0.07976928  1  0.115795  0  0.118663  0.089581  0  0.985901  0
C  C86  1  0.31645031  0.50700089  0.20162201  1  1.527421  0  0.195381  0.568493  0  4.205401  0
C  C87  1  0.68354211  0.49299815  0.79838469  1  1.527071  0  0.195453  0.568655  0  4.204901  0
C  C88  1  0.04081959  0.66064667  0.77680728  1  1.513617  0  0.178581  0.534466  0  4.270647  0
C  C89  1  0.95919988  0.33935241  0.22318559  1  1.512504  0  0.17851  0.534285  0  4.271022  0
C  C90  1  0.05989309  0.36920491  0.95175962  1  0.484816  0  0.11787  0.120247  0  3.980605  0
C  C91  1  0.94011028  0.63079648  0.04824098  1  0.485023  0  0.117829  0.120293  0  3.980564  0
C  C92  1  0.16329565  0.05408287  0.70053731  1  -0.042067  0  -0.010674  0.057914  0  4.00598  0
C  C93  1  0.83670903  0.94592007  0.29946245  1  -0.041756  0  -0.010626  0.058025  0  4.006054  0
C  C94  1  0.21740901  0.24791419  0.66417133  1  -0.060373  0  -0.077477  -0.112137  0  3.936532  0
C  C95  1  0.78258084  0.75209809  0.33583126  1  -0.060058  0  -0.07752  -0.112074  0  3.936965  0
C  C96  1  0.37121674  0.02993621  0.27234805  1  -0.060679  0  -0.089582  -0.135328  0  3.952915  0
C  C97  1  0.62877909  0.97006604  0.72764959  1  -0.062139  0  -0.089642  -0.135264  0  3.952705  0
C  C98  1  0.38731102  0.21307273  0.25358257  1  -0.032948  0  -0.013087  0.056286  0  4.014433  0
C  C99  1  0.61269296  0.78692403  0.74641597  1  -0.03294  0  -0.013087  0.05631  0  4.014448  0
C  C100  1  0.50897385  0.25634791  0.39052540  1  1.551362  0  0.183755  0.548004  0  4.251079  0
C  C101  1  0.49102498  0.74364261  0.60947878  1  1.551208  0  0.183894  0.548225  0  4.250767  0
C  C102  1  0.37527230  0.12554420  0.23088740  1  -0.018243  0  -0.004203  0.078877  0  3.980411  0
C  C103  1  0.62473011  0.87445726  0.76910874  1  -0.018358  0  -0.004196  0.078825  0  3.980289  0
C  C104  1  0.13128159  0.95404960  0.71950248  1  -0.076594  0  -0.007449  0.071342  0  3.982491  0
C  C105  1  0.86872950  0.04595026  0.28049344  1  -0.076741  0  -0.007407  0.071315  0  3.982748  0
C  C106  1  0.00767045  0.94963199  0.74544031  1  -0.002879  0  -0.096267  -0.143634  0  3.980597  0
C  C107  1  0.99234242  0.05036790  0.25455268  1  -0.002601  0  -0.096212  -0.143496  0  3.980598  0
C  C108  1  0.43820790  0.19704977  0.30960239  1  -0.077688  0  -0.079309  -0.142865  0  3.926446  0
C  C109  1  0.56179284  0.80294312  0.69039803  1  -0.077811  0  -0.079314  -0.142937  0  3.926514  0
C  C110  1  0.07149866  0.76231593  0.75828261  1  0.030999  0  -0.025484  -0.042522  0  4.002383  0
C  C111  1  0.92852056  0.23768392  0.24171062  1  0.031045  0  -0.025458  -0.042411  0  4.002024  0
C  C112  1  0.34532420  0.95279879  0.25168914  1  -0.042639  0  -0.081732  -0.090079  0  3.9657  0
C  C113  1  0.65466918  0.04720814  0.74830756  1  -0.068567  0  -0.081711  -0.090205  0  3.965657  0
C  C114  1  0.17691133  0.33517700  0.91154847  1  0.448484  0  0.115372  0.11621  0  3.99032  0
C  C115  1  0.82308994  0.66481976  0.08845127  1  0.448326  0  0.115352  0.116185  0  3.990407  0
C  C116  1  0.41653763  0.17636908  0.59725009  1  1.542646  0  0.195638  0.563131  0  4.218378  0
C  C117  1  0.58344891  0.82366418  0.40274815  1  1.542428  0  0.195619  0.563023  0  4.218132  0
C  C118  1  0.34463119  0.31607952  0.22033586  1  -0.051365  0  -0.086245  -0.148622  0  3.944424  0
C  C119  1  0.65537139  0.68391877  0.77966486  1  -0.051557  0  -0.086209  -0.148634  0  3.944514  0
C  C120  1  0.45317500  0.27964618  0.33000688  1  -0.01857  0  -0.016363  -0.021579  0  3.9773  0
C  C121  1  0.54682446  0.72034515  0.66999528  1  -0.018993  0  -0.016386  -0.021611  0  3.977265  0
C  C122  1  0.36460947  0.13642513  0.16661688  1  -0.063373  0  -0.096382  -0.140217  0  3.995234  0
C  C123  1  0.63539425  0.86357786  0.83337978  1  -0.063386  0  -0.096355  -0.140193  0  3.995043  0
C  C124  1  0.27311563  0.06620045  0.65913914  1  -0.026418  0  -0.076253  -0.128928  0  3.893957  0
C  C125  1  0.72688793  0.93381411  0.34086025  1  -0.026244  0  -0.076339  -0.129251  0  3.894077  0
C  C126  1  0.36182984  0.39899920  0.23937898  1  0.003169  0  -0.023281  -0.037922  0  4.002022  0
C  C127  1  0.63816517  0.60099750  0.76062781  1  0.003143  0  -0.023244  -0.037855  0  4.001955  0
C  C128  1  0.11101266  0.23597323  0.70737431  1  -0.00713  0  -0.022588  -0.033286  0  4.012155  0
C  C129  1  0.88897767  0.76402663  0.29263021  1  -0.007275  0  -0.02254  -0.033197  0  4.011994  0
C  C130  1  0.41862846  0.38071558  0.29378941  1  -0.049373  0  -0.070807  -0.096185  0  3.898976  0
C  C131  1  0.58136484  0.61927804  0.70621670  1  -0.048702  0  -0.070851  -0.096287  0  3.899019  0
C  C132  1  0.30019662  0.16217403  0.64134214  1  -0.018632  0  -0.019493  -0.028318  0  3.997441  0
C  C133  1  0.69980163  0.83783744  0.35865877  1  -0.018296  0  -0.01957  -0.028386  0  3.997783  0
C  C134  1  0.03446857  0.32213805  0.74003123  1  1.532395  0  0.199605  0.577858  0  4.198612  0
C  C135  1  0.96552437  0.67786488  0.25997389  1  1.531708  0  0.19951  0.577778  0  4.198756  0
C  C136  1  0.19431858  0.76586017  0.73151773  1  -0.150522  0  -0.085393  -0.089453  0  3.971484  0
C  C137  1  0.80569689  0.23413737  0.26847672  1  -0.150197  0  -0.085401  -0.089253  0  3.971371  0
C  C138  1  0.28671937  0.27538580  0.94010572  1  -0.029602  0  -0.005835  0.034194  0  4.032571  0
C  C139  1  0.71328191  0.72461097  0.05989448  1  -0.029556  0  -0.005808  0.034279  0  4.032471  0
C  C140  1  0.22353305  0.86025870  0.71284915  1  0.0254  0  -0.094441  -0.133745  0  3.96437  0
C  C141  1  0.77648452  0.13974345  0.28714570  1  0.025504  0  -0.094483  -0.133818  0  3.964643  0
C  C142  1  0.97860749  0.85510380  0.76507825  1  -0.128513  0  -0.091715  -0.100793  0  3.991484  0
C  C143  1  0.02140707  0.14489375  0.23491585  1  -0.129011  0  -0.091621  -0.100793  0  3.991635  0
C  C144  1  0.05693701  0.34308691  0.01887389  1  0.005798  0  -0.002719  0.041737  0  4.000785  0
C  C145  1  0.94306634  0.65691451  0.98112443  1  0.005778  0  -0.002785  0.041595  0  4.000689  0
C  C146  1  0.34223912  0.05839123  0.14561479  1  -0.051006  0  -0.092721  -0.104138  0  4.008081  0
C  C147  1  0.65776747  0.94161407  0.85438120  1  -0.051004  0  -0.092743  -0.104204  0  4.008043  0
C  C148  1  0.08457128  0.13984288  0.72524347  1  -0.045383  0  -0.080556  -0.130385  0  3.914311  0
C  C149  1  0.91542638  0.86015933  0.27475579  1  -0.044862  0  -0.080536  -0.130382  0  3.914053  0
C  C150  1  0.16964735  0.28432663  0.04608235  1  0.013543  0  -0.08439  -0.122483  0  3.96538  0
C  C151  1  0.83035421  0.71567476  0.95391844  1  0.013277  0  -0.084387  -0.122519  0  3.965489  0
C  C152  1  0.28488661  0.33213311  0.81018880  1  0.514181  0  0.070205  0.126667  0  3.907736  0
C  C153  1  0.71511169  0.66786445  0.18981113  1  0.514133  0  0.070266  0.126789  0  3.907617  0
C  C154  1  0.84778705  0.45767610  0.96015796  1  0.472716  0  0.051333  0.100421  0  3.967055  0
C  C155  1  0.15221326  0.54232914  0.03984463  1  0.472823  0  0.051313  0.100367  0  3.967113  0
C  C156  1  0.73695565  0.24655781  0.00212716  1  0.45384  0  0.121978  0.128992  0  3.95302  0
C  C157  1  0.26304475  0.75343892  0.99787541  1  0.453933  0  0.121907  0.128993  0  3.952825  0
C  C158  1  0.83571471  0.43533774  0.02684344  1  -0.03795  0  -0.088261  -0.139493  0  4.000537  0
C  C159  1  0.16428933  0.56466440  0.97315787  1  -0.037757  0  -0.088248  -0.139602  0  4.000687  0
C  C160  1  0.86723490  0.18795042  0.98993570  1  0.492471  0  0.119073  0.121668  0  3.969384  0
C  C161  1  0.13276679  0.81204786  0.01006603  1  0.492681  0  0.119027  0.121583  0  3.969343  0
C  C162  1  0.94070521  0.37813409  0.05628873  1  -0.012149  0  -0.058647  -0.057573  0  3.896332  0
C  C163  1  0.05930011  0.62186418  0.94371261  1  -0.012334  0  -0.058587  -0.057261  0  3.896242  0
C  C164  1  0.86661189  0.00292957  0.45837736  1  0.481892  0  0.119278  0.119413  0  3.976962  0
C  C165  1  0.13338198  0.99707039  0.54161949  1  0.481563  0  0.119307  0.119434  0  3.97698  0
C  C166  1  0.11777135  0.08514754  0.96578411  1  -0.043282  0  -0.079994  -0.125869  0  3.979313  0
C  C167  1  0.88222364  0.91484918  0.03422132  1  -0.042613  0  -0.079999  -0.125814  0  3.979232  0
C  C168  1  0.27989920  0.25189439  0.00789828  1  -0.024954  0  -0.086793  -0.129796  0  4.003242  0
C  C169  1  0.72010687  0.74810702  0.99209975  1  -0.024742  0  -0.086797  -0.129769  0  4.003258  0
C  C170  1  0.94985352  0.90762079  0.44493912  1  0.003079  0  -0.001008  0.042584  0  4.013586  0
C  C171  1  0.05013516  0.09237842  0.55505749  1  0.002089  0  -0.000913  0.042801  0  4.013515  0
C  C172  1  0.10761910  0.99547021  0.38752678  1  0.080181  0  -0.082726  -0.114278  0  3.984766  0
C  C173  1  0.89237551  0.00452743  0.61246898  1  0.080628  0  -0.082662  -0.114248  0  3.984886  0
C  C174  1  0.04320152  0.14029334  0.91708122  1  0.540427  0  0.058754  0.110902  0  3.933935  0
C  C175  1  0.95680120  0.85970182  0.08292135  1  0.540697  0  0.058787  0.110751  0  3.934152  0
C  C176  1  0.67975656  0.24803562  0.06607213  1  0.012161  0  -0.000926  0.044594  0  4.010422  0
C  C177  1  0.32024212  0.75195804  0.93392929  1  0.012487  0  -0.000883  0.044707  0  4.010142  0
C  C178  1  0.90392225  0.09812303  0.43346029  1  0.484514  0  0.118774  0.122477  0  3.969807  0
C  C179  1  0.09607784  0.90187454  0.56653809  1  0.485233  0  0.118802  0.122533  0  3.969953  0
C  C180  1  0.39872845  0.24225027  0.89913811  1  -0.063461  0  -0.06534  -0.083418  0  3.916661  0
C  C181  1  0.60127422  0.75774496  0.10086036  1  -0.063068  0  -0.065391  -0.083495  0  3.916711  0
C  C182  1  0.87221266  0.13315001  0.10582188  1  -0.001327  0  -0.079526  -0.109735  0  3.967117  0
C  C183  1  0.12778513  0.86684365  0.89418010  1  -0.000869  0  -0.079426  -0.109466  0  3.96689  0
C  C184  1  0.90673090  0.81790793  0.46797783  1  0.019936  0  -0.060331  -0.07562  0  3.938518  0
C  C185  1  0.09325805  0.18209048  0.53202024  1  0.020472  0  -0.060351  -0.075779  0  3.938674  0
C  C186  1  0.71353239  0.92226981  0.51480581  1  0.505702  0  0.061658  0.116793  0  3.899984  0
C  C187  1  0.28645720  0.07773484  0.48518939  1  0.506734  0  0.061697  0.117013  0  3.899824  0
C  C188  1  0.02501700  0.09359907  0.39789891  1  0.004791  0  0.001429  0.045991  0  3.996367  0
C  C189  1  0.97498021  0.90639622  0.60209786  1  0.004443  0  0.001381  0.045978  0  3.996338  0
C  C190  1  0.85309393  0.27762201  0.41866964  1  0.511845  0  0.062881  0.112713  0  3.949121  0
C  C191  1  0.14691890  0.72237544  0.58133194  1  0.51094  0  0.063162  0.11299  0  3.949104  0
C  C192  1  0.05715997  0.18814765  0.37307172  1  -0.026493  0  -0.057152  -0.061544  0  3.911142  0
C  C193  1  0.94284345  0.81184527  0.62692522  1  -0.026055  0  -0.057133  -0.061439  0  3.911224  0
C  C194  1  0.74913249  0.18827760  0.11744141  1  -0.042521  0  -0.080872  -0.115636  0  3.961829  0
C  C195  1  0.25086232  0.81171685  0.88256122  1  -0.043036  0  -0.080888  -0.115845  0  3.961977  0
C  C196  1  0.78842708  0.82518023  0.50255917  1  -0.01528  0  -0.077586  -0.119794  0  3.970959  0
C  C197  1  0.21155894  0.17482438  0.49744006  1  -0.015846  0  -0.077579  -0.119732  0  3.970823  0
C  C198  1  0.93488351  0.13322518  0.04220649  1  -0.042267  0  -0.001675  0.035298  0  4.016443  0
C  C199  1  0.06511171  0.86677079  0.95779721  1  -0.042557  0  -0.001728  0.035115  0  4.016496  0
C  C200  1  0.39784660  0.27120246  0.83403695  1  0.069179  0  -0.073037  -0.110557  0  3.93977  0
C  C201  1  0.60215152  0.72879281  0.16596063  1  0.069379  0  -0.073138  -0.110787  0  3.939748  0
C  C202  1  0.97085443  0.28062130  0.38314561  1  -0.021954  0  -0.076363  -0.122232  0  3.966621  0
C  C203  1  0.02915576  0.71937311  0.61685309  1  -0.022134  0  -0.076519  -0.122496  0  3.966839  0
C  C204  1  0.07148501  0.90612958  0.40938384  1  -0.175737  0  -0.080626  -0.113791  0  3.963317  0
C  C205  1  0.92850458  0.09386417  0.59061582  1  -0.175236  0  -0.080741  -0.114029  0  3.963659  0
C  C206  1  0.06370615  0.08088422  0.02847186  1  -0.028221  0  -0.05959  -0.065455  0  3.897697  0
C  C207  1  0.93629049  0.91911019  0.97153194  1  -0.029013  0  -0.059545  -0.065406  0  3.897586  0
C  C208  1  0.49463650  0.36954930  0.02402117  1  -0.101629  0  -0.088818  -0.138359  0  4.011075  0
C  C209  1  0.50536454  0.63044823  0.97597984  1  -0.101764  0  -0.088739  -0.138266  0  4.011086  0
C  C210  1  0.55571089  0.31246686  0.07583042  1  -0.024547  0  -0.063872  -0.074163  0  3.916398  0
C  C211  1  0.44429042  0.68752986  0.92417251  1  -0.024724  0  -0.063998  -0.074326  0  3.916281  0
C  C212  1  0.55726113  0.36140386  0.96253256  1  0.538177  0  0.055989  0.099033  0  3.965371  0
C  C213  1  0.44274158  0.63859133  0.03746864  1  0.538187  0  0.055926  0.099004  0  3.965566  0
C  C214  1  0.28822803  0.89026174  0.16581050  1  1.524868  0  0.185547  0.544821  0  4.262915  0
C  C215  1  0.71177065  0.10974284  0.83418555  1  1.525107  0  0.185557  0.544775  0  4.262827  0
C  C216  1  0.32722966  0.96735995  0.18836652  1  -0.006803  0  -0.022495  -0.033517  0  3.98539  0
C  C217  1  0.67276811  0.03264463  0.81162962  1  0.020651  0  -0.022464  -0.033399  0  3.985529  0
N  N218  1  0.75223558  0.00778229  0.49335461  1  -1.237789  0  -0.32401  -0.270602  0  3.518329  0
N  N219  1  0.24775570  0.99222000  0.50664214  1  -1.238674  0  -0.32399  -0.270736  0  3.518215  0
N  N220  1  0.82147017  0.18934616  0.44364525  1  -1.250797  0  -0.323474  -0.276202  0  3.532369  0
N  N221  1  0.17853696  0.81065210  0.55635590  1  -1.250911  0  -0.3236  -0.276432  0  3.532561  0
N  N222  1  0.67420904  0.30185589  0.95218144  1  -1.217909  0  -0.317103  -0.262023  0  3.520566  0
N  N223  1  0.32579512  0.69814316  0.04781990  1  -1.217946  0  -0.317023  -0.261984  0  3.520417  0
N  N224  1  0.92182866  0.18972574  0.92888567  1  -1.236698  0  -0.316974  -0.264516  0  3.491628  0
N  N225  1  0.07817137  0.81027485  0.07111724  1  -1.23682  0  -0.316982  -0.264445  0  3.491641  0
N  N226  1  0.95607132  0.42602766  0.92397211  1  -1.227784  0  -0.320251  -0.261164  0  3.496678  0
N  N227  1  0.04392988  0.57397760  0.07602901  1  -1.227902  0  -0.320213  -0.261149  0  3.496628  0
N  N228  1  0.17784139  0.36196368  0.84780135  1  -1.2207  0  -0.31494  -0.263897  0  3.483473  0
N  N229  1  0.82215846  0.63803464  0.15219875  1  -1.220787  0  -0.314939  -0.263945  0  3.4835  0
O  O230  1  0.50538590  0.09597167  0.58674889  1  -1.159822  0  -0.327352  -0.542398  0  2.188259  0
O  O231  1  0.49460791  0.90405856  0.41324178  1  -1.160209  0  -0.327214  -0.542257  0  2.188374  0
O  O232  1  0.42119136  0.26912190  0.57171395  1  -1.17616  0  -0.338078  -0.576005  0  2.150313  0
O  O233  1  0.57878888  0.73090588  0.42829085  1  -1.175834  0  -0.338174  -0.576062  0  2.149703  0
O  O234  1  0.04087053  0.41439526  0.71604628  1  -1.139437  0  -0.329107  -0.53505  0  2.152234  0
O  O235  1  0.95911465  0.58560380  0.28396210  1  -1.138484  0  -0.329039  -0.535067  0  2.152187  0
O  O236  1  0.97423326  0.29683080  0.79521394  1  -1.202839  0  -0.344069  -0.600843  0  2.382344  0
O  O237  1  0.02576459  0.70316277  0.20479396  1  -1.203035  0  -0.344102  -0.600835  0  2.382516  0
O  O238  1  0.93095677  0.65693267  0.80668681  1  -1.171134  0  -0.34292  -0.573946  0  2.188694  0
O  O239  1  0.06906482  0.34306556  0.19331006  1  -1.17047  0  -0.342918  -0.573874  0  2.188932  0
O  O240  1  0.12433316  0.58066212  0.76284891  1  -1.150887  0  -0.335574  -0.548282  0  2.164501  0
O  O241  1  0.87568291  0.41933625  0.23714125  1  -1.150565  0  -0.335546  -0.548224  0  2.164544  0
O  O242  1  0.52458939  0.16251701  0.42302476  1  -1.162905  0  -0.337124  -0.558283  0  2.236327  0
O  O243  1  0.47541176  0.83747196  0.57697896  1  -1.162646  0  -0.337138  -0.558405  0  2.236374  0
O  O244  1  0.53887887  0.32553860  0.40675364  1  -1.160783  0  -0.343379  -0.561777  0  2.090042  0
O  O245  1  0.46111983  0.67444959  0.59325138  1  -1.160818  0  -0.343487  -0.56189  0  2.089752  0
O  O246  1  0.36093286  0.57787214  0.20610834  1  -1.148806  0  -0.325429  -0.530074  0  2.145811  0
O  O247  1  0.63905234  0.42212690  0.79390141  1  -1.148837  0  -0.325577  -0.530254  0  2.145439  0
O  O248  1  0.23340597  0.52470019  0.16485154  1  -1.183854  0  -0.343185  -0.601553  0  2.351834  0
O  O249  1  0.76658991  0.47529654  0.83515288  1  -1.183623  0  -0.343117  -0.601518  0  2.351708  0
O  O250  1  0.29769179  0.89505584  0.10670787  1  -1.170269  0  -0.347347  -0.586241  0  2.132741  0
O  O251  1  0.70230764  0.10494642  0.89328756  1  -1.170108  0  -0.347364  -0.586205  0  2.132573  0
O  O252  1  0.24468276  0.82246561  0.20890324  1  -1.150047  0  -0.339532  -0.5512  0  2.194541  0
O  O253  1  0.75531813  0.17754049  0.79109324  1  -1.150319  0  -0.339495  -0.551182  0  2.194609  0
O  O254  1  0.64860203  0.28207640  0.57169074  1  -1.207494  0  -0.581933  -0.753533  0  1.968794  0
O  O255  1  0.35138552  0.71793196  0.42831591  1  -1.207611  0  -0.581957  -0.753433  0  1.969011  0
