# generated using pymatgen
data_AlH27(C5O)9
_symmetry_space_group_name_H-M   'P 1'
_cell_length_a   3.96818786
_cell_length_b   23.52258514
_cell_length_c   23.52724251
_cell_angle_alpha   60.02267277
_cell_angle_beta   87.24099345
_cell_angle_gamma   86.94417649
_symmetry_Int_Tables_number   1
_chemical_formula_structural   AlH27(C5O)9
_chemical_formula_sum   'Al1 H27 C45 O9'
_cell_volume   1899.00430947
_cell_formula_units_Z   1
loop_
 _symmetry_equiv_pos_site_id
 _symmetry_equiv_pos_as_xyz
  1  'x, y, z'
loop_
 _atom_site_type_symbol
 _atom_site_label
 _atom_site_symmetry_multiplicity
 _atom_site_fract_x
 _atom_site_fract_y
 _atom_site_fract_z
 _atom_site_occupancy
 _atom_site_pbe_bader_charge
 _atom_site_pbe_bader_spin_density
 _atom_site_pbe_cm5_charge
 _atom_site_pbe_ddec_charge
 _atom_site_pbe_ddec_spin_density
 _atom_site_pbe_ddec_sum_bond_order
 _atom_site_pbe_magmom
Al  Al0  1  0.00039696  0.49964827  0.50011858  1  2.50399  0  0.425607  1.59535  0  2.569326  0
H  H1  1  0.48625620  0.31811570  0.68100466  1  0.06746  0  0.108366  0.110821  0  0.979414  0
H  H2  1  0.46938886  0.25635857  0.80221590  1  0.031528  0  0.105378  0.106868  0  1.009986  0
H  H3  1  0.85185071  0.16650142  0.01315325  1  0.084102  0  0.106809  0.125906  0  0.991344  0
H  H4  1  0.43280363  0.68297775  0.31758228  1  0.053571  0  0.108261  0.108815  0  0.981521  0
H  H5  1  0.48536763  0.80358548  0.25724917  1  0.043584  0  0.101934  0.100739  0  1.004255  0
H  H6  1  0.22792362  0.89692332  0.22754061  1  0.04006  0  0.097803  0.095247  0  1.011215  0
H  H7  1  0.23701219  0.01692778  0.16562435  1  0.063673  0  0.098028  0.102687  0  1.011009  0
H  H8  1  0.52608776  0.10627908  0.10477400  1  0.06191  0  0.098917  0.096572  0  1.0278  0
H  H9  1  0.51225635  0.68009291  0.50059259  1  0.068068  0  0.108509  0.111029  0  0.980571  0
H  H10  1  0.49240797  0.80114187  0.44189351  1  0.053514  0  0.105965  0.108671  0  1.010929  0
H  H11  1  0.83132013  0.01245336  0.31690232  1  0.054816  0  0.107245  0.125691  0  0.993167  0
H  H12  1  0.51112704  0.31733211  0.49929866  1  0.098158  0  0.108334  0.109371  0  0.981043  0
H  H13  1  0.55826412  0.25724334  0.43766939  1  0.107388  0  0.101762  0.099814  0  1.004095  0
H  H14  1  0.26088859  0.23078187  0.37849492  1  0.061775  0  0.097486  0.095499  0  1.011021  0
H  H15  1  0.25235276  0.16839379  0.32055310  1  0.055444  0  0.097931  0.102596  0  1.009049  0
H  H16  1  0.54491405  0.10487626  0.28813755  1  0.021054  0  0.098899  0.096932  0  1.027672  0
H  H17  1  0.56448618  0.50084903  0.31796593  1  0.109249  0  0.108539  0.110418  0  0.980233  0
H  H18  1  0.54450950  0.44221160  0.25582708  1  0.035611  0  0.104481  0.105195  0  1.011792  0
H  H19  1  0.87214752  0.31354650  0.16496349  1  0.060666  0  0.106926  0.125168  0  0.993784  0
H  H20  1  0.46886614  0.49991080  0.68333331  1  0.03262  0  0.108427  0.109086  0  0.980871  0
H  H21  1  0.51162525  0.43812725  0.80438521  1  0.052564  0  0.102003  0.100491  0  1.002614  0
H  H22  1  0.20351082  0.37755148  0.89693358  1  0.050956  0  0.097514  0.094811  0  1.008191  0
H  H23  1  0.21658218  0.31913722  0.01756750  1  0.054552  0  0.09729  0.101431  0  1.010046  0
H  H24  1  0.54776632  0.28813159  0.10601178  1  0.029486  0  0.098852  0.096906  0  1.026009  0
H  H25  1  0.96494581  0.39907324  0.24683675  1  0.597329  0  0.311495  0.342594  0  0.940546  0
H  H26  1  0.90277783  0.24907617  0.84312723  1  0.611518  0  0.308468  0.338317  0  0.953014  0
H  H27  1  0.91041685  0.84406154  0.40182094  1  0.58174  0  0.309918  0.341229  0  0.948376  0
C  C28  1  0.48736130  0.44968598  0.60121531  1  1.630115  0  0.280162  0.662512  0  4.055231  0
C  C29  1  0.52904530  0.44882055  0.44977231  1  1.540719  0  0.278807  0.660537  0  4.05674  0
C  C30  1  0.48367996  0.60064726  0.44911232  1  1.524155  0  0.27758  0.657188  0  4.063649  0
C  C31  1  0.48820864  0.34430070  0.70831991  1  -0.098441  0  -0.084057  -0.084821  0  3.994131  0
C  C32  1  0.48758434  0.30968997  0.77665782  1  -0.044094  0  -0.10221  -0.179399  0  4.028677  0
C  C33  1  0.69756709  0.24552902  0.92032405  1  0.390733  0  0.083629  0.287001  0  4.042353  0
C  C34  1  0.70025070  0.21197874  0.98870544  1  0.039414  0  -0.10169  -0.241697  0  3.936712  0
C  C35  1  0.45632397  0.70927181  0.34436652  1  -0.111119  0  -0.078153  -0.08131  0  3.974333  0
C  C36  1  0.48113172  0.77715444  0.31075094  1  0.069679  0  -0.089843  -0.129291  0  3.974651  0
C  C37  1  0.36986743  0.92215664  0.24639021  1  -0.00142  0  -0.093628  -0.104823  0  4.03794  0
C  C38  1  0.37390407  0.99016698  0.21122039  1  -0.059737  0  -0.104354  -0.160426  0  4.023486  0
C  C39  1  0.48186935  0.41295293  0.67431984  1  -0.046683  0  -0.007844  -0.029335  0  3.959802  0
C  C40  1  0.50159972  0.34234666  0.81308255  1  -0.006396  0  -0.007956  0.084262  0  4.014528  0
C  C41  1  0.51736554  0.30629190  0.88532050  1  0.056301  0  -0.031522  -0.085057  0  4.018049  0
C  C42  1  0.53169562  0.23779591  0.02481013  1  0.042389  0  -0.004956  0.09054  0  4.023963  0
C  C43  1  0.53610884  0.20128714  0.09723917  1  -0.096431  0  -0.006216  0.080709  0  4.017651  0
C  C44  1  0.53184342  0.13253802  0.13195509  1  0.023043  0  -0.086908  -0.173169  0  3.926882  0
C  C45  1  0.50138715  0.70753481  0.44718883  1  -0.073556  0  -0.082298  -0.080352  0  3.992167  0
C  C46  1  0.50105792  0.77585019  0.41358231  1  0.05634  0  -0.103932  -0.182504  0  4.026424  0
C  C47  1  0.68898590  0.91991953  0.33186681  1  0.390092  0  0.083474  0.287352  0  4.037201  0
C  C48  1  0.68809794  0.98831286  0.29710932  1  0.067843  0  -0.100711  -0.239292  0  3.934614  0
C  C49  1  0.52863136  0.34423467  0.44580653  1  -0.146988  0  -0.078629  -0.083302  0  3.978073  0
C  C50  1  0.55011381  0.31077927  0.41097044  1  0.07464  0  -0.090131  -0.128303  0  3.977447  0
C  C51  1  0.40350574  0.24807812  0.33232361  1  -0.019517  0  -0.094824  -0.107959  0  4.042489  0
C  C52  1  0.39854395  0.21262854  0.29978111  1  0.000767  0  -0.104484  -0.159214  0  4.023166  0
C  C53  1  0.47807123  0.67360906  0.41287465  1  0.077229  0  -0.009345  -0.032147  0  3.960519  0
C  C54  1  0.50407049  0.81249942  0.34422985  1  -0.113726  0  -0.007212  0.084671  0  4.012672  0
C  C55  1  0.52278829  0.88467722  0.30777987  1  -0.02504  0  -0.031913  -0.088147  0  4.017095  0
C  C56  1  0.53129647  0.02461912  0.23664970  1  -0.016089  0  -0.004717  0.09251  0  4.017595  0
C  C57  1  0.53471593  0.09705753  0.20069421  1  0.017326  0  -0.006638  0.078758  0  4.016836  0
C  C58  1  0.54267543  0.13180576  0.23466378  1  -0.008391  0  -0.087134  -0.17231  0  3.923745  0
C  C59  1  0.55975688  0.44737330  0.34402146  1  -0.112491  0  -0.082178  -0.080536  0  3.990965  0
C  C60  1  0.55803053  0.41380700  0.30923250  1  -0.148042  0  -0.102548  -0.177143  0  4.025252  0
C  C61  1  0.73796256  0.33023692  0.24434275  1  0.408878  0  0.082487  0.286333  0  4.043968  0
C  C62  1  0.72841840  0.29523131  0.21106121  1  0.032894  0  -0.100378  -0.237533  0  3.93299  0
C  C63  1  0.47670027  0.44635489  0.70971649  1  0.083965  0  -0.079271  -0.085254  0  3.978746  0
C  C64  1  0.49623241  0.41149864  0.77774116  1  -0.094957  0  -0.088828  -0.126838  0  3.975177  0
C  C65  1  0.35316429  0.33186015  0.92251544  1  -0.07456  0  -0.093058  -0.104081  0  4.037136  0
C  C66  1  0.35972179  0.29901276  0.99056133  1  0.001058  0  -0.105132  -0.16062  0  4.024331  0
C  C67  1  0.54146477  0.41287620  0.41260412  1  0.104149  0  -0.008637  -0.031883  0  3.96068  0
C  C68  1  0.56199203  0.34450523  0.34176372  1  -0.046777  0  -0.00863  0.082832  0  4.016429  0
C  C69  1  0.56916234  0.30792945  0.30586479  1  0.016248  0  -0.03309  -0.090448  0  4.024662  0
C  C70  1  0.55902032  0.23635429  0.23778115  1  -0.039045  0  -0.004493  0.090195  0  4.020448  0
C  C71  1  0.54837769  0.20050164  0.20132010  1  -0.050184  0  -0.006102  0.080801  0  4.018304  0
C  C72  1  0.54421831  0.23462741  0.13255512  1  0.029742  0  -0.086632  -0.174404  0  3.926681  0
O  O73  1  0.26096726  0.57188598  0.43608438  1  -1.254806  0  -0.238397  -0.597914  0  2.348154  0
O  O74  1  0.24744248  0.49145675  0.57243716  1  -1.257789  0  -0.238088  -0.596448  0  2.344685  0
O  O75  1  0.28923096  0.43591605  0.49222910  1  -1.248276  0  -0.239442  -0.601793  0  2.352925  0
O  O76  1  0.71402651  0.57149516  0.49132771  1  -1.256878  0  -0.238491  -0.601604  0  2.36131  0
O  O77  1  0.75688731  0.49022377  0.43671499  1  -1.261365  0  -0.237152  -0.597157  0  2.349441  0
O  O78  1  0.73420555  0.43656636  0.57233658  1  -1.254194  0  -0.23793  -0.598623  0  2.352973  0
O  O79  1  0.92622444  0.38543531  0.21474276  1  -1.133391  0  -0.361521  -0.451928  0  2.276889  0
O  O80  1  0.88630888  0.21728023  0.89005691  1  -1.148091  0  -0.363223  -0.453177  0  2.279305  0
O  O81  1  0.86744666  0.89027089  0.38862009  1  -1.115631  0  -0.362763  -0.454209  0  2.283632  0
