# generated using pymatgen
data_LiH7C4N2O5
_symmetry_space_group_name_H-M   'P 1'
_cell_length_a   6.33402354
_cell_length_b   7.13332356
_cell_length_c   16.54235647
_cell_angle_alpha   89.99973816
_cell_angle_beta   89.99960215
_cell_angle_gamma   107.26072522
_symmetry_Int_Tables_number   1
_chemical_formula_structural   LiH7C4N2O5
_chemical_formula_sum   'Li4 H28 C16 N8 O20'
_cell_volume   713.76650195
_cell_formula_units_Z   4
loop_
 _symmetry_equiv_pos_site_id
 _symmetry_equiv_pos_as_xyz
  1  'x, y, z'
loop_
 _atom_site_type_symbol
 _atom_site_label
 _atom_site_symmetry_multiplicity
 _atom_site_fract_x
 _atom_site_fract_y
 _atom_site_fract_z
 _atom_site_occupancy
 _atom_site_hle17_bader_spin_density
 _atom_site_hle17_ddec_charge
 _atom_site_hle17_ddec_spin_density
 _atom_site_hle17_ddec_sum_bond_order
 _atom_site_hle17_magmom
 _atom_site_hse06_10hf_bader_spin_density
 _atom_site_hse06_10hf_ddec_charge
 _atom_site_hse06_10hf_ddec_spin_density
 _atom_site_hse06_10hf_ddec_sum_bond_order
 _atom_site_hse06_10hf_magmom
 _atom_site_hse06_bader_spin_density
 _atom_site_hse06_ddec_charge
 _atom_site_hse06_ddec_spin_density
 _atom_site_hse06_ddec_sum_bond_order
 _atom_site_hse06_magmom
 _atom_site_pbe_bader_spin_density
 _atom_site_pbe_cm5_charge
 _atom_site_pbe_ddec_charge
 _atom_site_pbe_ddec_spin_density
 _atom_site_pbe_ddec_sum_bond_order
 _atom_site_pbe_magmom
Li  Li0  1  0.26551076  0.48571125  0.58034694  1  0  0.843364  0  0.416791  0  0  0.801715  0  0.523912  0  0  0.810995  0  0.507399  0  0  0.510699  0.795027  0  0.535709  0
Li  Li1  1  0.73449750  0.01428452  0.08034730  1  0  0.843358  0  0.416808  0  0  0.801718  0  0.523933  0  0  0.810994  0  0.507422  0  0  0.510742  0.795029  0  0.535729  0
Li  Li2  1  0.73449273  0.51428984  0.41965274  1  0  0.843348  0  0.416805  0  0  0.801715  0  0.523909  0  0  0.810991  0  0.507401  0  0  0.510725  0.795028  0  0.535705  0
Li  Li3  1  0.26550598  0.98571657  0.91965299  1  0  0.843344  0  0.416815  0  0  0.801723  0  0.523916  0  0  0.810997  0  0.507407  0  0  0.510739  0.795033  0  0.535712  0
H  H4  1  0.21438867  0.97870674  0.76198810  1  0  0.336223  0  0.898592  0  0  0.312563  0  0.965843  0  0  0.323381  0  0.955982  0  0  0.318722  0.304929  0  0.972864  0
H  H5  1  0.78561656  0.52129194  0.26198770  1  0  0.336283  0  0.898476  0  0  0.312552  0  0.965828  0  0  0.323368  0  0.955974  0  0  0.318742  0.304915  0  0.972852  0
H  H6  1  0.78561216  0.02129583  0.23801158  1  0  0.336228  0  0.898604  0  0  0.312589  0  0.965822  0  0  0.323408  0  0.955961  0  0  0.318736  0.304953  0  0.972848  0
H  H7  1  0.21438435  0.47870622  0.73801198  1  0  0.336288  0  0.898494  0  0  0.312559  0  0.965842  0  0  0.323376  0  0.955988  0  0  0.318744  0.304929  0  0.972861  0
H  H8  1  0.76088198  0.75048820  0.58257423  1  0  0.33707  0  0.902707  0  0  0.31543  0  0.965955  0  0  0.325629  0  0.956983  0  0  0.318501  0.308256  0  0.972293  0
H  H9  1  0.23912541  0.74951197  0.08257301  1  0  0.337124  0  0.902688  0  0  0.315478  0  0.965953  0  0  0.325674  0  0.956988  0  0  0.318544  0.308304  0  0.972287  0
H  H10  1  0.23911470  0.24951145  0.41742605  1  0  0.337082  0  0.902688  0  0  0.315427  0  0.96598  0  0  0.325624  0  0.95701  0  0  0.318494  0.308254  0  0.972316  0
H  H11  1  0.76087177  0.25048915  0.91742607  1  0  0.337086  0  0.902675  0  0  0.315434  0  0.965957  0  0  0.325631  0  0.956991  0  0  0.318525  0.308259  0  0.972292  0
H  H12  1  0.56468058  0.65411972  0.82849481  1  0  0.163782  0  0.946445  0  0  0.170873  0  1.008037  0  0  0.176479  0  1.005573  0  0  0.113267  0.166882  0  1.009986  0
H  H13  1  0.43532093  0.84588083  0.32849891  1  0  0.163769  0  0.946383  0  0  0.170861  0  1.007983  0  0  0.176466  0  1.005519  0  0  0.11325  0.166872  0  1.009932  0
H  H14  1  0.43532183  0.34588284  0.17150668  1  0  0.163799  0  0.946433  0  0  0.170886  0  1.008025  0  0  0.176494  0  1.005562  0  0  0.113264  0.166896  0  1.009973  0
H  H15  1  0.56467990  0.15412175  0.67150016  1  0  0.16382  0  0.946326  0  0  0.170915  0  1.007925  0  0  0.17652  0  1.00546  0  0  0.113259  0.166924  0  1.009876  0
H  H16  1  0.47289612  0.26490856  0.51396699  1  0  0.431093  0  0.874726  0  0  0.401668  0  0.935139  0  0  0.412465  0  0.919314  0  0  0.298931  0.394058  0  0.946276  0
H  H17  1  0.52710110  0.23508838  0.01396684  1  0  0.431103  0  0.874703  0  0  0.401686  0  0.935103  0  0  0.412483  0  0.919277  0  0  0.298945  0.394075  0  0.94624  0
H  H18  1  0.52710371  0.73509108  0.48603269  1  0  0.431084  0  0.874741  0  0  0.401655  0  0.935161  0  0  0.412452  0  0.919336  0  0  0.298932  0.394045  0  0.946299  0
H  H19  1  0.47289930  0.76490831  0.98603223  1  0  0.431065  0  0.874754  0  0  0.401646  0  0.935158  0  0  0.412443  0  0.919332  0  0  0.298932  0.394035  0  0.946296  0
H  H20  1  0.24031390  0.14835956  0.55278353  1  0  0.431595  0  0.869597  0  0  0.399119  0  0.935699  0  0  0.409196  0  0.920767  0  0  0.300853  0.392028  0  0.946197  0
H  H21  1  0.75968462  0.35162936  0.05278192  1  0  0.431663  0  0.869505  0  0  0.399183  0  0.93561  0  0  0.40926  0  0.920679  0  0  0.300872  0.392092  0  0.946109  0
H  H22  1  0.75968593  0.85164007  0.44721675  1  0  0.431592  0  0.869597  0  0  0.399119  0  0.935694  0  0  0.409195  0  0.920763  0  0  0.300855  0.392027  0  0.946192  0
H  H23  1  0.24031421  0.64836734  0.94721776  1  0  0.431646  0  0.869517  0  0  0.399172  0  0.935614  0  0  0.40925  0  0.920682  0  0  0.300891  0.392081  0  0.946113  0
H  H24  1  0.22320392  0.79770797  0.54045635  1  0  0.430109  0  0.871625  0  0  0.397216  0  0.937553  0  0  0.407618  0  0.922227  0  0  0.30103  0.389888  0  0.948346  0
H  H25  1  0.77680139  0.70228850  0.04045500  1  0  0.430072  0  0.871667  0  0  0.39718  0  0.937599  0  0  0.407581  0  0.922276  0  0  0.30103  0.389852  0  0.948391  0
H  H26  1  0.77679484  0.20229314  0.45954393  1  0  0.430112  0  0.871618  0  0  0.397217  0  0.937548  0  0  0.407618  0  0.922224  0  0  0.301025  0.38989  0  0.94834  0
H  H27  1  0.22319744  0.29770820  0.95954467  1  0  0.430055  0  0.871694  0  0  0.397167  0  0.937615  0  0  0.407568  0  0.922291  0  0  0.301024  0.389839  0  0.948407  0
H  H28  1  0.17921471  0.68134768  0.45484720  1  0  0.435745  0  0.868721  0  0  0.404446  0  0.931274  0  0  0.415806  0  0.914848  0  0  0.301045  0.396454  0  0.942809  0
H  H29  1  0.82078754  0.81864781  0.95484752  1  0  0.435758  0  0.868698  0  0  0.404454  0  0.931263  0  0  0.415816  0  0.914834  0  0  0.301046  0.396461  0  0.942799  0
H  H30  1  0.82078670  0.31865194  0.54515247  1  0  0.435778  0  0.868683  0  0  0.404507  0  0.9312  0  0  0.415867  0  0.914773  0  0  0.301058  0.396514  0  0.942737  0
H  H31  1  0.17921494  0.18135033  0.04515336  1  0  0.435739  0  0.868725  0  0  0.404431  0  0.931293  0  0  0.415792  0  0.914867  0  0  0.301042  0.396438  0  0.942829  0
C  C32  1  0.00896830  0.87274288  0.66358472  1  0  0.769046  0  3.839832  0  0  0.693218  0  4.14634  0  0  0.729294  0  4.139552  0  0  0.357236  0.669002  0  4.150133  0
C  C33  1  0.99104921  0.62725882  0.16358779  1  0  0.769118  0  3.839792  0  0  0.693391  0  4.146181  0  0  0.729465  0  4.139388  0  0  0.357278  0.669169  0  4.149978  0
C  C34  1  0.99103361  0.12725821  0.33641677  1  0  0.768942  0  3.84  0  0  0.693266  0  4.146325  0  0  0.729341  0  4.139536  0  0  0.357222  0.669045  0  4.150125  0
C  C35  1  0.00895012  0.37273935  0.83641188  1  0  0.769049  0  3.839885  0  0  0.693389  0  4.146184  0  0  0.729462  0  4.139393  0  0  0.357281  0.669176  0  4.149972  0
C  C36  1  0.63160319  0.68532320  0.70051474  1  0  0.637809  0  3.873586  0  0  0.594931  0  4.159571  0  0  0.626085  0  4.16091  0  0  0.222601  0.574092  0  4.157991  0
C  C37  1  0.36839869  0.81468093  0.20051787  1  0  0.637766  0  3.873603  0  0  0.594854  0  4.159645  0  0  0.626004  0  4.160992  0  0  0.222577  0.574012  0  4.158066  0
C  C38  1  0.36839972  0.31468083  0.29948615  1  0  0.637827  0  3.873385  0  0  0.594885  0  4.159518  0  0  0.626034  0  4.160868  0  0  0.222568  0.574045  0  4.157938  0
C  C39  1  0.63159734  0.18532608  0.79948180  1  0  0.637776  0  3.873754  0  0  0.594878  0  4.159777  0  0  0.626034  0  4.161112  0  0  0.222516  0.574036  0  4.158198  0
C  C40  1  0.68844947  0.71588383  0.78259363  1  0  -0.506327  0  3.679619  0  0  -0.532964  0  3.956412  0  0  -0.557668  0  3.972637  0  0  -0.150474  -0.516705  0  3.945399  0
C  C41  1  0.31155463  0.78412188  0.28259395  1  0  -0.506387  0  3.679716  0  0  -0.532997  0  3.956525  0  0  -0.55769  0  3.972734  0  0  -0.150504  -0.516738  0  3.94552  0
C  C42  1  0.31154879  0.28411582  0.21740726  1  0  -0.506414  0  3.679632  0  0  -0.533006  0  3.956469  0  0  -0.557712  0  3.972701  0  0  -0.150492  -0.516743  0  3.945456  0
C  C43  1  0.68844098  0.21587926  0.71740633  1  0  -0.506503  0  3.67973  0  0  -0.533118  0  3.956542  0  0  -0.557816  0  3.972755  0  0  -0.150534  -0.51686  0  3.945537  0
C  C44  1  0.90188541  0.82567414  0.80518675  1  0  0.622611  0  3.882992  0  0  0.575094  0  4.176285  0  0  0.60527  0  4.179373  0  0  0.214719  0.554981  0  4.173412  0
C  C45  1  0.09811400  0.67432827  0.30518424  1  0  0.622696  0  3.882857  0  0  0.575172  0  4.176167  0  0  0.605347  0  4.179255  0  0  0.214819  0.555054  0  4.173304  0
C  C46  1  0.09811657  0.17432254  0.19481414  1  0  0.622617  0  3.882979  0  0  0.575072  0  4.176306  0  0  0.605248  0  4.179396  0  0  0.214726  0.554955  0  4.173439  0
C  C47  1  0.90188690  0.32566988  0.69481665  1  0  0.622889  0  3.882743  0  0  0.575362  0  4.176058  0  0  0.605538  0  4.179141  0  0  0.214941  0.555251  0  4.17319  0
N  N48  1  0.05505897  0.89986570  0.74372618  1  0  -0.53728  0  3.261469  0  0  -0.474432  0  3.505581  0  0  -0.499844  0  3.50701  0  0  -0.384125  -0.457382  0  3.504245  0
N  N49  1  0.94494826  0.60013327  0.24372399  1  0  -0.537259  0  3.261504  0  0  -0.474406  0  3.505673  0  0  -0.499816  0  3.5071  0  0  -0.38409  -0.457352  0  3.504343  0
N  N50  1  0.94494136  0.10013541  0.25627471  1  0  -0.537282  0  3.261464  0  0  -0.474488  0  3.505528  0  0  -0.4999  0  3.506956  0  0  -0.384118  -0.457433  0  3.504202  0
N  N51  1  0.05505164  0.39986195  0.75627569  1  0  -0.53725  0  3.261587  0  0  -0.474436  0  3.505761  0  0  -0.499846  0  3.507187  0  0  -0.384105  -0.457394  0  3.504426  0
N  N52  1  0.79845028  0.76723916  0.64408293  1  0  -0.53893  0  3.245636  0  0  -0.472816  0  3.480688  0  0  -0.498275  0  3.482343  0  0  -0.380403  -0.455722  0  3.4792  0
N  N53  1  0.20156396  0.73276583  0.14408184  1  0  -0.539004  0  3.245602  0  0  -0.472931  0  3.4807  0  0  -0.498388  0  3.482352  0  0  -0.38047  -0.455831  0  3.479212  0
N  N54  1  0.20154955  0.23276048  0.35591795  1  0  -0.538895  0  3.245538  0  0  -0.472857  0  3.480681  0  0  -0.498316  0  3.482338  0  0  -0.380372  -0.455759  0  3.479194  0
N  N55  1  0.79843587  0.26723380  0.85591723  1  0  -0.538925  0  3.245634  0  0  -0.472844  0  3.48066  0  0  -0.498303  0  3.482313  0  0  -0.380423  -0.455747  0  3.479167  0
O  O56  1  0.15496685  0.94125313  0.61058415  1  0  -0.659251  0  1.973343  0  0  -0.59723  0  2.195469  0  0  -0.618384  0  2.180449  0  0  -0.301215  -0.582503  0  2.205362  0
O  O57  1  0.84505606  0.55875236  0.11058231  1  0  -0.659371  0  1.97312  0  0  -0.59736  0  2.195189  0  0  -0.618509  0  2.180163  0  0  -0.301248  -0.58263  0  2.205082  0
O  O58  1  0.84503298  0.05874650  0.38941613  1  0  -0.659214  0  1.973427  0  0  -0.597228  0  2.195476  0  0  -0.618381  0  2.180456  0  0  -0.301212  -0.582498  0  2.20537  0
O  O59  1  0.15494427  0.44124874  0.88941797  1  0  -0.659302  0  1.973116  0  0  -0.597345  0  2.195176  0  0  -0.618495  0  2.180151  0  0  -0.301237  -0.582617  0  2.205066  0
O  O60  1  0.44210186  0.59012545  0.67349899  1  0  -0.689145  0  1.951879  0  0  -0.642273  0  2.18354  0  0  -0.662996  0  2.172195  0  0  -0.387288  -0.627775  0  2.190888  0
O  O61  1  0.55790316  0.90988647  0.17350142  1  0  -0.689087  0  1.95187  0  0  -0.642248  0  2.183556  0  0  -0.66297  0  2.172211  0  0  -0.387306  -0.627746  0  2.190906  0
O  O62  1  0.55789897  0.40987712  0.32650371  1  0  -0.689069  0  1.951825  0  0  -0.642201  0  2.183559  0  0  -0.662915  0  2.172208  0  0  -0.387261  -0.627701  0  2.190907  0
O  O63  1  0.44209022  0.09012204  0.82649886  1  0  -0.689135  0  1.951874  0  0  -0.642324  0  2.183584  0  0  -0.663048  0  2.172235  0  0  -0.387287  -0.627824  0  2.190933  0
O  O64  1  0.97335953  0.86570481  0.87743327  1  0  -0.694813  0  1.99155  0  0  -0.639232  0  2.221122  0  0  -0.661344  0  2.209885  0  0  -0.385591  -0.623805  0  2.228356  0
O  O65  1  0.02664605  0.63429636  0.37743164  1  0  -0.694853  0  1.991503  0  0  -0.639282  0  2.221111  0  0  -0.661396  0  2.209878  0  0  -0.385645  -0.623855  0  2.228347  0
O  O66  1  0.02664352  0.13429039  0.12256701  1  0  -0.694824  0  1.991514  0  0  -0.639214  0  2.221097  0  0  -0.661327  0  2.209862  0  0  -0.385619  -0.623785  0  2.228331  0
O  O67  1  0.97335120  0.36570035  0.62256864  1  0  -0.694977  0  1.991451  0  0  -0.639414  0  2.22106  0  0  -0.661527  0  2.209823  0  0  -0.385705  -0.623988  0  2.228295  0
O  O68  1  0.31547121  0.26725760  0.52089245  1  0  -0.901692  0  1.802454  0  0  -0.853422  0  1.972857  0  0  -0.870858  0  1.940967  0  0  -0.636806  -0.841137  0  1.995109  0
O  O69  1  0.68452641  0.23273627  0.02089249  1  0  -0.901723  0  1.80239  0  0  -0.853483  0  1.972825  0  0  -0.870918  0  1.940936  0  0  -0.636837  -0.841199  0  1.995077  0
O  O70  1  0.68453019  0.73274202  0.47910783  1  0  -0.901658  0  1.80246  0  0  -0.853411  0  1.972876  0  0  -0.870846  0  1.940988  0  0  -0.636809  -0.841126  0  1.995128  0
O  O71  1  0.31547499  0.76726335  0.97910658  1  0  -0.901699  0  1.802479  0  0  -0.853459  0  1.972897  0  0  -0.870894  0  1.941009  0  0  -0.636851  -0.841176  0  1.995148  0
O  O72  1  0.26859685  0.70072596  0.50665951  1  0  -0.911027  0  1.829743  0  0  -0.85385  0  2.000262  0  0  -0.872796  0  1.966919  0  0  -0.631714  -0.840516  0  2.02352  0
O  O73  1  0.73140246  0.79926963  0.00666111  1  0  -0.911004  0  1.829724  0  0  -0.85384  0  2.000219  0  0  -0.872786  0  1.966871  0  0  -0.631746  -0.840506  0  2.023479  0
O  O74  1  0.73140506  0.29927513  0.49334077  1  0  -0.911045  0  1.829709  0  0  -0.853896  0  2.000187  0  0  -0.87284  0  1.966845  0  0  -0.631724  -0.840562  0  2.023446  0
O  O75  1  0.26859480  0.20072708  0.99333917  1  0  -0.910977  0  1.829773  0  0  -0.853808  0  2.000281  0  0  -0.872752  0  1.966936  0  0  -0.631738  -0.840475  0  2.023541  0
