# generated using pymatgen
data_CdH7C8S2N3O
_symmetry_space_group_name_H-M   'P 1'
_cell_length_a   8.17635777
_cell_length_b   8.50567669
_cell_length_c   9.75554432
_cell_angle_alpha   69.25067339
_cell_angle_beta   72.45360264
_cell_angle_gamma   72.36662142
_symmetry_Int_Tables_number   1
_chemical_formula_structural   CdH7C8S2N3O
_chemical_formula_sum   'Cd2 H14 C16 S4 N6 O2'
_cell_volume   590.11535821
_cell_formula_units_Z   2
loop_
 _symmetry_equiv_pos_site_id
 _symmetry_equiv_pos_as_xyz
  1  'x, y, z'
loop_
 _atom_site_type_symbol
 _atom_site_label
 _atom_site_symmetry_multiplicity
 _atom_site_fract_x
 _atom_site_fract_y
 _atom_site_fract_z
 _atom_site_occupancy
 _atom_site_hle17_bader_spin_density
 _atom_site_hle17_ddec_charge
 _atom_site_hle17_ddec_spin_density
 _atom_site_hle17_ddec_sum_bond_order
 _atom_site_hle17_magmom
 _atom_site_hse06_10hf_bader_spin_density
 _atom_site_hse06_10hf_ddec_charge
 _atom_site_hse06_10hf_ddec_spin_density
 _atom_site_hse06_10hf_ddec_sum_bond_order
 _atom_site_hse06_10hf_magmom
 _atom_site_hse06_bader_spin_density
 _atom_site_hse06_ddec_charge
 _atom_site_hse06_ddec_spin_density
 _atom_site_hse06_ddec_sum_bond_order
 _atom_site_hse06_magmom
 _atom_site_pbe_bader_spin_density
 _atom_site_pbe_cm5_charge
 _atom_site_pbe_ddec_charge
 _atom_site_pbe_ddec_spin_density
 _atom_site_pbe_ddec_sum_bond_order
 _atom_site_pbe_magmom
Cd  Cd0  1  0.63368640  0.64284002  0.51602995  1  0  1.046966  0  1.962303  0  0  0.878391  0  2.441204  0  0  0.924132  0  2.396749  0  0  0.720157  0.846412  0  2.471303  0
Cd  Cd1  1  0.36631155  0.35715745  0.48397121  1  0  1.046964  0  1.962276  0  0  0.87837  0  2.4412  0  0  0.924113  0  2.396741  0  0  0.720169  0.846391  0  2.4713  0
H  H2  1  0.47231943  0.32656726  0.91124485  1  0  0.115301  0  0.921318  0  0  0.124273  0  0.982584  0  0  0.127802  0  0.978763  0  0  0.130291  0.121621  0  0.985467  0
H  H3  1  0.52767821  0.67343666  0.08875750  1  0  0.115267  0  0.921371  0  0  0.124203  0  0.982674  0  0  0.12773  0  0.978858  0  0  0.130278  0.121563  0  0.985548  0
H  H4  1  0.96067965  0.90878521  0.70619267  1  0  0.112675  0  0.96128  0  0  0.120041  0  1.023358  0  0  0.12282  0  1.023333  0  0  0.102248  0.118043  0  1.023547  0
H  H5  1  0.03931618  0.09121613  0.29380373  1  0  0.112682  0  0.96132  0  0  0.120062  0  1.023373  0  0  0.122841  0  1.023349  0  0  0.102268  0.118065  0  1.023564  0
H  H6  1  0.78712517  0.16988688  0.54306586  1  0  0.10422  0  0.976264  0  0  0.109704  0  1.044394  0  0  0.112536  0  1.042303  0  0  0.117559  0.107621  0  1.045938  0
H  H7  1  0.21286682  0.83011441  0.45693148  1  0  0.104188  0  0.97626  0  0  0.109684  0  1.044389  0  0  0.112518  0  1.042294  0  0  0.117559  0.107582  0  1.045947  0
H  H8  1  0.62874789  0.07230897  0.09001968  1  0  0.117449  0  0.975605  0  0  0.125379  0  1.036328  0  0  0.127761  0  1.036988  0  0  0.106596  0.123639  0  1.036089  0
H  H9  1  0.37125491  0.92769503  0.90997935  1  0  0.117484  0  0.975612  0  0  0.125414  0  1.036327  0  0  0.127806  0  1.036957  0  0  0.106608  0.123676  0  1.036086  0
H  H10  1  0.87667206  0.82215611  0.12776490  1  0  0.125853  0  0.952849  0  0  0.144521  0  1.012645  0  0  0.145916  0  1.013277  0  0  0.091342  0.143477  0  1.012258  0
H  H11  1  0.12333205  0.17784276  0.87223026  1  0  0.125871  0  0.952836  0  0  0.144509  0  1.012669  0  0  0.145903  0  1.013304  0  0  0.091355  0.143467  0  1.012281  0
H  H12  1  0.04301258  0.78124400  0.96817206  1  0  0.113625  0  0.969816  0  0  0.128339  0  1.041038  0  0  0.130009  0  1.041305  0  0  0.08443  0.12712  0  1.040857  0
H  H13  1  0.95698773  0.21875998  0.03182348  1  0  0.113603  0  0.969809  0  0  0.128324  0  1.041025  0  0  0.129994  0  1.041294  0  0  0.084427  0.127108  0  1.040845  0
H  H14  1  0.85385510  0.69603221  0.02662641  1  0  0.121452  0  0.929684  0  0  0.140666  0  0.992094  0  0  0.142455  0  0.991412  0  0  0.093943  0.13937  0  0.99259  0
H  H15  1  0.14614780  0.30397181  0.97336644  1  0  0.121442  0  0.929696  0  0  0.140661  0  0.992099  0  0  0.142452  0  0.991416  0  0  0.093934  0.139363  0  0.992595  0
C  C16  1  0.02555386  0.45642775  0.33036482  1  0  0.318619  0  3.991487  0  0  0.303596  0  4.28342  0  0  0.324944  0  4.298825  0  0  0.151689  0.289025  0  4.272595  0
C  C17  1  0.97444499  0.54357101  0.66963983  1  0  0.318594  0  3.991296  0  0  0.303575  0  4.283226  0  0  0.324925  0  4.298629  0  0  0.15163  0.289003  0  4.272402  0
C  C18  1  0.34120823  0.94626187  0.66177789  1  0  0.295804  0  4.025127  0  0  0.277467  0  4.325395  0  0  0.29877  0  4.341054  0  0  0.149286  0.263031  0  4.31425  0
C  C19  1  0.65879931  0.05373831  0.33822117  1  0  0.295822  0  4.024947  0  0  0.277485  0  4.325228  0  0  0.298792  0  4.340886  0  0  0.149293  0.263046  0  4.31408  0
C  C20  1  0.58084228  0.22829126  0.87511955  1  0  0.02961  0  3.616927  0  0  -0.0154  0  3.885859  0  0  -0.006819  0  3.897374  0  0  0.044707  -0.020794  0  3.87813  0
C  C21  1  0.41915975  0.77171012  0.12488559  1  0  0.029764  0  3.616798  0  0  -0.015194  0  3.885709  0  0  -0.006614  0  3.897223  0  0  0.044772  -0.020605  0  3.877989  0
C  C22  1  0.85297585  0.99726779  0.75710822  1  0  -0.147112  0  3.70829  0  0  -0.161985  0  3.953388  0  0  -0.169642  0  3.974184  0  0  -0.078641  -0.157295  0  3.939708  0
C  C23  1  0.14702090  0.00273484  0.24289064  1  0  -0.146993  0  3.708213  0  0  -0.161862  0  3.953345  0  0  -0.169517  0  3.97414  0  0  -0.078574  -0.157174  0  3.939659  0
C  C24  1  0.80833289  0.96659920  0.91355928  1  0  0.199756  0  3.710228  0  0  0.215478  0  3.950235  0  0  0.222364  0  3.970874  0  0  0.013691  0.211076  0  3.936106  0
C  C25  1  0.19167116  0.03339965  0.08643896  1  0  0.199686  0  3.710262  0  0  0.215392  0  3.95031  0  0  0.222274  0  3.970955  0  0  0.013683  0.210992  0  3.936176  0
C  C26  1  0.76141186  0.13867972  0.66480345  1  0  0.029596  0  3.599901  0  0  -0.01098  0  3.858214  0  0  -0.003699  0  3.871928  0  0  0.042351  -0.015617  0  3.849241  0
C  C27  1  0.23858361  0.86132290  0.33519572  1  0  0.02953  0  3.59989  0  0  -0.011087  0  3.858269  0  0  -0.003807  0  3.871976  0  0  0.042231  -0.015707  0  3.849298  0
C  C28  1  0.66995110  0.08779501  0.96997440  1  0  -0.161346  0  3.730013  0  0  -0.176561  0  3.97837  0  0  -0.184652  0  3.999686  0  0  -0.080969  -0.171543  0  3.964246  0
C  C29  1  0.33005102  0.91220639  0.03002559  1  0  -0.161487  0  3.730065  0  0  -0.176691  0  3.978417  0  0  -0.184776  0  3.999737  0  0  -0.081006  -0.171676  0  3.964296  0
C  C30  1  0.90091275  0.80956656  0.01504854  1  0  -0.348397  0  3.697535  0  0  -0.423534  0  3.929901  0  0  -0.427  0  3.937362  0  0  -0.241885  -0.420841  0  3.924634  0
C  C31  1  0.09908816  0.19043484  0.98494866  1  0  -0.348338  0  3.697437  0  0  -0.423466  0  3.92985  0  0  -0.426934  0  3.937314  0  0  -0.241877  -0.420777  0  3.92458  0
S  S32  1  0.32133868  0.74868664  0.70491410  1  0  -0.318513  0  2.189939  0  0  -0.284157  0  2.510015  0  0  -0.301217  0  2.502124  0  0  -0.118624  -0.272109  0  2.515051  0
S  S33  1  0.67866779  0.25130189  0.29508875  1  0  -0.318427  0  2.190156  0  0  -0.284082  0  2.510262  0  0  -0.301136  0  2.502367  0  0  -0.118586  -0.272038  0  2.515305  0
S  S34  1  0.23172549  0.39266610  0.25290115  1  0  -0.367721  0  2.147149  0  0  -0.33066  0  2.455915  0  0  -0.351064  0  2.451351  0  0  -0.151722  -0.316166  0  2.458533  0
S  S35  1  0.76827437  0.60733397  0.74710081  1  0  -0.367723  0  2.147196  0  0  -0.330673  0  2.455965  0  0  -0.351078  0  2.451406  0  0  -0.151729  -0.316179  0  2.458584  0
N  N36  1  0.87644357  0.50049543  0.38668482  1  0  -0.527761  0  2.900766  0  0  -0.472536  0  3.177213  0  0  -0.493919  0  3.183607  0  0  -0.391166  -0.457899  0  3.172716  0
N  N37  1  0.12356224  0.49950083  0.61332097  1  0  -0.527765  0  2.900542  0  0  -0.472527  0  3.176964  0  0  -0.493912  0  3.18336  0  0  -0.391129  -0.457888  0  3.172465  0
N  N38  1  0.62527476  0.25023567  0.72496991  1  0  0.260918  0  3.696583  0  0  0.310163  0  3.958926  0  0  0.308002  0  3.980469  0  0  -0.122833  0.310935  0  3.944346  0
N  N39  1  0.37471903  0.74976820  0.27503441  1  0  0.260914  0  3.696589  0  0  0.310139  0  3.958939  0  0  0.30797  0  3.980482  0  0  -0.12283  0.310913  0  3.944352  0
N  N40  1  0.35534730  0.08915582  0.63518378  1  0  -0.543535  0  2.914448  0  0  -0.487208  0  3.194215  0  0  -0.50945  0  3.201595  0  0  -0.399696  -0.471895  0  3.188823  0
N  N41  1  0.64465569  0.91083138  0.36481723  1  0  -0.543638  0  2.914058  0  0  -0.487308  0  3.193829  0  0  -0.50956  0  3.201228  0  0  -0.399741  -0.471989  0  3.188432  0
O  O42  1  0.53303994  0.38436831  0.63679009  1  0  -0.577435  0  1.941965  0  0  -0.514978  0  2.213897  0  0  -0.540047  0  2.208758  0  0  -0.262735  -0.497185  0  2.217029  0
O  O43  1  0.46695267  0.61563556  0.36320939  1  0  -0.577461  0  1.941973  0  0  -0.514947  0  2.213849  0  0  -0.539988  0  2.208688  0  0  -0.262753  -0.497163  0  2.216983  0
