# generated using pymatgen
data_MnCu2H44C46(NO2)4
_symmetry_space_group_name_H-M   'P 1'
_cell_length_a   10.77908859
_cell_length_b   10.77913800
_cell_length_c   11.54734660
_cell_angle_alpha   69.72080662
_cell_angle_beta   69.72043287
_cell_angle_gamma   79.50993665
_symmetry_Int_Tables_number   1
_chemical_formula_structural   MnCu2H44C46(NO2)4
_chemical_formula_sum   'Mn1 Cu2 H44 C46 N4 O8'
_cell_volume   1177.57358494
_cell_formula_units_Z   1
loop_
 _symmetry_equiv_pos_site_id
 _symmetry_equiv_pos_as_xyz
  1  'x, y, z'
loop_
 _atom_site_type_symbol
 _atom_site_label
 _atom_site_symmetry_multiplicity
 _atom_site_fract_x
 _atom_site_fract_y
 _atom_site_fract_z
 _atom_site_occupancy
 _atom_site_pbe_cm5_charge
 _atom_site_pbe_ddec_charge
 _atom_site_pbe_ddec_spin_density
 _atom_site_pbe_ddec_sum_bond_order
 _atom_site_pbe_magmom
Mn  Mn0  1  0.99991200  0.99990730  0.50007546  1  0.607842  1.062766  4.58433  2.280356  4.394
Cu  Cu1  1  0.78952090  0.78952154  0.56409547  1  0.73237  0.72559  -0.668389  2.347503  -0.521
Cu  Cu2  1  0.21035970  0.21035744  0.43594822  1  0.733439  0.72706  -0.66889  2.349368  -0.522
H  H3  1  0.16261611  0.16259977  0.84202166  1  0.102237  0.102498  1.3e-05  1.027772  0.0
H  H4  1  0.83717701  0.83718137  0.15815824  1  0.10177  0.102063  1.3e-05  1.026737  0.0
H  H5  1  0.11530975  0.11529446  0.08275641  1  0.104993  0.111446  -6e-05  0.999643  0.0
H  H6  1  0.88447092  0.88448089  0.91743641  1  0.104579  0.110996  -5.9e-05  0.9998  0.0
H  H7  1  0.79574062  0.48733548  0.47569534  1  0.104502  0.082691  -0.001182  1.008001  -0.001
H  H8  1  0.51241007  0.20395446  0.52435806  1  0.10444  0.082505  -0.001182  1.008457  -0.001
H  H9  1  0.20395692  0.51240585  0.52435669  1  0.104429  0.082492  -0.001181  1.008573  -0.001
H  H10  1  0.48733541  0.79574783  0.47569797  1  0.1045  0.08264  -0.001183  1.008084  -0.001
H  H11  1  0.66104080  0.47489601  0.61988070  1  0.101203  0.075827  -0.000982  0.970433  -0.001
H  H12  1  0.52474637  0.33911313  0.38026831  1  0.101183  0.07568  -0.000987  0.969564  -0.001
H  H13  1  0.33911548  0.52474136  0.38026698  1  0.101186  0.075652  -0.000987  0.969597  -0.001
H  H14  1  0.47488918  0.66104821  0.61988090  1  0.101179  0.075786  -0.000982  0.97045  -0.001
H  H15  1  0.15265631  0.80651432  0.66042735  1  0.103732  0.117169  0.000629  1.053126  0.0
H  H16  1  0.19331353  0.84771352  0.33952057  1  0.103989  0.117612  0.000634  1.052288  0.0
H  H17  1  0.84771363  0.19330791  0.33951062  1  0.103928  0.117549  0.000634  1.052374  0.0
H  H18  1  0.80649851  0.15265987  0.66043867  1  0.103758  0.117274  0.000628  1.052962  0.0
H  H19  1  0.98462150  0.35923518  0.84261958  1  0.098885  0.095005  6.8e-05  1.0381  0.0
H  H20  1  0.64052643  0.01593759  0.15715103  1  0.09875  0.094894  6.7e-05  1.038216  0.0
H  H21  1  0.01593300  0.64051731  0.15716810  1  0.098765  0.094933  6.7e-05  1.038242  0.0
H  H22  1  0.35922015  0.98461788  0.84263134  1  0.098834  0.094969  6.8e-05  1.038165  0.0
H  H23  1  0.60470360  0.60471263  0.41900878  1  0.096926  0.102465  0.000218  0.973074  0.0
H  H24  1  0.39520548  0.39520489  0.58104061  1  0.09695  0.102899  0.000218  0.972874  0.0
H  H25  1  0.72077665  0.72078124  0.37964428  1  0.098548  0.113737  0.000126  1.029906  0.0
H  H26  1  0.27902136  0.27901973  0.62086439  1  0.098437  0.1135  0.000125  1.029277  0.0
H  H27  1  0.82558016  0.31696943  0.77350633  1  0.10222  0.148283  0.000143  0.983405  0.0
H  H28  1  0.68324217  0.17483922  0.22704423  1  0.102192  0.148146  0.000138  0.984135  0.0
H  H29  1  0.17484679  0.68322640  0.22703932  1  0.10224  0.148158  0.000138  0.984143  0.0
H  H30  1  0.31696397  0.82557175  0.77351888  1  0.102182  0.148183  0.000143  0.983331  0.0
H  H31  1  0.99083748  0.31991525  0.66936006  1  0.101173  0.156719  -9.4e-05  1.02952  0.0
H  H32  1  0.67984850  0.00940798  0.33087043  1  0.101343  0.156976  -9.3e-05  1.028488  0.0
H  H33  1  0.00941700  0.67984600  0.33086536  1  0.101348  0.156973  -9.3e-05  1.028589  0.0
H  H34  1  0.31990503  0.99082953  0.66937176  1  0.101156  0.156651  -9.5e-05  1.029425  0.0
H  H35  1  0.85815205  0.34530071  0.60563300  1  0.099427  0.141832  -9.6e-05  1.040182  0.0
H  H36  1  0.65400486  0.14182554  0.39504501  1  0.099835  0.14174  -9.6e-05  1.040657  0.0
H  H37  1  0.14183524  0.65400047  0.39503567  1  0.099844  0.141798  -9.6e-05  1.040641  0.0
H  H38  1  0.34530080  0.85814087  0.60564550  1  0.099394  0.14175  -9.6e-05  1.040333  0.0
H  H39  1  0.23718098  0.63170165  0.82800391  1  0.094699  0.084165  -0.000314  1.017942  0.0
H  H40  1  0.36787461  0.76389565  0.17123277  1  0.094748  0.084532  -0.000312  1.018049  0.0
H  H41  1  0.76389275  0.36787701  0.17123298  1  0.094744  0.084559  -0.000312  1.018024  0.0
H  H42  1  0.63167852  0.23718910  0.82801148  1  0.094714  0.084169  -0.000314  1.018017  0.0
H  H43  1  0.14560951  0.40771109  0.92493767  1  0.098546  0.102638  2e-05  1.002268  0.0
H  H44  1  0.59208409  0.85498054  0.07466897  1  0.098449  0.102313  1.9e-05  1.002301  0.0
H  H45  1  0.85497984  0.59208675  0.07467384  1  0.098437  0.102224  1.9e-05  1.002211  0.0
H  H46  1  0.40768927  0.14560753  0.92495447  1  0.09854  0.102596  2e-05  1.002237  0.0
C  C47  1  0.97369775  0.97368798  0.13338929  1  -0.020263  -0.039837  0.001803  3.976975  0.001
C  C48  1  0.02610769  0.02610406  0.86680290  1  -0.019983  -0.038795  0.001804  3.976876  0.001
C  C49  1  0.09150036  0.09148681  0.91257360  1  -0.091195  -0.111396  0.000999  4.001708  0.001
C  C50  1  0.90829767  0.90829528  0.08760697  1  -0.09052  -0.110546  0.000999  3.998955  0.001
C  C51  1  0.94395962  0.94395983  0.27673248  1  0.216776  0.584861  0.007286  4.195764  0.007
C  C52  1  0.05590828  0.05591095  0.72341940  1  0.21652  0.583633  0.0073  4.195431  0.007
C  C53  1  0.06567505  0.06565946  0.04507005  1  -0.085455  -0.093881  0.000639  3.977669  0.001
C  C54  1  0.93411729  0.93411873  0.95511454  1  -0.085182  -0.093996  0.000638  3.978113  0.001
C  C55  1  0.01829898  0.68534175  0.65667796  1  0.089065  0.314146  0.00255  4.080577  0.005
C  C56  1  0.31461196  0.98197826  0.34323915  1  0.08902  0.315047  0.002544  4.082376  0.005
C  C57  1  0.98197761  0.31459817  0.34323903  1  0.089001  0.314902  0.002545  4.082544  0.005
C  C58  1  0.68533494  0.01829179  0.65670021  1  0.089045  0.314211  0.002548  4.080542  0.005
C  C59  1  0.97266862  0.55454268  0.70541801  1  -0.039695  -0.145717  -0.001885  3.978606  -0.004
C  C60  1  0.44534051  0.02773976  0.29434095  1  -0.039704  -0.147806  -0.001909  3.980873  -0.004
C  C61  1  0.02773454  0.44533586  0.29434853  1  -0.039707  -0.147709  -0.001909  3.980795  -0.004
C  C62  1  0.55453536  0.97265790  0.70543953  1  -0.039716  -0.145813  -0.001884  3.978557  -0.004
C  C63  1  0.88590780  0.51273339  0.65440410  1  0.146851  0.32186  0.00466  3.914621  0.004
C  C64  1  0.48712673  0.11448997  0.34536775  1  0.146947  0.32345  0.004653  3.914275  0.004
C  C65  1  0.11448105  0.48712050  0.34537437  1  0.146931  0.323558  0.004653  3.913997  0.004
C  C66  1  0.51272882  0.88589993  0.65441763  1  0.146818  0.321777  0.00466  3.914465  0.004
C  C67  1  0.72991712  0.54448127  0.53920037  1  -0.070064  -0.010769  -0.002442  3.927045  -0.002
C  C68  1  0.45527912  0.27001455  0.46093958  1  -0.069684  -0.009872  -0.00245  3.925327  -0.002
C  C69  1  0.27001488  0.45527678  0.46093803  1  -0.069704  -0.009894  -0.002451  3.925432  -0.002
C  C70  1  0.54447686  0.72992050  0.53920110  1  -0.07006  -0.010645  -0.002442  3.926909  -0.002
C  C71  1  0.11725843  0.70758715  0.70058470  1  -0.112862  -0.221631  -0.004404  3.979317  -0.005
C  C72  1  0.29219463  0.88328442  0.29914386  1  -0.112929  -0.221451  -0.00442  3.980574  -0.005
C  C73  1  0.88328355  0.29218590  0.29914058  1  -0.112912  -0.221254  -0.004421  3.980633  -0.005
C  C74  1  0.70757509  0.11726069  0.70059534  1  -0.112903  -0.221766  -0.004403  3.979268  -0.005
C  C75  1  0.02127082  0.45785269  0.80209075  1  -0.093115  -0.093841  0.001355  4.01542  0.001
C  C76  1  0.54193903  0.97929084  0.19753452  1  -0.093147  -0.093276  0.001354  4.015468  0.001
C  C77  1  0.97929066  0.54193256  0.19754012  1  -0.093101  -0.093322  0.001354  4.015353  0.001
C  C78  1  0.45783913  0.02126850  0.80210544  1  -0.09298  -0.093629  0.001356  4.015478  0.001
C  C79  1  0.65257973  0.65258245  0.46103690  1  -0.172947  -0.224751  -0.002367  3.968628  -0.003
C  C80  1  0.34719917  0.34719944  0.53925134  1  -0.172899  -0.225299  -0.002373  3.969166  -0.003
C  C81  1  0.89056387  0.36622251  0.67616072  1  -0.242799  -0.468051  -0.006575  3.896956  -0.008
C  C82  1  0.63348935  0.10967003  0.32413855  1  -0.243401  -0.4687  -0.006567  3.89774  -0.008
C  C83  1  0.10967567  0.63348069  0.32413457  1  -0.24345  -0.468833  -0.006567  3.897842  -0.008
C  C84  1  0.36621752  0.89055929  0.67617102  1  -0.242743  -0.467801  -0.006575  3.8967  -0.008
C  C85  1  0.16303608  0.60983564  0.79445638  1  -0.093187  -0.054407  0.000869  4.066997  0.0
C  C86  1  0.38990147  0.83768551  0.20511959  1  -0.093728  -0.055724  0.000867  4.069  0.0
C  C87  1  0.83768070  0.38989957  0.20512779  1  -0.093771  -0.05597  0.000867  4.069189  0.0
C  C88  1  0.60981610  0.16303781  0.79447515  1  -0.093151  -0.054365  0.000869  4.067041  0.0
C  C89  1  0.11327588  0.48386102  0.84815339  1  -0.115006  -0.131766  0.000731  4.07929  0.0
C  C90  1  0.51587537  0.88743017  0.15134808  1  -0.114923  -0.131163  0.000707  4.078002  0.0
C  C91  1  0.88742569  0.51587185  0.15135513  1  -0.114926  -0.130991  0.000708  4.07776  0.0
C  C92  1  0.48384285  0.11327381  0.84816793  1  -0.115111  -0.131889  0.000733  4.079549  0.0
N  N93  1  0.80990493  0.59608680  0.59090919  1  -0.370092  -0.317705  -0.0584  3.457633  -0.076
N  N94  1  0.40364135  0.19021184  0.40907224  1  -0.370632  -0.318493  -0.058491  3.458116  -0.077
N  N95  1  0.19020755  0.40363626  0.40907403  1  -0.370608  -0.318514  -0.058494  3.457847  -0.077
N  N96  1  0.59608414  0.80990321  0.59091628  1  -0.370028  -0.317579  -0.058403  3.457351  -0.076
O  O97  1  0.00565898  0.00567627  0.31428572  1  -0.312995  -0.564704  0.043765  2.346921  0.028
O  O98  1  0.99421851  0.99422683  0.68580476  1  -0.313385  -0.56446  0.043782  2.345708  0.028
O  O99  1  0.97503002  0.78409721  0.56978085  1  -0.327542  -0.528338  -0.025236  2.494661  -0.061
O  O100  1  0.21586058  0.02485586  0.43038464  1  -0.327729  -0.529126  -0.025352  2.495598  -0.061
O  O101  1  0.02486220  0.21584890  0.43037814  1  -0.327633  -0.528963  -0.02536  2.49552  -0.061
O  O102  1  0.78409689  0.97501356  0.56981187  1  -0.32751  -0.528377  -0.025235  2.494631  -0.061
O  O103  1  0.85959497  0.85959702  0.34951361  1  -0.324479  -0.573665  0.005507  2.368037  0.006
O  O104  1  0.14026323  0.14026031  0.65070043  1  -0.324003  -0.573068  0.005508  2.368378  0.006
