# generated using pymatgen
data_Cd3H36C48(NO7)2
_symmetry_space_group_name_H-M   'P 1'
_cell_length_a   10.13600927
_cell_length_b   11.02240292
_cell_length_c   24.69466187
_cell_angle_alpha   97.08499367
_cell_angle_beta   89.99043175
_cell_angle_gamma   117.38615388
_symmetry_Int_Tables_number   1
_chemical_formula_structural   Cd3H36C48(NO7)2
_chemical_formula_sum   'Cd6 H72 C96 N4 O28'
_cell_volume   2426.03872840
_cell_formula_units_Z   2
loop_
 _symmetry_equiv_pos_site_id
 _symmetry_equiv_pos_as_xyz
  1  'x, y, z'
loop_
 _atom_site_type_symbol
 _atom_site_label
 _atom_site_symmetry_multiplicity
 _atom_site_fract_x
 _atom_site_fract_y
 _atom_site_fract_z
 _atom_site_occupancy
 _atom_site_pbe_bader_charge
 _atom_site_pbe_bader_spin_density
 _atom_site_pbe_cm5_charge
 _atom_site_pbe_ddec_charge
 _atom_site_pbe_ddec_spin_density
 _atom_site_pbe_ddec_sum_bond_order
 _atom_site_pbe_magmom
Cd  Cd0  1  0.36600405  0.82440136  0.01792583  1  1.312081  0  0.780093  1.019894  0  2.023855  0
Cd  Cd1  1  0.54171533  0.17562349  0.48210811  1  1.311649  0  0.779945  1.02012  0  2.02276  0
Cd  Cd2  1  0.63399167  0.17559389  0.98207314  1  1.312083  0  0.7801  1.019884  0  2.023902  0
Cd  Cd3  1  0.45828450  0.82437799  0.51789195  1  1.311674  0  0.779915  1.020039  0  2.022912  0
Cd  Cd4  1  0.99999856  0.50000364  0.00000081  1  1.382785  0  0.794246  1.086971  0  2.1999  0
Cd  Cd5  1  0.49999786  0.49999663  0.50000005  1  1.381596  0  0.794078  1.086627  0  2.199163  0
H  H6  1  0.42311500  0.73394759  0.20397963  1  0.092751  0  0.105504  0.109482  0  1.001514  0
H  H7  1  0.69011887  0.26631926  0.29601740  1  0.101907  0  0.10554  0.109219  0  1.001553  0
H  H8  1  0.57688730  0.26605490  0.79602007  1  0.092778  0  0.105501  0.109459  0  1.001486  0
H  H9  1  0.30988430  0.73367903  0.70398090  1  0.102052  0  0.105531  0.10917  0  1.00149  0
H  H10  1  0.36996847  0.58116105  0.27584878  1  0.084174  0  0.102103  0.101837  0  1.017584  0
H  H11  1  0.78898728  0.41902043  0.22407191  1  0.057621  0  0.102186  0.10205  0  1.017392  0
H  H12  1  0.63003097  0.41884361  0.72415264  1  0.084217  0  0.102115  0.101823  0  1.017684  0
H  H13  1  0.21101992  0.58098000  0.77592770  1  0.057672  0  0.102157  0.102036  0  1.017375  0
H  H14  1  0.99271682  0.26433097  0.17456966  1  0.072759  0  0.100295  0.101076  0  1.020243  0
H  H15  1  0.72734395  0.73514537  0.32532489  1  0.067099  0  0.100427  0.101325  0  1.019689  0
H  H16  1  0.00728452  0.73566958  0.82543198  1  0.073075  0  0.100286  0.101043  0  1.02025  0
H  H17  1  0.27264832  0.26484890  0.67467484  1  0.067075  0  0.100412  0.101317  0  1.01967  0
H  H18  1  0.04711034  0.41724243  0.10410496  1  0.086635  0  0.101343  0.10447  0  1.042839  0
H  H19  1  0.62924483  0.58221822  0.39578725  1  0.10451  0  0.101183  0.104468  0  1.043758  0
H  H20  1  0.95289333  0.58275490  0.89589451  1  0.086663  0  0.101375  0.104506  0  1.042826  0
H  H21  1  0.37074532  0.41777181  0.60421067  1  0.104437  0  0.101176  0.104432  0  1.043788  0
H  H22  1  0.37329715  0.40367321  0.30482986  1  0.078709  0  0.098097  0.097397  0  1.0359  0
H  H23  1  0.96922097  0.59639774  0.19506131  1  0.087453  0  0.098225  0.097271  0  1.035044  0
H  H24  1  0.62670225  0.59632938  0.69517147  1  0.078692  0  0.09811  0.097384  0  1.035845  0
H  H25  1  0.03078379  0.40360374  0.80493875  1  0.087353  0  0.098239  0.097309  0  1.035063  0
H  H26  1  0.31885122  0.24779789  0.37344067  1  0.060349  0  0.099663  0.100742  0  1.034083  0
H  H27  1  0.07087354  0.75248967  0.12654473  1  0.065299  0  0.099382  0.100677  0  1.033553  0
H  H28  1  0.68114466  0.75220161  0.62656051  1  0.060263  0  0.099645  0.10072  0  1.034062  0
H  H29  1  0.92913018  0.24750973  0.87345483  1  0.065447  0  0.099372  0.100667  0  1.033533  0
H  H30  1  0.85361781  0.04808980  0.31987570  1  0.06036  0  0.102758  0.101703  0  1.006586  0
H  H31  1  0.80531838  0.95205157  0.18019744  1  0.065224  0  0.102918  0.101903  0  1.007453  0
H  H32  1  0.14637863  0.95191478  0.68012450  1  0.060491  0  0.102749  0.101711  0  1.006513  0
H  H33  1  0.19467980  0.04794466  0.81980076  1  0.065161  0  0.102895  0.101871  0  1.007549  0
H  H34  1  0.90630342  0.20905305  0.25313786  1  0.060767  0  0.099957  0.096384  0  1.015099  0
H  H35  1  0.69679366  0.79087014  0.24684260  1  0.057001  0  0.100022  0.096409  0  1.014934  0
H  H36  1  0.09369592  0.79094944  0.74686184  1  0.060689  0  0.099934  0.096287  0  1.015069  0
H  H37  1  0.30320399  0.20912503  0.75315515  1  0.05693  0  0.100044  0.096436  0  1.014878  0
H  H38  1  0.27216445  0.04545715  0.39015655  1  0.063704  0  0.106937  0.111565  0  1.021038  0
H  H39  1  0.22659689  0.95466192  0.10990091  1  0.089601  0  0.107012  0.112013  0  1.020913  0
H  H40  1  0.72783142  0.95454629  0.60984199  1  0.063726  0  0.106905  0.111512  0  1.021047  0
H  H41  1  0.77340470  0.04533322  0.89009643  1  0.089623  0  0.107017  0.112019  0  1.020927  0
H  H42  1  0.96828082  0.76115583  0.48987544  1  0.105903  0  0.104146  0.10563  0  1.039136  0
H  H43  1  0.20714791  0.23849303  0.00993660  1  0.109011  0  0.10419  0.105122  0  1.039483  0
H  H44  1  0.03172139  0.23884450  0.51012255  1  0.105875  0  0.104139  0.105624  0  1.039174  0
H  H45  1  0.79285294  0.76150853  0.99006468  1  0.108984  0  0.104181  0.105098  0  1.03951  0
H  H46  1  0.82523843  0.99797869  0.40336117  1  0.116355  0  0.109539  0.118185  0  1.000315  0
H  H47  1  0.82733496  0.00245198  0.09671078  1  0.111003  0  0.109799  0.118088  0  1.000447  0
H  H48  1  0.17475901  0.00202592  0.59663944  1  0.116428  0  0.109522  0.118148  0  1.000472  0
H  H49  1  0.17266740  0.99755061  0.90329055  1  0.111007  0  0.109778  0.118053  0  1.000454  0
H  H50  1  0.76522430  0.59240192  0.03446856  1  0.122831  0  0.122581  0.054484  0  1.023986  0
H  H51  1  0.17292775  0.40741097  0.46541292  1  0.128145  0  0.122432  0.054487  0  1.023493  0
H  H52  1  0.23476849  0.40759537  0.96553010  1  0.122982  0  0.122585  0.054509  0  1.023974  0
H  H53  1  0.82707868  0.59259386  0.53459134  1  0.128336  0  0.122455  0.054513  0  1.023513  0
H  H54  1  0.58249067  0.63427918  0.05408111  1  0.092691  0  0.109315  0.134647  0  1.016227  0
H  H55  1  0.94840300  0.36584047  0.44601972  1  0.092597  0  0.109315  0.135313  0  1.015569  0
H  H56  1  0.41750156  0.36571501  0.94591741  1  0.092097  0  0.109286  0.134651  0  1.016182  0
H  H57  1  0.05160382  0.63416119  0.55398319  1  0.092305  0  0.109305  0.135306  0  1.015531  0
H  H58  1  0.54337370  0.62846188  0.12443706  1  0.068854  0  0.099661  0.11334  0  1.021087  0
H  H59  1  0.91485730  0.37158488  0.37568683  1  0.068205  0  0.099632  0.113527  0  1.021086  0
H  H60  1  0.45661955  0.37153434  0.87556114  1  0.068645  0  0.099671  0.113349  0  1.021097  0
H  H61  1  0.08514606  0.62841578  0.62431644  1  0.068107  0  0.099642  0.113479  0  1.021174  0
H  H62  1  0.42096029  0.49218390  0.07362907  1  0.085681  0  0.103241  0.122083  0  0.988729  0
H  H63  1  0.92900271  0.50793675  0.42650553  1  0.037388  0  0.103291  0.122527  0  0.989426  0
H  H64  1  0.57903440  0.50780928  0.92636981  1  0.085557  0  0.103246  0.122066  0  0.988802  0
H  H65  1  0.07099970  0.49206398  0.57349896  1  0.037204  0  0.103302  0.122502  0  0.989458  0
H  H66  1  0.63714843  0.33444770  0.12614831  1  0.081324  0  0.114464  0.140855  0  0.981676  0
H  H67  1  0.30269795  0.66590259  0.37390583  1  0.084517  0  0.11426  0.140131  0  0.981679  0
H  H68  1  0.36285127  0.66554959  0.87385035  1  0.08143  0  0.114474  0.140878  0  0.98167  0
H  H69  1  0.69730234  0.33409588  0.62609531  1  0.084564  0  0.11427  0.140178  0  0.981657  0
H  H70  1  0.45445958  0.32136334  0.12122761  1  0.067696  0  0.105152  0.12152  0  1.001405  0
H  H71  1  0.13288185  0.67861738  0.37887400  1  0.082759  0  0.104863  0.120686  0  1.002037  0
H  H72  1  0.54553913  0.67863196  0.87877218  1  0.067734  0  0.105156  0.121528  0  1.00143  0
H  H73  1  0.86712343  0.32138317  0.62112764  1  0.082678  0  0.104849  0.120701  0  1.00206  0
H  H74  1  0.58943854  0.44609372  0.17178701  1  0.075733  0  0.100916  0.112597  0  1.022838  0
H  H75  1  0.14340457  0.55415851  0.32825556  1  0.041012  0  0.100722  0.11209  0  1.023062  0
H  H76  1  0.41056117  0.55390359  0.82821205  1  0.075692  0  0.100889  0.112569  0  1.022884  0
H  H77  1  0.85659628  0.44583910  0.67174838  1  0.041007  0  0.100739  0.112159  0  1.023101  0
C  C78  1  0.28220357  0.67471244  0.10514397  1  1.521091  0  0.197722  0.568532  0  4.213241  0
C  C79  1  0.60789974  0.32523217  0.39483548  1  1.506788  0  0.198845  0.569327  0  4.211447  0
C  C80  1  0.71779619  0.32528693  0.89485519  1  1.521077  0  0.197764  0.568576  0  4.213268  0
C  C81  1  0.39209346  0.67476197  0.60516223  1  1.507229  0  0.19884  0.569249  0  4.211567  0
C  C82  1  0.23992255  0.58539228  0.14921151  1  -0.027238  0  -0.021536  -0.047316  0  3.991405  0
C  C83  1  0.65477158  0.41446999  0.35074256  1  -0.044122  0  -0.02172  -0.046832  0  3.990932  0
C  C84  1  0.76007921  0.41460714  0.85078846  1  -0.02688  0  -0.021531  -0.04735  0  3.991417  0
C  C85  1  0.34522462  0.58552425  0.64925677  1  -0.044268  0  -0.021731  -0.046877  0  3.991046  0
C  C86  1  0.32912100  0.63052363  0.19825395  1  -0.046171  0  -0.082127  -0.088243  0  3.988602  0
C  C87  1  0.69908299  0.36955902  0.30171613  1  -0.046467  0  -0.082132  -0.088023  0  3.988856  0
C  C88  1  0.67087983  0.36947788  0.80174652  1  -0.046196  0  -0.082073  -0.088108  0  3.988513  0
C  C89  1  0.30092074  0.63044040  0.69828384  1  -0.047012  0  -0.082121  -0.087907  0  3.98872  0
C  C90  1  0.29881286  0.54429848  0.23816301  1  -0.050764  0  -0.090966  -0.138525  0  3.981996  0
C  C91  1  0.75454401  0.45573875  0.26176242  1  -0.008398  0  -0.09091  -0.138693  0  3.980357  0
C  C92  1  0.70118800  0.45570311  0.76183867  1  -0.050745  0  -0.091063  -0.138661  0  3.982201  0
C  C93  1  0.24545822  0.54425964  0.73823750  1  -0.008355  0  -0.09084  -0.138675  0  3.980295  0
C  C94  1  0.17656012  0.41078947  0.23092426  1  0.007503  0  -0.002317  0.074381  0  3.9979  0
C  C95  1  0.76535267  0.58906267  0.26898723  1  -0.023749  0  -0.002237  0.074557  0  3.996839  0
C  C96  1  0.82343979  0.58921415  0.76907711  1  0.008446  0  -0.002257  0.074556  0  3.997684  0
C  C97  1  0.23464603  0.41093458  0.73101102  1  -0.023771  0  -0.002258  0.074573  0  3.996908  0
C  C98  1  0.08596322  0.36804033  0.18208792  1  -0.06984  0  -0.090681  -0.133146  0  3.966671  0
C  C99  1  0.71729252  0.63159891  0.31782064  1  -0.02496  0  -0.090663  -0.133494  0  3.966852  0
C  C100  1  0.91403868  0.63196332  0.81791386  1  -0.070303  0  -0.090716  -0.133225  0  3.966619  0
C  C101  1  0.28270374  0.36839938  0.68217766  1  -0.024954  0  -0.090623  -0.133453  0  3.966869  0
C  C102  1  0.11736317  0.45343218  0.14180590  1  -0.059415  0  -0.083336  -0.080279  0  3.965107  0
C  C103  1  0.66355844  0.54618756  0.35810699  1  -0.08517  0  -0.083246  -0.080579  0  3.965997  0
C  C104  1  0.88263857  0.54656722  0.85819366  1  -0.059905  0  -0.083335  -0.080247  0  3.965127  0
C  C105  1  0.33643629  0.45380769  0.64189198  1  -0.085063  0  -0.083277  -0.080619  0  3.966243  0
C  C106  1  0.14436241  0.31788288  0.27278587  1  0.018016  0  -0.010846  0.055375  0  4.010647  0
C  C107  1  0.82599055  0.68205011  0.22713846  1  -0.034273  0  -0.01117  0.054847  0  4.011387  0
C  C108  1  0.85563656  0.68212280  0.72721560  1  0.016903  0  -0.010842  0.055242  0  4.010632  0
C  C109  1  0.17401067  0.31794825  0.77286106  1  -0.034289  0  -0.011187  0.054926  0  4.011313  0
C  C110  1  0.25850661  0.32651900  0.30787253  1  -0.039691  0  -0.087827  -0.116587  0  3.966868  0
C  C111  1  0.93160120  0.67354561  0.19205272  1  -0.025402  0  -0.088101  -0.115992  0  3.966782  0
C  C112  1  0.74148942  0.67348673  0.69212975  1  -0.039478  0  -0.087921  -0.116632  0  3.966786  0
C  C113  1  0.06840153  0.32645378  0.80794684  1  -0.025371  0  -0.088205  -0.116306  0  3.96685  0
C  C114  1  0.22810137  0.23653041  0.34630922  1  -0.000189  0  -0.087628  -0.112601  0  3.959896  0
C  C115  1  0.99129316  0.76363492  0.15366620  1  -0.043495  0  -0.087377  -0.112757  0  3.959679  0
C  C116  1  0.77189652  0.76347114  0.65369206  1  8.3e-05  0  -0.087624  -0.112565  0  3.959864  0
C  C117  1  0.00870608  0.23636342  0.84633291  1  -0.043443  0  -0.087348  -0.112548  0  3.959586  0
C  C118  1  0.08266355  0.13311762  0.35134109  1  -0.032395  0  -0.005989  0.068347  0  3.985482  0
C  C119  1  0.94929835  0.86704399  0.14865231  1  -0.040921  0  -0.00603  0.068742  0  3.983531  0
C  C120  1  0.91733045  0.86688603  0.64866070  1  -0.032908  0  -0.005998  0.068328  0  3.985481  0
C  C121  1  0.05069940  0.13295335  0.85134716  1  -0.04096  0  -0.006051  0.068584  0  3.983608  0
C  C122  1  0.96798667  0.12650389  0.31710062  1  -0.051279  0  -0.088655  -0.122178  0  3.988548  0
C  C123  1  0.84115677  0.87355500  0.18290288  1  -0.041127  0  -0.088332  -0.122476  0  3.98932  0
C  C124  1  0.03200929  0.87349973  0.68290076  1  -0.05114  0  -0.088596  -0.122126  0  3.988307  0
C  C125  1  0.15884088  0.12643818  0.81709599  1  -0.040996  0  -0.088281  -0.12239  0  3.989404  0
C  C126  1  0.99816545  0.21682289  0.27880212  1  -0.11406  0  -0.090514  -0.129168  0  4.000503  0
C  C127  1  0.78088669  0.78311649  0.22116456  1  -0.065669  0  -0.090369  -0.12894  0  4.001214  0
C  C128  1  0.00183093  0.78317960  0.72119759  1  -0.113942  0  -0.09047  -0.128967  0  4.000319  0
C  C129  1  0.21911401  0.21688082  0.77883450  1  -0.065725  0  -0.090334  -0.128905  0  4.001198  0
C  C130  1  0.05176553  0.03296078  0.39030493  1  0.017111  0  -0.003708  0.069846  0  3.982761  0
C  C131  1  0.01875046  0.96725122  0.10972034  1  -0.067176  0  -0.003444  0.069368  0  3.983743  0
C  C132  1  0.94822841  0.96704075  0.60969595  1  0.017583  0  -0.003682  0.069777  0  3.982926  0
C  C133  1  0.98125134  0.03275026  0.89027972  1  -0.066763  0  -0.003464  0.069328  0  3.983766  0
C  C134  1  0.16217221  0.99857260  0.40629450  1  -0.020065  0  -0.073476  -0.122526  0  3.88718  0
C  C135  1  0.16355650  0.00155033  0.09372975  1  -0.00928  0  -0.073856  -0.123409  0  3.888303  0
C  C136  1  0.83782928  0.00143615  0.59370671  1  -0.020124  0  -0.073502  -0.122498  0  3.887375  0
C  C137  1  0.83644273  0.99844798  0.90626895  1  -0.00926  0  -0.073833  -0.123375  0  3.888316  0
C  C138  1  0.13305217  0.90267225  0.44269191  1  0.035998  0  -0.021325  -0.043203  0  4.014268  0
C  C139  1  0.23037917  0.09726015  0.05726526  1  0.049509  0  -0.021841  -0.042815  0  4.015324  0
C  C140  1  0.86694516  0.09733016  0.55730657  1  0.035792  0  -0.021207  -0.04312  0  4.014234  0
C  C141  1  0.76962421  0.90274451  0.94273616  1  0.049786  0  -0.021851  -0.042784  0  4.01528  0
C  C142  1  0.99102551  0.83612272  0.46190101  1  -0.059708  0  -0.075885  -0.100764  0  3.941494  0
C  C143  1  0.15493491  0.16370743  0.03798146  1  -0.080548  0  -0.075636  -0.099561  0  3.94113  0
C  C144  1  0.00897826  0.16388073  0.53809752  1  -0.059525  0  -0.075918  -0.10076  0  3.941408  0
C  C145  1  0.84506549  0.83629518  0.96202028  1  -0.08077  0  -0.075605  -0.099573  0  3.941074  0
C  C146  1  0.88060225  0.86981692  0.44706010  1  -0.001062  0  -0.018399  -0.032197  0  3.988264  0
C  C147  1  0.01087406  0.13022173  0.05287416  1  -0.000798  0  -0.019033  -0.034727  0  3.990345  0
C  C148  1  0.11940057  0.13018661  0.55293965  1  -0.000951  0  -0.018386  -0.032242  0  3.988255  0
C  C149  1  0.98913035  0.86978300  0.94712848  1  -0.000948  0  -0.019034  -0.034636  0  3.990139  0
C  C150  1  0.91176719  0.96932349  0.41221776  1  -0.087028  0  -0.071267  -0.124358  0  3.89685  0
C  C151  1  0.94245911  0.03090512  0.08779436  1  -0.033653  0  -0.071147  -0.122856  0  3.895783  0
C  C152  1  0.08822660  0.03067382  0.58778131  1  -0.087674  0  -0.071289  -0.124303  0  3.89684  0
C  C153  1  0.05754224  0.96909745  0.91220656  1  -0.034115  0  -0.071096  -0.122761  0  3.895661  0
C  C154  1  0.25302024  0.87450535  0.46353277  1  1.506807  0  0.201921  0.569878  0  4.208071  0
C  C155  1  0.37848333  0.12533482  0.03641754  1  1.524763  0  0.201423  0.568849  0  4.209009  0
C  C156  1  0.74698498  0.12550099  0.53646265  1  1.506669  0  0.201882  0.569795  0  4.208279  0
C  C157  1  0.62151347  0.87466455  0.96358162  1  1.524749  0  0.201347  0.568734  0  4.209006  0
C  C158  1  0.73144159  0.80217433  0.47062407  1  1.559463  0  0.209276  0.585756  0  4.212584  0
C  C159  1  0.92941072  0.19784303  0.02928620  1  1.588182  0  0.210253  0.586974  0  4.211518  0
C  C160  1  0.26856006  0.19782290  0.52937378  1  1.559719  0  0.209296  0.585832  0  4.212609  0
C  C161  1  0.07059719  0.80216476  0.97071617  1  1.589148  0  0.210198  0.586855  0  4.211639  0
C  C162  1  0.74008169  0.51415508  0.06196162  1  1.378855  0  0.170708  0.299553  0  4.095226  0
C  C163  1  0.22605808  0.48577103  0.43795809  1  1.364724  0  0.171192  0.300745  0  4.095473  0
C  C164  1  0.25991564  0.48584535  0.93803799  1  1.378895  0  0.170753  0.299579  0  4.095342  0
C  C165  1  0.77395016  0.51422953  0.56204355  1  1.364368  0  0.171142  0.300706  0  4.095591  0
C  C166  1  0.53803753  0.56603731  0.08546074  1  0.239585  0  -0.133384  -0.276055  0  3.886428  0
C  C167  1  0.97213358  0.43404996  0.41463325  1  0.282846  0  -0.133757  -0.277377  0  3.887672  0
C  C168  1  0.46195772  0.43395897  0.91453828  1  0.240551  0  -0.133349  -0.276028  0  3.886438  0
C  C169  1  0.02786979  0.56595072  0.58537042  1  0.283366  0  -0.133706  -0.277265  0  3.887659  0
C  C170  1  0.57351913  0.39244238  0.12994071  1  0.265424  0  -0.132639  -0.267136  0  3.871277  0
C  C171  1  0.18106679  0.60774184  0.37011382  1  0.278436  0  -0.132151  -0.264138  0  3.871144  0
C  C172  1  0.42648060  0.60755495  0.87005876  1  0.265321  0  -0.132691  -0.267223  0  3.871561  0
C  C173  1  0.81893605  0.39225778  0.62988940  1  0.278352  0  -0.132173  -0.264341  0  3.871171  0
N  N174  1  0.62293415  0.49166003  0.09129399  1  -1.242583  0  -0.278112  0.040594  0  3.738021  0
N  N175  1  0.13139301  0.50838752  0.40871260  1  -1.227553  0  -0.277714  0.03844  0  3.738924  0
N  N176  1  0.37706063  0.50833728  0.90870507  1  -1.242744  0  -0.278101  0.040597  0  3.73823  0
N  N177  1  0.86861233  0.49161316  0.59129107  1  -1.227386  0  -0.277694  0.038558  0  3.738921  0
O  O178  1  0.21608664  0.62274865  0.05671247  1  -1.182191  0  -0.34563  -0.624089  0  2.398137  0
O  O179  1  0.59317966  0.37701946  0.44322443  1  -1.180286  0  -0.345787  -0.624481  0  2.396175  0
O  O180  1  0.78391306  0.37724668  0.94328771  1  -1.18216  0  -0.345675  -0.624132  0  2.39814  0
O  O181  1  0.40681200  0.62297161  0.55677354  1  -1.180376  0  -0.345687  -0.624327  0  2.396296  0
O  O182  1  0.38511138  0.79754353  0.11391780  1  -1.146312  0  -0.319499  -0.52978  0  2.113145  0
O  O183  1  0.58852069  0.20258619  0.38612271  1  -1.138046  0  -0.320192  -0.530296  0  2.112379  0
O  O184  1  0.61488739  0.20245584  0.88608135  1  -1.146344  0  -0.319503  -0.529782  0  2.113186  0
O  O185  1  0.41147794  0.79740895  0.61387463  1  -1.137895  0  -0.320256  -0.530304  0  2.112364  0
O  O186  1  0.38735598  0.94419678  0.45058534  1  -1.169385  0  -0.335866  -0.579106  0  2.297556  0
O  O187  1  0.44314285  0.05576332  0.04942763  1  -1.171846  0  -0.335756  -0.578338  0  2.297299  0
O  O188  1  0.61264476  0.05580654  0.54941116  1  -1.169217  0  -0.335864  -0.579087  0  2.297574  0
O  O189  1  0.55685485  0.94423587  0.95056869  1  -1.171846  0  -0.335738  -0.578303  0  2.297248  0
O  O190  1  0.21907038  0.78075599  0.49431523  1  -1.130462  0  -0.317883  -0.538892  0  2.205649  0
O  O191  1  0.43821900  0.21893130  0.00554785  1  -1.139104  0  -0.317547  -0.538719  0  2.204982  0
O  O192  1  0.78094372  0.21925036  0.50568020  1  -1.13055  0  -0.31787  -0.538841  0  2.205691  0
O  O193  1  0.56177977  0.78106807  0.99445131  1  -1.139111  0  -0.317491  -0.538647  0  2.204962  0
O  O194  1  0.64170662  0.85062091  0.46297510  1  -1.152759  0  -0.321923  -0.54764  0  2.289449  0
O  O195  1  0.79119615  0.14943028  0.03696231  1  -1.157513  0  -0.322758  -0.54843  0  2.289345  0
O  O196  1  0.35829164  0.14937350  0.53702707  1  -1.152713  0  -0.321946  -0.547671  0  2.289433  0
O  O197  1  0.20880807  0.85057211  0.96303577  1  -1.157698  0  -0.322769  -0.548446  0  2.289464  0
O  O198  1  0.70686380  0.70202074  0.49688460  1  -1.178873  0  -0.33444  -0.595835  0  2.339386  0
O  O199  1  0.00502049  0.29793575  0.00300021  1  -1.190564  0  -0.334345  -0.595631  0  2.338298  0
O  O200  1  0.29313920  0.29797327  0.50311107  1  -1.178919  0  -0.334436  -0.595902  0  2.339488  0
O  O201  1  0.99498900  0.70207323  0.99700465  1  -1.191193  0  -0.334322  -0.595592  0  2.338318  0
O  O202  1  0.81910724  0.45350486  0.06434172  1  -1.170303  0  -0.31666  -0.494033  0  2.339531  0
O  O203  1  0.36574981  0.54641932  0.43556638  1  -1.166737  0  -0.316803  -0.493924  0  2.339501  0
O  O204  1  0.18089159  0.54649660  0.93565794  1  -1.170366  0  -0.316704  -0.494083  0  2.33958  0
O  O205  1  0.63425662  0.45358748  0.56443635  1  -1.166624  0  -0.316867  -0.494032  0  2.339471  0
