# generated using pymatgen
data_ZnH18C17NO6
_symmetry_space_group_name_H-M   'P 1'
_cell_length_a   10.57096856
_cell_length_b   11.86275906
_cell_length_c   15.89711323
_cell_angle_alpha   90.12679710
_cell_angle_beta   88.21551608
_cell_angle_gamma   89.85879512
_symmetry_Int_Tables_number   1
_chemical_formula_structural   ZnH18C17NO6
_chemical_formula_sum   'Zn2 H36 C34 N2 O12'
_cell_volume   1992.53348801
_cell_formula_units_Z   2
loop_
 _symmetry_equiv_pos_site_id
 _symmetry_equiv_pos_as_xyz
  1  'x, y, z'
loop_
 _atom_site_type_symbol
 _atom_site_label
 _atom_site_symmetry_multiplicity
 _atom_site_fract_x
 _atom_site_fract_y
 _atom_site_fract_z
 _atom_site_occupancy
 _atom_site_pbe_bader_charge
 _atom_site_pbe_bader_spin_density
 _atom_site_pbe_cm5_charge
 _atom_site_pbe_ddec_charge
 _atom_site_pbe_ddec_spin_density
 _atom_site_pbe_ddec_sum_bond_order
 _atom_site_pbe_magmom
Zn  Zn0  1  0.62835186  0.49814690  0.50432906  1  1.317169  0  0.687641  0.86771  0  2.448409  0
Zn  Zn1  1  0.37233080  0.49897125  0.49631187  1  1.308199  0  0.686121  0.866833  0  2.444049  0
H  H2  1  0.63564671  0.36849142  0.04672357  1  0.083152  0  0.099667  0.107688  0  0.975469  0
H  H3  1  0.48302228  0.32767256  0.08607436  1  0.07504  0  0.098987  0.106147  0  0.976393  0
H  H4  1  0.54661069  0.32971636  0.91523829  1  0.03046  0  0.098781  0.105855  0  0.975869  0
H  H5  1  0.38873619  0.35122551  0.95443513  1  0.06548  0  0.099855  0.108249  0  0.97496  0
H  H6  1  0.61777889  0.64393777  0.90422287  1  0.067937  0  0.102182  0.041938  0  0.992741  0
H  H7  1  0.40463807  0.66597138  0.95563213  1  0.039249  0  0.101075  0.037851  0  1.001049  0
H  H8  1  0.57748466  0.67665402  0.04485214  1  0.007527  0  0.100546  0.039015  0  0.993851  0
H  H9  1  0.35776743  0.62815572  0.09512724  1  0.018622  0  0.102584  0.04392  0  0.990158  0
H  H10  1  0.10699440  0.43686127  0.11380842  1  0.022745  0  0.106316  0.078564  0  0.950331  0
H  H11  1  0.14089334  0.57892933  0.08704007  1  0.0448  0  0.092642  0.051803  0  1.002219  0
H  H12  1  0.22452278  0.45711159  0.24720332  1  0.039519  0  0.090247  0.093427  0  0.977784  0
H  H13  1  0.26439167  0.59649103  0.22190133  1  0.034276  0  0.087053  0.082418  0  0.9932  0
H  H14  1  0.03233657  0.65122850  0.22470320  1  0.028401  0  0.083794  0.106905  0  1.030129  0
H  H15  1  0.07988723  0.59752463  0.32236163  1  0.002688  0  0.075249  0.093878  0  1.034229  0
H  H16  1  0.99095781  0.51150480  0.25373590  1  0.000668  0  0.084542  0.108904  0  1.005576  0
H  H17  1  0.83277741  0.62113110  0.16912458  1  0.052426  0  0.100884  0.07077  0  0.992578  0
H  H18  1  0.68429515  0.68935064  0.16390422  1  0.063832  0  0.092325  0.052533  0  1.005646  0
H  H19  1  0.91775962  0.73457296  0.04900106  1  -0.002134  0  0.08667  0.074937  0  1.010851  0
H  H20  1  0.76950026  0.80104346  0.03781740  1  -0.007137  0  0.086449  0.076445  0  0.981514  0
H  H21  1  0.78417395  0.88768603  0.18248636  1  0.028602  0  0.08713  0.113438  0  0.999465  0
H  H22  1  0.91748420  0.92530474  0.11797770  1  0.011495  0  0.088205  0.11606  0  0.999691  0
H  H23  1  0.93158897  0.81963269  0.19588174  1  0.028004  0  0.084163  0.106718  0  1.021645  0
H  H24  1  0.15101591  0.60130758  0.83271716  1  0.03534  0  0.101641  0.071579  0  0.981308  0
H  H25  1  0.30067676  0.66789937  0.83260767  1  0.03068  0  0.091756  0.051472  0  1.007477  0
H  H26  1  0.07083863  0.71869013  0.94971271  1  -0.024277  0  0.086323  0.073454  0  1.015021  0
H  H27  1  0.22232918  0.77533007  0.96640334  1  0.010815  0  0.086835  0.077481  0  0.984531  0
H  H28  1  0.22290893  0.87374821  0.82759244  1  -0.016382  0  0.086738  0.112501  0  1.000288  0
H  H29  1  0.08385327  0.91119374  0.88682558  1  0.029138  0  0.088046  0.116045  0  0.999519  0
H  H30  1  0.07600916  0.81203189  0.80348819  1  0.026733  0  0.083982  0.106868  0  1.031327  0
H  H31  1  0.89843935  0.49270432  0.87391995  1  0.031805  0  0.105967  0.078788  0  0.951568  0
H  H32  1  0.83905967  0.62802303  0.90258260  1  0.011324  0  0.091452  0.0486  0  1.003831  0
H  H33  1  0.76633938  0.49195746  0.74602168  1  0.05398  0  0.089542  0.092979  0  0.981138  0
H  H34  1  0.70081632  0.62305446  0.77385905  1  0.018043  0  0.087071  0.082054  0  0.994466  0
H  H35  1  0.91618017  0.71472859  0.76020532  1  0.027363  0  0.084097  0.109471  0  1.023103  0
H  H36  1  0.87038769  0.65137350  0.66518952  1  0.01359  0  0.079846  0.105972  0  1.021451  0
H  H37  1  0.98382214  0.58362801  0.72893533  1  0.010222  0  0.079776  0.099464  0  1.024178  0
C  C38  1  0.50816021  0.71737783  0.50707267  1  1.68669  0  0.220866  0.661204  0  4.246491  0
C  C39  1  0.46479632  0.49457815  0.75211680  1  0.164701  0  -0.053724  -0.219381  0  3.964276  0
C  C40  1  0.52975997  0.50957001  0.24802769  1  0.162741  0  -0.055099  -0.221997  0  3.964651  0
C  C41  1  0.51473058  0.50885165  0.08132404  1  0.108925  0  -0.004722  0.054349  0  3.886481  0
C  C42  1  0.48507622  0.50470540  0.91827154  1  0.098362  0  -0.004717  0.052527  0  3.889045  0
C  C43  1  0.48583075  0.38368114  0.95535011  1  0.006484  0  -0.153155  -0.179512  0  3.845501  0
C  C44  1  0.53411968  0.38791582  0.04556510  1  -0.075046  0  -0.153744  -0.180214  0  3.846723  0
C  C45  1  0.47030640  0.50016878  0.82824781  1  -0.409794  0  -0.008917  0.007502  0  4.024838  0
C  C46  1  0.52761466  0.51001369  0.17161495  1  -0.400895  0  -0.009476  0.00651  0  4.022494  0
C  C47  1  0.52235710  0.50751102  0.33843002  1  1.609858  0  0.223473  0.683226  0  4.217217  0
C  C48  1  0.46898828  0.49204291  0.66174772  1  1.618905  0  0.222325  0.681248  0  4.217594  0
C  C49  1  0.50853304  0.94192663  0.50341834  1  -0.379782  0  -0.015925  0.020732  0  4.25633  0
C  C50  1  0.50900814  0.83887780  0.50620804  1  0.298675  0  -0.014694  -0.142241  0  3.867594  0
C  C51  1  0.06480904  0.49817277  0.49603786  1  1.057611  0  0.30445  0.294471  0  3.913878  0
C  C52  1  0.93572946  0.49623808  0.50420754  1  0.952735  0  0.304778  0.296143  0  3.911987  0
C  C53  1  0.50412806  0.28000323  0.49514157  1  1.73905  0  0.222549  0.664619  0  4.239108  0
C  C54  1  0.61137505  0.58916836  0.03525756  1  0.506697  0  0.008031  0.064003  0  3.827793  0
C  C55  1  0.37933867  0.54990322  0.05977756  1  0.510842  0  0.010485  0.071589  0  3.830073  0
C  C56  1  0.61239485  0.56321455  0.93851568  1  0.474959  0  0.011533  0.076025  0  3.81919  0
C  C57  1  0.37905626  0.57624693  0.96386702  1  0.489081  0  0.006028  0.062403  0  3.83774  0
C  C58  1  0.50739359  0.05547388  0.50008523  1  -0.334825  0  -0.015974  0.018083  0  4.253508  0
C  C59  1  0.50576513  0.15849295  0.49693400  1  0.121565  0  -0.01147  -0.134777  0  3.858137  0
C  C60  1  0.17575426  0.50523141  0.12187355  1  0.447043  0  -0.070115  0.02969  0  3.920544  0
C  C61  1  0.19009282  0.53255566  0.21491236  1  -0.018552  0  -0.175689  -0.144757  0  3.98496  0
C  C62  1  0.06653015  0.57500520  0.25613130  1  -0.055354  0  -0.245001  -0.344447  0  3.989408  0
C  C63  1  0.76847964  0.66301075  0.12598039  1  0.403127  0  -0.074432  0.02162  0  3.921421  0
C  C64  1  0.83282692  0.76433280  0.08438538  1  0.028574  0  -0.172798  -0.137635  0  3.99735  0
C  C65  1  0.86841949  0.85414771  0.14856619  1  -0.065478  0  -0.242354  -0.348877  0  3.980458  0
C  C66  1  0.21923858  0.64268141  0.87341005  1  0.456466  0  -0.073168  0.025607  0  3.917175  0
C  C67  1  0.15931437  0.74515777  0.91717731  1  0.014798  0  -0.172629  -0.140054  0  3.996645  0
C  C68  1  0.13404451  0.84076824  0.85554411  1  -0.029798  0  -0.243376  -0.348987  0  3.980234  0
C  C69  1  0.81630843  0.54925008  0.86904644  1  0.467868  0  -0.06941  0.03045  0  3.91672  0
C  C70  1  0.78781022  0.57223920  0.77712782  1  -0.023178  0  -0.176039  -0.144068  0  3.982337  0
C  C71  1  0.89566367  0.63335119  0.73034564  1  -0.067128  0  -0.246839  -0.349592  0  3.991161  0
N  N72  1  0.17447775  0.49985242  0.48901288  1  -0.96106  0  -0.171223  -0.135779  0  2.945875  0
N  N73  1  0.82608003  0.49464547  0.51137438  1  -0.950452  0  -0.170905  -0.136968  0  2.949443  0
O  O74  1  0.61129432  0.66863286  0.52560742  1  -1.14142  0  -0.313611  -0.540441  0  2.239008  0
O  O75  1  0.40425634  0.67051767  0.48861572  1  -1.135149  0  -0.310995  -0.540802  0  2.247362  0
O  O76  1  0.62351998  0.52641850  0.37806754  1  -1.141483  0  -0.319952  -0.552223  0  2.245516  0
O  O77  1  0.41309404  0.48675491  0.37151645  1  -1.137982  0  -0.310567  -0.544363  0  2.277634  0
O  O78  1  0.57694772  0.47073779  0.62673530  1  -1.143859  0  -0.31072  -0.548186  0  2.281592  0
O  O79  1  0.36640308  0.51202369  0.62386866  1  -1.1343  0  -0.319964  -0.549153  0  2.239463  0
O  O80  1  0.61067175  0.32829202  0.48265940  1  -1.131203  0  -0.31395  -0.542198  0  2.244469  0
O  O81  1  0.39648549  0.32705789  0.50666205  1  -1.128551  0  -0.31114  -0.539791  0  2.243755  0
O  O82  1  0.29161376  0.46468039  0.08311356  1  -1.045161  0  -0.218374  -0.229415  0  2.48434  0
O  O83  1  0.73518173  0.57864001  0.06544629  1  -1.053216  0  -0.222857  -0.236417  0  2.48535  0
O  O84  1  0.25716705  0.55788126  0.93218632  1  -1.033717  0  -0.223072  -0.237516  0  2.470066  0
O  O85  1  0.71401588  0.49229377  0.91250958  1  -1.047767  0  -0.219895  -0.230945  0  2.480392  0
