# generated using pymatgen
data_NiH20C24(NO3)2
_symmetry_space_group_name_H-M   'P 1'
_cell_length_a   9.41181682
_cell_length_b   9.27260969
_cell_length_c   12.15860993
_cell_angle_alpha   101.20492409
_cell_angle_beta   90.00448343
_cell_angle_gamma   89.99878083
_symmetry_Int_Tables_number   1
_chemical_formula_structural   NiH20C24(NO3)2
_chemical_formula_sum   'Ni2 H40 C48 N4 O12'
_cell_volume   1040.88112174
_cell_formula_units_Z   2
loop_
 _symmetry_equiv_pos_site_id
 _symmetry_equiv_pos_as_xyz
  1  'x, y, z'
loop_
 _atom_site_type_symbol
 _atom_site_label
 _atom_site_symmetry_multiplicity
 _atom_site_fract_x
 _atom_site_fract_y
 _atom_site_fract_z
 _atom_site_occupancy
 _atom_site_pbe_bader_charge
 _atom_site_pbe_bader_spin_density
 _atom_site_pbe_cm5_charge
 _atom_site_pbe_ddec_charge
 _atom_site_pbe_ddec_spin_density
 _atom_site_pbe_ddec_sum_bond_order
 _atom_site_pbe_magmom
Ni  Ni0  1  0.99999626  0.49999726  0.50000290  1  0.940755  0  0.583835  0.504884  0  2.69934  0
Ni  Ni1  1  0.49999944  0.50000064  0.99999694  1  0.94086  0  0.58374  0.504521  0  2.699917  0
H  H2  1  0.81804448  0.07822772  0.46932954  1  0.087337  0  0.102567  0.104526  0  1.043402  0
H  H3  1  0.31804983  0.92173226  0.03063666  1  0.087194  0  0.102458  0.104417  0  1.043532  0
H  H4  1  0.18195194  0.92177144  0.53067181  1  0.087429  0  0.102534  0.104451  0  1.043232  0
H  H5  1  0.68193597  0.07827793  0.96936780  1  0.087838  0  0.10242  0.104266  0  1.043535  0
H  H6  1  0.57764302  0.77309629  0.22831410  1  0.080869  0  0.100333  0.09797  0  1.046587  0
H  H7  1  0.07782252  0.22696593  0.27168547  1  0.082469  0  0.100229  0.098028  0  1.046324  0
H  H8  1  0.42235978  0.22690846  0.77169129  1  0.080795  0  0.100294  0.097988  0  1.046597  0
H  H9  1  0.92216115  0.77305404  0.72831616  1  0.082638  0  0.100251  0.097975  0  1.04672  0
H  H10  1  0.56939564  0.95392651  0.10284894  1  0.066808  0  0.097029  0.090187  0  1.034823  0
H  H11  1  0.06949924  0.04613201  0.39716770  1  0.067488  0  0.097067  0.090323  0  1.034567  0
H  H12  1  0.43061141  0.04607638  0.89716771  1  0.066647  0  0.096975  0.090102  0  1.034816  0
H  H13  1  0.93051418  0.95387580  0.60282986  1  0.067373  0  0.097041  0.090318  0  1.03442  0
H  H14  1  0.69177960  0.19749008  0.15964929  1  0.093888  0  0.106915  0.115456  0  1.020607  0
H  H15  1  0.19178324  0.80250843  0.34031056  1  0.094173  0  0.106926  0.115553  0  1.020766  0
H  H16  1  0.30821895  0.80252012  0.84035517  1  0.093837  0  0.10695  0.115554  0  1.020686  0
H  H17  1  0.80821743  0.19750477  0.65968442  1  0.093993  0  0.106908  0.115531  0  1.020757  0
H  H18  1  0.72357313  0.49762251  0.60391706  1  0.099031  0  0.124041  0.100806  0  1.010615  0
H  H19  1  0.22357288  0.50232750  0.89604879  1  0.097912  0  0.124099  0.100754  0  1.011004  0
H  H20  1  0.27642542  0.50237254  0.39609363  1  0.099405  0  0.124028  0.100806  0  1.010748  0
H  H21  1  0.77642992  0.49765490  0.10394131  1  0.098215  0  0.124098  0.100805  0  1.010933  0
H  H22  1  0.50004085  0.63938529  0.60570302  1  0.135083  0  0.105518  0.12274  0  1.042455  0
H  H23  1  0.00003526  0.36060790  0.89427222  1  0.176831  0  0.105507  0.122747  0  1.042381  0
H  H24  1  0.49995876  0.36061614  0.39430111  1  0.135294  0  0.105475  0.12265  0  1.042478  0
H  H25  1  0.99997923  0.63936755  0.10570462  1  0.177326  0  0.105554  0.122801  0  1.042292  0
H  H26  1  0.48250845  0.83152529  0.48373856  1  0.088727  0  0.108266  0.111563  0  0.997188  0
H  H27  1  0.98250536  0.16851392  0.01628159  1  0.088591  0  0.108307  0.111757  0  0.99703  0
H  H28  1  0.51750498  0.16847960  0.51627179  1  0.088938  0  0.108252  0.111556  0  0.997169  0
H  H29  1  0.01750912  0.83145149  0.98368900  1  0.089483  0  0.108293  0.111666  0  0.996938  0
H  H30  1  0.92178213  0.73687056  0.39270677  1  0.160703  0  0.125893  0.121198  0  1.004507  0
H  H31  1  0.42182472  0.26314319  0.10729870  1  0.16072  0  0.125924  0.121147  0  1.00416  0
H  H32  1  0.07822492  0.26311897  0.60730236  1  0.160741  0  0.12596  0.121255  0  1.004465  0
H  H33  1  0.57817170  0.73686509  0.89271538  1  0.160824  0  0.125922  0.121174  0  1.004231  0
H  H34  1  0.00832504  0.50811212  0.73130874  1  0.636628  0  0.275331  0.36061  0  0.9953  0
H  H35  1  0.50835466  0.49189217  0.76867755  1  0.636551  0  0.275202  0.360304  0  0.995685  0
H  H36  1  0.99167563  0.49189482  0.26869693  1  0.636715  0  0.275254  0.360533  0  0.995453  0
H  H37  1  0.49164920  0.50810663  0.23131142  1  0.636513  0  0.275217  0.360388  0  0.995524  0
H  H38  1  0.84934342  0.45160407  0.75091604  1  0.621313  0  0.285273  0.369146  0  0.966958  0
H  H39  1  0.34935125  0.54833245  0.74908822  1  0.621124  0  0.285112  0.36897  0  0.967168  0
H  H40  1  0.15065513  0.54840390  0.24908730  1  0.621243  0  0.285214  0.369081  0  0.966982  0
H  H41  1  0.65064623  0.45165227  0.25090630  1  0.621224  0  0.28509  0.368968  0  0.967186  0
C  C42  1  0.76219446  0.15173385  0.31759528  1  -0.034602  0  -0.018259  -0.028547  0  3.979994  0
C  C43  1  0.26217541  0.84826614  0.18238987  1  -0.034806  0  -0.018251  -0.028524  0  3.980079  0
C  C44  1  0.23779983  0.84825883  0.68240934  1  -0.034856  0  -0.01831  -0.028664  0  3.980356  0
C  C45  1  0.73781357  0.15175446  0.81759621  1  -0.03528  0  -0.01818  -0.028596  0  3.980252  0
C  C46  1  0.76440292  0.04963793  0.38878875  1  -0.049459  0  -0.083393  -0.149592  0  3.950128  0
C  C47  1  0.26440817  0.95035961  0.11118882  1  -0.049969  0  -0.083242  -0.149758  0  3.949818  0
C  C48  1  0.23560413  0.95035839  0.61122786  1  -0.04868  0  -0.083249  -0.149375  0  3.949932  0
C  C49  1  0.73558719  0.04964458  0.88879757  1  -0.050201  0  -0.083191  -0.149489  0  3.949227  0
C  C50  1  0.69855074  0.91279145  0.35682207  1  -0.025155  0  -0.008157  0.062308  0  4.018401  0
C  C51  1  0.19858439  0.08723814  0.14315713  1  -0.025516  0  -0.008074  0.062912  0  4.018628  0
C  C52  1  0.30145312  0.08721325  0.64318166  1  -0.025572  0  -0.008184  0.062192  0  4.018852  0
C  C53  1  0.80142053  0.91275293  0.85683000  1  -0.025496  0  -0.008092  0.062823  0  4.018754  0
C  C54  1  0.62830559  0.87987984  0.25332169  1  -0.062212  0  -0.084342  -0.112164  0  3.942772  0
C  C55  1  0.12841352  0.12015890  0.24665913  1  -0.063046  0  -0.084226  -0.112367  0  3.942083  0
C  C56  1  0.37169615  0.12012276  0.74668506  1  -0.062187  0  -0.08424  -0.112186  0  3.943068  0
C  C57  1  0.87158184  0.87983901  0.75333713  1  -0.063326  0  -0.084357  -0.112479  0  3.943097  0
C  C58  1  0.62511753  0.98160696  0.18265873  1  0.006813  0  -0.090927  -0.075471  0  4.011615  0
C  C59  1  0.12519473  0.01842776  0.31733204  1  0.006157  0  -0.090945  -0.075573  0  4.010738  0
C  C60  1  0.37487889  0.01839230  0.81734593  1  0.007001  0  -0.090883  -0.075312  0  4.011473  0
C  C61  1  0.87481019  0.98156912  0.68266655  1  0.006333  0  -0.090896  -0.075561  0  4.010362  0
C  C62  1  0.69293105  0.11676513  0.21380245  1  -0.011841  0  -0.081157  -0.086267  0  3.937275  0
C  C63  1  0.19295122  0.88322085  0.28617886  1  -0.012072  0  -0.0812  -0.086361  0  3.937241  0
C  C64  1  0.30705900  0.88322653  0.78620450  1  -0.01208  0  -0.081169  -0.086377  0  3.937116  0
C  C65  1  0.80704414  0.11678691  0.71381705  1  -0.011756  0  -0.081138  -0.086194  0  3.936998  0
C  C66  1  0.83733170  0.29629351  0.34841022  1  1.509686  0  0.213561  0.549545  0  4.182758  0
C  C67  1  0.33732691  0.70367067  0.15156353  1  1.510003  0  0.213636  0.549491  0  4.182327  0
C  C68  1  0.16267429  0.70371905  0.65160031  1  1.510049  0  0.213575  0.549784  0  4.183234  0
C  C69  1  0.66267164  0.29633484  0.84843043  1  1.509857  0  0.213329  0.549139  0  4.183077  0
C  C70  1  0.71405376  0.58560255  0.55659268  1  0.479338  0  0.049538  0.071927  0  3.890736  0
C  C71  1  0.21406084  0.41440099  0.94336234  1  0.481721  0  0.049424  0.072162  0  3.892137  0
C  C72  1  0.28594160  0.41440124  0.44341751  1  0.479063  0  0.049558  0.071922  0  3.891254  0
C  C73  1  0.78594408  0.58559016  0.05662727  1  0.480799  0  0.049508  0.072223  0  3.891746  0
C  C74  1  0.58823701  0.66352887  0.55413535  1  -0.036526  0  -0.079454  -0.105628  0  3.96311  0
C  C75  1  0.08826624  0.33649865  0.94584023  1  -0.078822  0  -0.079405  -0.105645  0  3.962824  0
C  C76  1  0.41176366  0.33647817  0.44587363  1  -0.036325  0  -0.07934  -0.10542  0  3.962897  0
C  C77  1  0.91174400  0.66349104  0.05413684  1  -0.079324  0  -0.079603  -0.105999  0  3.963122  0
C  C78  1  0.58078433  0.77077434  0.48864595  1  -0.024751  0  -0.0615  -0.070108  0  3.907505  0
C  C79  1  0.08080755  0.22924422  0.01136041  1  -0.024413  0  -0.061538  -0.07043  0  3.907389  0
C  C80  1  0.41922272  0.22923170  0.51136619  1  -0.02492  0  -0.061582  -0.070245  0  3.907365  0
C  C81  1  0.91919737  0.77074019  0.98862338  1  -0.02462  0  -0.061438  -0.070098  0  3.907257  0
C  C82  1  0.70147970  0.80148211  0.42974819  1  -0.016127  0  0.003187  0.033587  0  3.99333  0
C  C83  1  0.20147047  0.19848231  0.07025058  1  -0.016419  0  0.00319  0.033628  0  3.993812  0
C  C84  1  0.29853266  0.19851512  0.57026196  1  -0.016572  0  0.00313  0.033655  0  3.993197  0
C  C85  1  0.79852382  0.80151458  0.92974801  1  -0.016277  0  0.003156  0.0336  0  3.9936  0
C  C86  1  0.82526101  0.72129702  0.43850471  1  0.46499  0  0.050658  0.029397  0  3.84868  0
C  C87  1  0.32525560  0.27870478  0.06147405  1  0.46312  0  0.050641  0.02945  0  3.846992  0
C  C88  1  0.17474285  0.27869918  0.56150777  1  0.465129  0  0.050659  0.029357  0  3.848103  0
C  C89  1  0.67473976  0.72129984  0.93852721  1  0.463299  0  0.05063  0.029339  0  3.847362  0
N  N90  1  0.83032712  0.61417071  0.49941271  1  -1.192052  0  -0.334153  -0.155584  0  3.673218  0
N  N91  1  0.33030868  0.38584139  0.00054716  1  -1.191123  0  -0.334175  -0.155869  0  3.673493  0
N  N92  1  0.16967780  0.38582649  0.50059662  1  -1.192119  0  -0.334134  -0.15562  0  3.673455  0
N  N93  1  0.66968668  0.61416302  0.99944666  1  -1.191327  0  -0.334128  -0.155797  0  3.673472  0
O  O94  1  0.89558323  0.32211535  0.44721143  1  -1.082286  0  -0.294588  -0.479757  0  2.411012  0
O  O95  1  0.39557573  0.67788258  0.05275901  1  -1.08203  0  -0.2945  -0.479531  0  2.410323  0
O  O96  1  0.10441745  0.67787996  0.55280834  1  -1.082507  0  -0.294566  -0.47989  0  2.410931  0
O  O97  1  0.60441857  0.32211832  0.94722695  1  -1.081923  0  -0.294507  -0.479496  0  2.41076  0
O  O98  1  0.84361697  0.38067867  0.27884749  1  -1.186929  0  -0.306845  -0.54918  0  2.23637  0
O  O99  1  0.34358544  0.61930662  0.22114097  1  -1.186867  0  -0.306898  -0.54925  0  2.236591  0
O  O100  1  0.15637202  0.61933350  0.72114982  1  -1.187237  0  -0.306964  -0.549316  0  2.236773  0
O  O101  1  0.65641417  0.38069543  0.77884679  1  -1.187119  0  -0.306685  -0.548896  0  2.236669  0
O  O102  1  0.94739177  0.42152759  0.73271217  1  -1.279593  0  -0.597324  -0.781124  0  2.031821  0
O  O103  1  0.44740744  0.57844655  0.76722439  1  -1.279455  0  -0.597041  -0.780585  0  2.032355  0
O  O104  1  0.05260146  0.57847569  0.26728068  1  -1.279642  0  -0.597213  -0.780954  0  2.032076  0
O  O105  1  0.55259005  0.42154805  0.23277061  1  -1.279462  0  -0.597043  -0.780634  0  2.032292  0
