# generated using pymatgen
data_Zr3H14C25ClO26
_symmetry_space_group_name_H-M   'P 1'
_cell_length_a   14.85018751
_cell_length_b   14.86253750
_cell_length_c   14.86063699
_cell_angle_alpha   60.02350777
_cell_angle_beta   59.99230761
_cell_angle_gamma   59.97833054
_symmetry_Int_Tables_number   1
_chemical_formula_structural   Zr3H14C25ClO26
_chemical_formula_sum   'Zr6 H28 C50 Cl2 O52'
_cell_volume   2319.14536945
_cell_formula_units_Z   2
loop_
 _symmetry_equiv_pos_site_id
 _symmetry_equiv_pos_as_xyz
  1  'x, y, z'
loop_
 _atom_site_type_symbol
 _atom_site_label
 _atom_site_symmetry_multiplicity
 _atom_site_fract_x
 _atom_site_fract_y
 _atom_site_fract_z
 _atom_site_occupancy
 _atom_site_pbe_bader_charge
 _atom_site_pbe_bader_spin_density
 _atom_site_pbe_cm5_charge
 _atom_site_pbe_ddec_charge
 _atom_site_pbe_ddec_spin_density
 _atom_site_pbe_ddec_sum_bond_order
 _atom_site_pbe_magmom
Zr  Zr0  1  0.88032691  0.88116788  0.61924114  1  2.636318  0  1.633452  2.365464  0  2.745042  0
Zr  Zr1  1  0.11736423  0.11880943  0.38141319  1  2.631461  0  1.641067  2.373849  0  2.76969  0
Zr  Zr2  1  0.11739586  0.88216831  0.61815530  1  2.629749  0  1.640996  2.373948  0  2.769295  0
Zr  Zr3  1  0.88028491  0.11986126  0.38057142  1  2.634177  0  1.633787  2.365632  0  2.745216  0
Zr  Zr4  1  0.11665711  0.88211311  0.38148655  1  2.63467  0  1.635571  2.366789  0  2.765444  0
Zr  Zr5  1  0.88022773  0.11898332  0.61827513  1  2.628204  0  1.636024  2.365695  0  2.76733  0
H  H6  1  0.09245176  0.72003192  0.59323223  1  0.627844  0  0.336597  0.432063  0  0.845286  0
H  H7  1  0.09231224  0.09390160  0.21935285  1  0.621926  0  0.336551  0.431442  0  0.84559  0
H  H8  1  0.09262591  0.09394518  0.59315878  1  0.624812  0  0.336446  0.432597  0  0.844369  0
H  H9  1  0.71748913  0.09428424  0.59363579  1  0.618745  0  0.334062  0.429348  0  0.846642  0
H  H10  1  0.74965736  0.62873248  0.95923797  1  0.096549  0  0.104104  0.123784  0  0.987568  0
H  H11  1  0.83573156  0.54386996  0.87406922  1  0.085977  0  0.103168  0.121083  0  0.985653  0
H  H12  1  0.83566486  0.37538016  0.04246443  1  0.083184  0  0.103405  0.122102  0  0.984553  0
H  H13  1  0.74938241  0.46048149  0.12737833  1  0.09797  0  0.104296  0.12467  0  0.987186  0
H  H14  1  0.14681132  0.35145838  0.34320420  1  0.640369  0  0.306164  0.34077  0  0.986511  0
H  H15  1  0.84783896  0.65318343  0.65294590  1  0.632196  0  0.30987  0.342624  0  0.983001  0
H  H16  1  0.14877365  0.65586413  0.34359653  1  0.635396  0  0.309757  0.342877  0  0.97904  0
H  H17  1  0.84523465  0.34841667  0.65314182  1  0.641341  0  0.309154  0.342084  0  0.979611  0
H  H18  1  0.34614741  0.15169174  0.15395740  1  0.632709  0  0.306136  0.340064  0  0.988373  0
H  H19  1  0.65984969  0.84157925  0.85270424  1  0.615647  0  0.310188  0.343082  0  0.983333  0
H  H20  1  0.65326480  0.15146863  0.84967035  1  0.637071  0  0.309915  0.342669  0  0.97903  0
H  H21  1  0.35128919  0.84242569  0.15651485  1  0.631347  0  0.309417  0.343043  0  0.978057  0
H  H22  1  0.84526101  0.15401568  0.84762799  1  0.635042  0  0.309182  0.342938  0  0.978919  0
H  H23  1  0.14863061  0.84423397  0.15538673  1  0.631331  0  0.309632  0.342631  0  0.979223  0
H  H24  1  0.84766249  0.15371522  0.15256137  1  0.634759  0  0.309645  0.342372  0  0.983992  0
H  H25  1  0.14668269  0.84387180  0.85091815  1  0.638097  0  0.306136  0.34117  0  0.986968  0
H  H26  1  0.35118889  0.65735289  0.34170012  1  0.62758  0  0.309633  0.343617  0  0.977187  0
H  H27  1  0.65328765  0.35011526  0.65079482  1  0.634512  0  0.309996  0.343101  0  0.978832  0
H  H28  1  0.65971321  0.35335738  0.34085385  1  0.620346  0  0.310525  0.347266  0  0.976864  0
H  H29  1  0.34620846  0.65454834  0.65105529  1  0.630993  0  0.306289  0.34061  0  0.988114  0
H  H30  1  0.34910070  0.84507490  0.64959335  1  0.618479  0  0.308887  0.342601  0  0.979668  0
H  H31  1  0.65475576  0.15058337  0.34436448  1  0.626481  0  0.309173  0.343093  0  0.979662  0
H  H32  1  0.65479262  0.84514545  0.64972679  1  0.623609  0  0.309364  0.34282  0  0.980035  0
H  H33  1  0.34914307  0.15064976  0.34400004  1  0.619642  0  0.309349  0.343289  0  0.978798  0
C  C34  1  0.99684733  0.69644594  0.49710468  1  1.440272  0  0.233304  0.66432  0  4.047036  0
C  C35  1  0.30824105  0.99645016  0.19656737  1  1.427123  0  0.233092  0.664573  0  4.045956  0
C  C36  1  0.99603750  0.30885872  0.49861707  1  1.4612  0  0.233242  0.66502  0  4.045511  0
C  C37  1  0.69633365  0.99729905  0.80969015  1  1.407088  0  0.234264  0.665664  0  4.046932  0
C  C38  1  0.99704826  0.70148224  0.80438501  1  1.521818  0  0.240743  0.669926  0  4.06151  0
C  C39  1  0.69565546  0.99779519  0.49707764  1  1.413985  0  0.233832  0.666025  0  4.042907  0
C  C40  1  0.99674250  0.30513911  0.20083520  1  1.534566  0  0.240872  0.669584  0  4.062996  0
C  C41  1  0.30836917  0.99764719  0.49667148  1  1.429306  0  0.233632  0.66553  0  4.045066  0
C  C42  1  0.30824840  0.69726105  0.49580862  1  1.415394  0  0.233889  0.667096  0  4.042984  0
C  C43  1  0.99604637  0.99944527  0.80816724  1  1.456515  0  0.233759  0.666148  0  4.045931  0
C  C44  1  0.69623936  0.31029634  0.49661305  1  1.407101  0  0.233589  0.664326  0  4.049101  0
C  C45  1  0.99672820  0.99774753  0.19588386  1  1.408102  0  0.234112  0.665311  0  4.046731  0
C  C46  1  0.99681584  0.40655554  0.49902413  1  0.042879  0  -0.049586  -0.302917  0  4.016853  0
C  C47  1  0.99775045  0.59706941  0.49852641  1  0.040159  0  -0.04969  -0.304719  0  4.02192  0
C  C48  1  0.07960187  0.45495173  0.41500200  1  0.577864  0  0.075467  0.204553  0  4.053506  0
C  C49  1  0.91618527  0.54741020  0.58375396  1  0.614856  0  0.072044  0.195562  0  4.058865  0
C  C50  1  0.07999039  0.54944983  0.41470352  1  0.565486  0  0.073947  0.200021  0  4.053338  0
C  C51  1  0.91529931  0.45351746  0.58364428  1  0.536073  0  0.073007  0.196645  0  4.062811  0
C  C52  1  0.40714380  0.99618044  0.09876960  1  -0.030912  0  -0.049467  -0.302483  0  4.016772  0
C  C53  1  0.59872598  0.99630254  0.90856739  1  0.056576  0  -0.049478  -0.30495  0  4.022392  0
C  C54  1  0.45394655  0.08053254  0.04998566  1  0.644243  0  0.075091  0.20373  0  4.053019  0
C  C55  1  0.55229692  0.91152725  0.95780339  1  0.588969  0  0.072761  0.197188  0  4.056517  0
C  C56  1  0.54872709  0.08072367  0.95558332  1  0.580277  0  0.075357  0.201534  0  4.049962  0
C  C57  1  0.45705170  0.91187999  0.05145458  1  0.570974  0  0.073126  0.196058  0  4.062423  0
C  C58  1  0.99670268  0.99970503  0.90599214  1  0.039975  0  -0.0494  -0.303023  0  4.016376  0
C  C59  1  0.99756574  0.99916609  0.09656268  1  0.051537  0  -0.049836  -0.304943  0  4.022603  0
C  C60  1  0.91519337  0.08435570  0.95292302  1  0.590458  0  0.072883  0.197041  0  4.061431  0
C  C61  1  0.07979043  0.91526546  0.04899639  1  0.568648  0  0.074871  0.200089  0  4.053576  0
C  C62  1  0.91602169  0.08444807  0.04683738  1  0.557848  0  0.072438  0.195889  0  4.057958  0
C  C63  1  0.07942489  0.91556914  0.95450105  1  0.577482  0  0.075321  0.204573  0  4.052152  0
C  C64  1  0.40716143  0.59947241  0.49546896  1  0.02447  0  -0.049566  -0.302777  0  4.015826  0
C  C65  1  0.59870231  0.40923926  0.49555603  1  0.056533  0  -0.049569  -0.304387  0  4.021959  0
C  C66  1  0.45703210  0.55223617  0.41110473  1  0.593292  0  0.073291  0.196475  0  4.063088  0
C  C67  1  0.54875310  0.45617778  0.58003855  1  0.592203  0  0.074759  0.200155  0  4.051493  0
C  C68  1  0.55226289  0.45854194  0.41073217  1  0.525298  0  0.072775  0.19687  0  4.058579  0
C  C69  1  0.45399403  0.55060125  0.57984980  1  0.618451  0  0.07563  0.204354  0  4.052832  0
C  C70  1  0.00275632  0.60069642  0.90368526  1  -0.011411  0  -0.014392  -0.136612  0  3.934307  0
C  C71  1  0.00250019  0.40446767  0.10005122  1  0.002185  0  -0.014557  -0.136612  0  3.933077  0
C  C72  1  0.92383521  0.54945336  0.95466654  1  0.066579  0  -0.002112  0.06969  0  3.890648  0
C  C73  1  0.08561011  0.45358940  0.04879610  1  0.068027  0  0.018797  0.062122  0  3.980303  0
C  C74  1  0.92368955  0.45559607  0.04861202  1  -0.005215  0  -0.001946  0.070686  0  3.890112  0
C  C75  1  0.08570812  0.54933122  0.95302090  1  0.145014  0  0.019496  0.063612  0  3.981019  0
C  C76  1  0.82232687  0.55534394  0.94791663  1  -0.024832  0  -0.145683  -0.190349  0  3.830552  0
C  C77  1  0.82218733  0.44914941  0.05411492  1  -0.041386  0  -0.145963  -0.193321  0  3.831042  0
C  C78  1  0.40648215  0.99783109  0.49685993  1  0.039028  0  -0.049514  -0.305237  0  4.021497  0
C  C79  1  0.59738430  0.99786916  0.49703011  1  0.095617  0  -0.048899  -0.305234  0  4.0191  0
C  C80  1  0.45448826  0.91482967  0.58028480  1  0.581406  0  0.075014  0.199985  0  4.056505  0
C  C81  1  0.54899881  0.08123085  0.41399859  1  0.55787  0  0.074577  0.200211  0  4.053609  0
C  C82  1  0.54899889  0.91485776  0.58036384  1  0.555574  0  0.074535  0.19913  0  4.054431  0
C  C83  1  0.45444295  0.08126390  0.41394153  1  0.574245  0  0.074404  0.198775  0  4.057699  0
Cl  Cl84  1  0.19159741  0.40064899  0.09727040  1  -0.133772  0  0.040178  0.004224  0  1.710331  0
Cl  Cl85  1  0.19167771  0.59772479  0.90032455  1  -0.123843  0  0.039975  0.004041  0  1.709152  0
O  O86  1  0.92075883  0.73950039  0.57298654  1  -1.190243  0  -0.353793  -0.628196  0  2.322088  0
O  O87  1  0.26467185  0.07299091  0.23889354  1  -1.188218  0  -0.353208  -0.627421  0  2.320602  0
O  O88  1  0.07223845  0.26571130  0.42302048  1  -1.196112  0  -0.351465  -0.623073  0  2.32191  0
O  O89  1  0.73901055  0.92167748  0.76637088  1  -1.18262  0  -0.354659  -0.629573  0  2.32325  0
O  O90  1  0.06942418  0.74729475  0.76070735  1  -1.17716  0  -0.372889  -0.642377  0  2.41403  0
O  O91  1  0.73813402  0.07425095  0.42136332  1  -1.190551  0  -0.355938  -0.631734  0  2.314282  0
O  O92  1  0.91953291  0.26732690  0.23656122  1  -1.170042  0  -0.349269  -0.614508  0  2.227017  0
O  O93  1  0.26519883  0.92188433  0.57301678  1  -1.190731  0  -0.355946  -0.632902  0  2.309925  0
O  O94  1  0.26483516  0.73931485  0.42031308  1  -1.185531  0  -0.355977  -0.633704  0  2.313101  0
O  O95  1  0.91976462  0.07564170  0.76541978  1  -1.195348  0  -0.357746  -0.635804  0  2.314985  0
O  O96  1  0.73785046  0.26659285  0.57382179  1  -1.18486  0  -0.355815  -0.631899  0  2.317436  0
O  O97  1  0.07262428  0.92123292  0.23888080  1  -1.185798  0  -0.356754  -0.633219  0  2.317005  0
O  O98  1  0.07227118  0.92383930  0.76500882  1  -1.196104  0  -0.351491  -0.62373  0  2.321054  0
O  O99  1  0.73882806  0.26693050  0.42104942  1  -1.182898  0  -0.354282  -0.630137  0  2.323305  0
O  O100  1  0.92060524  0.07362294  0.23896347  1  -1.18964  0  -0.354031  -0.628228  0  2.321397  0
O  O101  1  0.26475182  0.73960754  0.57232098  1  -1.187106  0  -0.353258  -0.62847  0  2.318615  0
O  O102  1  0.91987424  0.73720997  0.76650023  1  -1.168661  0  -0.34984  -0.615421  0  2.22821  0
O  O103  1  0.26519962  0.07394248  0.42088591  1  -1.18523  0  -0.355913  -0.632894  0  2.310069  0
O  O104  1  0.06919226  0.26136986  0.24660730  1  -1.175094  0  -0.373057  -0.64283  0  2.416045  0
O  O105  1  0.73817337  0.92202971  0.57350838  1  -1.183777  0  -0.356224  -0.632351  0  2.314745  0
O  O106  1  0.73791616  0.07450093  0.76601282  1  -1.188326  0  -0.355631  -0.631775  0  2.315655  0
O  O107  1  0.07266856  0.73947437  0.42055409  1  -1.192342  0  -0.355885  -0.631979  0  2.316549  0
O  O108  1  0.26492716  0.92090132  0.23863691  1  -1.186626  0  -0.355353  -0.632147  0  2.311749  0
O  O109  1  0.91966412  0.26625518  0.57470426  1  -1.196663  0  -0.357257  -0.63485  0  2.313787  0
O  O110  1  0.79750820  0.06762174  0.56703099  1  -1.241687  0  -0.69382  -1.06413  0  2.345122  0
O  O111  1  0.06570900  0.06742133  0.56665557  1  -1.249154  0  -0.699257  -1.071469  0  2.362045  0
O  O112  1  0.06557465  0.06650518  0.29927199  1  -1.242818  0  -0.698088  -1.067918  0  2.368209  0
O  O113  1  0.06564821  0.79995708  0.56584604  1  -1.249177  0  -0.697956  -1.068952  0  2.369938  0
O  O114  1  0.14700821  0.95078996  0.45013236  1  -1.193794  0  -0.795612  -1.144368  0  2.138025  0
O  O115  1  0.94901001  0.95134608  0.45076173  1  -1.19761  0  -0.791513  -1.139938  0  2.129589  0
O  O116  1  0.94899712  0.14794079  0.45110566  1  -1.188782  0  -0.795214  -1.140978  0  2.150445  0
O  O117  1  0.94905964  0.95177806  0.64726226  1  -1.193562  0  -0.794828  -1.140212  0  2.149016  0
O  O118  1  0.15992123  0.41571169  0.33258226  1  -1.123712  0  -0.344015  -0.401301  0  2.322173  0
O  O119  1  0.83735546  0.58573291  0.66760990  1  -1.124861  0  -0.34257  -0.39919  0  2.299702  0
O  O120  1  0.16067915  0.59019188  0.33204253  1  -1.118291  0  -0.340259  -0.386891  0  2.289011  0
O  O121  1  0.83498798  0.41223996  0.66662089  1  -1.13071  0  -0.343077  -0.390877  0  2.292078  0
O  O122  1  0.41204155  0.16335350  0.08882117  1  -1.116383  0  -0.343553  -0.400533  0  2.323668  0
O  O123  1  0.59533958  0.82805114  0.91906028  1  -1.104619  0  -0.342453  -0.399946  0  2.30219  0
O  O124  1  0.58685547  0.16395369  0.91431604  1  -1.116969  0  -0.340592  -0.386894  0  2.288422  0
O  O125  1  0.41779679  0.82959875  0.09200237  1  -1.117331  0  -0.342694  -0.391003  0  2.291673  0
O  O126  1  0.83495466  0.16742379  0.91151440  1  -1.11202  0  -0.343263  -0.392036  0  2.290685  0
O  O127  1  0.16048532  0.83258145  0.08979727  1  -1.10799  0  -0.340517  -0.386596  0  2.288502  0
O  O128  1  0.83717608  0.16833285  0.08514018  1  -1.123126  0  -0.342273  -0.398855  0  2.300484  0
O  O129  1  0.15973010  0.83312400  0.91526342  1  -1.12056  0  -0.344071  -0.401685  0  2.32101  0
O  O130  1  0.41774849  0.59289830  0.32878500  1  -1.114399  0  -0.343105  -0.391697  0  2.291219  0
O  O131  1  0.58690996  0.41481198  0.66328922  1  -1.110439  0  -0.340391  -0.386727  0  2.288476  0
O  O132  1  0.59526227  0.41979856  0.32727387  1  -1.109495  0  -0.34241  -0.402478  0  2.298871  0
O  O133  1  0.41206988  0.58935776  0.66273189  1  -1.11242  0  -0.343518  -0.400847  0  2.322907  0
O  O134  1  0.41422249  0.83352489  0.66191484  1  -1.101701  0  -0.34112  -0.387021  0  2.289133  0
O  O135  1  0.58892962  0.16292514  0.33271773  1  -1.109301  0  -0.341765  -0.391193  0  2.287386  0
O  O136  1  0.58889806  0.83358391  0.66210273  1  -1.107395  0  -0.341801  -0.390339  0  2.286966  0
O  O137  1  0.41414858  0.16299227  0.33265914  1  -1.101739  0  -0.340934  -0.387069  0  2.291221  0
