# generated using pymatgen
data_ZnH4C10O4F
_symmetry_space_group_name_H-M   'P 1'
_cell_length_a   19.01512564
_cell_length_b   18.99619731
_cell_length_c   30.86115661
_cell_angle_alpha   89.79982789
_cell_angle_beta   89.76936991
_cell_angle_gamma   59.99433033
_symmetry_Int_Tables_number   1
_chemical_formula_structural   ZnH4C10O4F
_chemical_formula_sum   'Zn12 H48 C120 O48 F12'
_cell_volume   9653.38735660
_cell_formula_units_Z   12
loop_
 _symmetry_equiv_pos_site_id
 _symmetry_equiv_pos_as_xyz
  1  'x, y, z'
loop_
 _atom_site_type_symbol
 _atom_site_label
 _atom_site_symmetry_multiplicity
 _atom_site_fract_x
 _atom_site_fract_y
 _atom_site_fract_z
 _atom_site_occupancy
 _atom_site_pbe_bader_charge
 _atom_site_pbe_bader_spin_density
 _atom_site_pbe_cm5_charge
 _atom_site_pbe_ddec_charge
 _atom_site_pbe_ddec_spin_density
 _atom_site_pbe_ddec_sum_bond_order
 _atom_site_pbe_magmom
Zn  Zn0  1  0.43204055  0.56806568  0.50002570  1  1.294731  0  0.734657  0.972328  0  2.07782  0
Zn  Zn1  1  0.56687635  0.43305844  0.49997722  1  1.289397  0  0.735434  0.97322  0  2.081922  0
Zn  Zn2  1  0.56801454  0.00005006  0.49955076  1  1.29469  0  0.734602  0.971855  0  2.078439  0
Zn  Zn3  1  0.43318442  0.99997119  0.49967368  1  1.289773  0  0.735496  0.973112  0  2.083208  0
Zn  Zn4  1  0.00006958  0.43202260  0.49949046  1  1.293981  0  0.734514  0.971694  0  2.078284  0
Zn  Zn5  1  0.99995299  0.56704468  0.49938982  1  1.296057  0  0.735291  0.973086  0  2.08126  0
Zn  Zn6  1  0.56701969  0.43106400  0.99999496  1  1.302675  0  0.734692  0.971929  0  2.078085  0
Zn  Zn7  1  0.43218415  0.56606842  0.00004463  1  1.295029  0  0.735208  0.972732  0  2.083159  0
Zn  Zn8  1  0.43147186  0.99904055  0.99993101  1  1.297543  0  0.734479  0.971564  0  2.076911  0
Zn  Zn9  1  0.56625845  0.99908838  0.99938316  1  1.304923  0  0.735506  0.972895  0  2.083014  0
Zn  Zn10  1  0.99892349  0.56755051  0.99924914  1  1.304136  0  0.734749  0.972269  0  2.079277  0
Zn  Zn11  1  0.99904678  0.43248206  0.99971595  1  1.303415  0  0.735488  0.972752  0  2.082114  0
H  H12  1  0.51572166  0.74184242  0.49991929  1  0.153666  0  0.113421  0.12633  0  0.993113  0
H  H13  1  0.74179510  0.74259549  0.49967805  1  0.114247  0  0.113437  0.126194  0  0.993037  0
H  H14  1  0.74257969  0.51550035  0.49985239  1  0.093889  0  0.113521  0.126383  0  0.993365  0
H  H15  1  0.25804491  0.48452190  0.49957604  1  0.149002  0  0.113601  0.126549  0  0.993322  0
H  H16  1  0.25762090  0.25803918  0.49917794  1  0.111354  0  0.113538  0.126684  0  0.992692  0
H  H17  1  0.48429726  0.25757586  0.49974307  1  0.095342  0  0.113383  0.126008  0  0.993289  0
H  H18  1  0.38545425  0.61430240  0.63908888  1  0.102471  0  0.116897  0.145807  0  0.979678  0
H  H19  1  0.61375044  0.38498769  0.86093041  1  0.127321  0  0.116631  0.144983  0  0.980178  0
H  H20  1  0.38770052  0.61173317  0.86173280  1  0.103153  0  0.109037  0.117839  0  0.9897  0
H  H21  1  0.38751297  0.61217256  0.78278549  1  0.129167  0  0.100452  0.111745  0  1.048095  0
H  H22  1  0.61147381  0.38753105  0.63827042  1  0.105752  0  0.108937  0.117636  0  0.989386  0
H  H23  1  0.61178276  0.38717779  0.71722015  1  0.127161  0  0.100392  0.113615  0  1.045691  0
H  H24  1  0.38617896  0.61484443  0.36101814  1  0.153141  0  0.11681  0.145054  0  0.980126  0
H  H25  1  0.61400681  0.38537614  0.13898737  1  0.103442  0  0.116888  0.145576  0  0.979881  0
H  H26  1  0.38820672  0.61235852  0.13837905  1  0.103118  0  0.109074  0.117885  0  0.989189  0
H  H27  1  0.38806850  0.61274593  0.21732957  1  0.12262  0  0.100408  0.113416  0  1.045704  0
H  H28  1  0.61199726  0.38785557  0.36163063  1  0.107458  0  0.109062  0.118  0  0.989335  0
H  H29  1  0.61216097  0.38750436  0.28267640  1  0.126314  0  0.100454  0.113405  0  1.045685  0
H  H30  1  0.61418753  0.99918444  0.63861015  1  0.11814  0  0.116944  0.145223  0  0.979621  0
H  H31  1  0.38490188  0.99866700  0.86077821  1  0.131762  0  0.11694  0.145114  0  0.97987  0
H  H32  1  0.61156073  0.99791656  0.86121863  1  0.105031  0  0.109103  0.117892  0  0.989615  0
H  H33  1  0.61208188  0.99802772  0.78227023  1  0.116733  0  0.100387  0.112205  0  1.047718  0
H  H34  1  0.38757725  0.99990108  0.63803131  1  0.092641  0  0.108957  0.117615  0  0.989161  0
H  H35  1  0.38711939  0.99940765  0.71698851  1  0.127696  0  0.100327  0.111586  0  1.047135  0
H  H36  1  0.61491670  0.00003120  0.36033682  1  0.139552  0  0.116705  0.145004  0  0.980347  0
H  H37  1  0.38529603  0.00180145  0.13905323  1  0.122969  0  0.116574  0.144914  0  0.979764  0
H  H38  1  0.61200195  0.00092019  0.13748872  1  0.100477  0  0.10892  0.117932  0  0.989381  0
H  H39  1  0.61193929  0.00216472  0.21646565  1  0.123514  0  0.100476  0.111758  0  1.047347  0
H  H40  1  0.38809647  0.00114591  0.36149024  1  0.098739  0  0.108892  0.117731  0  0.989295  0
H  H41  1  0.38741568  0.00215477  0.28256205  1  0.111597  0  0.10009  0.113263  0  1.046447  0
H  H42  1  0.99922558  0.38543248  0.63854965  1  0.107217  0  0.116991  0.145232  0  0.979782  0
H  H43  1  0.99856420  0.61372514  0.86030406  1  0.126678  0  0.11663  0.144663  0  0.980396  0
H  H44  1  0.99786766  0.38758329  0.86123993  1  0.098173  0  0.109081  0.117956  0  0.989358  0
H  H45  1  0.99795112  0.38749649  0.78229180  1  0.101668  0  0.100352  0.113272  0  1.045521  0
H  H46  1  0.99993123  0.61158663  0.63767464  1  0.063577  0  0.108911  0.117645  0  0.989613  0
H  H47  1  0.99935528  0.61186559  0.71661907  1  0.129448  0  0.10027  0.111543  0  1.048087  0
H  H48  1  0.00006197  0.38627498  0.36066338  1  0.129945  0  0.116829  0.145096  0  0.979947  0
H  H49  1  0.00167561  0.61387169  0.13810999  1  0.117731  0  0.116862  0.145304  0  0.980026  0
H  H50  1  0.00101414  0.38771738  0.13820138  1  0.081515  0  0.108987  0.117853  0  0.989914  0
H  H51  1  0.00232504  0.38704237  0.21712819  1  0.121876  0  0.100408  0.113367  0  1.046398  0
H  H52  1  0.00120810  0.61220268  0.36092283  1  0.100923  0  0.108939  0.117579  0  0.989681  0
H  H53  1  0.00230256  0.61197175  0.28194812  1  0.099485  0  0.100488  0.113464  0  1.045287  0
H  H54  1  0.74126476  0.51432004  0.99906426  1  0.124812  0  0.113722  0.125907  0  0.993943  0
H  H55  1  0.74171415  0.74076884  0.99863447  1  0.125622  0  0.113626  0.126024  0  0.993547  0
H  H56  1  0.51500518  0.74123817  0.99917402  1  0.13776  0  0.113432  0.125881  0  0.993878  0
H  H57  1  0.48299708  0.25753934  0.00120069  1  0.11087  0  0.113392  0.125818  0  0.993718  0
H  H58  1  0.25684046  0.25688004  0.00166681  1  0.114035  0  0.113757  0.126368  0  0.993053  0
H  H59  1  0.25617361  0.48390355  0.00102831  1  0.160277  0  0.11337  0.125906  0  0.993789  0
C  C60  1  0.49875939  0.50175768  0.41568554  1  1.520925  0  0.222449  0.599286  0  4.152098  0
C  C61  1  0.57943606  0.57817950  0.49996161  1  1.571724  0  0.223543  0.603797  0  4.155919  0
C  C62  1  0.49812089  0.50133552  0.58431109  1  1.510831  0  0.221881  0.598217  0  4.153095  0
C  C63  1  0.42157334  0.42084595  0.49988346  1  1.58153  0  0.222774  0.603187  0  4.157364  0
C  C64  1  0.50196631  0.00014459  0.41527667  1  1.543805  0  0.221504  0.597805  0  4.15387  0
C  C65  1  0.57829876  0.84241348  0.49977608  1  1.477442  0  0.22285  0.603017  0  4.156157  0
C  C66  1  0.50138993  0.99988342  0.58396167  1  1.488369  0  0.222434  0.599385  0  4.152301  0
C  C67  1  0.42068463  0.15761333  0.49948968  1  1.547783  0  0.223006  0.602901  0  4.156439  0
C  C68  1  0.00015447  0.49899732  0.41514037  1  1.545652  0  0.221748  0.59942  0  4.152924  0
C  C69  1  0.84241144  0.57929773  0.49969939  1  1.547732  0  0.222679  0.602697  0  4.15643  0
C  C70  1  0.99990830  0.49818683  0.58374626  1  1.479398  0  0.221985  0.598648  0  4.150832  0
C  C71  1  0.15762071  0.42174204  0.49931645  1  1.477151  0  0.222983  0.603373  0  4.155254  0
C  C72  1  0.50112048  0.49816952  0.08432432  1  1.522535  0  0.22147  0.598985  0  4.152247  0
C  C73  1  0.57776133  0.57798150  0.99934362  1  1.463577  0  0.2231  0.603943  0  4.155671  0
C  C74  1  0.50071779  0.49763915  0.91570401  1  1.514876  0  0.221307  0.598773  0  4.152501  0
C  C75  1  0.41930509  0.42123310  0.00089351  1  1.474541  0  0.2227  0.602404  0  4.156504  0
C  C76  1  0.49917720  0.99915816  0.08395529  1  1.496411  0  0.221921  0.59888  0  4.151754  0
C  C77  1  0.57846107  0.84131065  0.99913983  1  1.498826  0  0.223097  0.603055  0  4.156173  0
C  C78  1  0.49740749  0.99934539  0.91536281  1  1.53688  0  0.221907  0.599254  0  4.151424  0
C  C79  1  0.42030395  0.15685827  0.00068407  1  1.509826  0  0.222711  0.602522  0  4.156372  0
C  C80  1  0.99911881  0.50208593  0.08382023  1  1.484819  0  0.221418  0.597714  0  4.154502  0
C  C81  1  0.84157174  0.57709480  0.99907141  1  1.450793  0  0.22273  0.602622  0  4.15587  0
C  C82  1  0.99921865  0.50052293  0.91513514  1  1.549172  0  0.221732  0.599878  0  4.152566  0
C  C83  1  0.15642375  0.42005087  0.00053187  1  1.495032  0  0.222876  0.601257  0  4.158299  0
C  C84  1  0.62398021  0.75164164  0.49981181  1  0.068457  0  -0.01546  -0.042404  0  3.980457  0
C  C85  1  0.58181185  0.70886240  0.49988571  1  0.084184  0  -0.05912  -0.072887  0  3.88808  0
C  C86  1  0.62449707  0.62385566  0.49990171  1  -0.148292  0  -0.015465  -0.042229  0  3.980398  0
C  C87  1  0.70942290  0.58165202  0.49985621  1  0.012986  0  -0.059367  -0.073034  0  3.887326  0
C  C88  1  0.75169026  0.62435962  0.49978579  1  0.115834  0  -0.015176  -0.042146  0  3.978306  0
C  C89  1  0.70891153  0.70936155  0.49975675  1  -0.165861  0  -0.059281  -0.07284  0  3.886664  0
C  C90  1  0.24833971  0.37610431  0.49937715  1  0.069054  0  -0.015269  -0.041033  0  3.978725  0
C  C91  1  0.29102622  0.41837168  0.49954253  1  0.079515  0  -0.059679  -0.073899  0  3.887856  0
C  C92  1  0.37596015  0.37572289  0.49968854  1  -0.149304  0  -0.014763  -0.0416  0  3.979676  0
C  C93  1  0.41820941  0.29072314  0.49964505  1  0.01405  0  -0.059577  -0.07299  0  3.888195  0
C  C94  1  0.37559154  0.24838510  0.49947382  1  0.118665  0  -0.015205  -0.041761  0  3.98098  0
C  C95  1  0.29067944  0.29109193  0.49933216  1  -0.1611  0  -0.059563  -0.0741  0  3.887609  0
C  C96  1  0.49872605  0.50063149  0.63265246  1  -0.037815  0  -0.014431  0.000221  0  3.987035  0
C  C97  1  0.50037060  0.49856105  0.86736149  1  -0.008636  0  -0.014395  -0.000947  0  3.987668  0
C  C98  1  0.43575120  0.56381214  0.65584710  1  0.12529  0  -0.09235  -0.221197  0  3.987445  0
C  C99  1  0.43688176  0.56266767  0.70070509  1  0.340234  0  0.103045  0.244878  0  3.996923  0
C  C100  1  0.56344438  0.43546514  0.84416965  1  0.096761  0  -0.092125  -0.219333  0  3.987941  0
C  C101  1  0.56239394  0.43667113  0.79930873  1  0.344511  0  0.102638  0.243578  0  3.998158  0
C  C102  1  0.43731510  0.56196737  0.84417456  1  -0.005842  0  -0.087367  -0.102289  0  3.995415  0
C  C103  1  0.43768841  0.56175987  0.79920880  1  -0.037342  0  -0.090332  -0.119987  0  3.978331  0
C  C104  1  0.56185074  0.43727635  0.65583230  1  0.017691  0  -0.087076  -0.101887  0  3.995204  0
C  C105  1  0.56156241  0.43755083  0.70079607  1  -0.035519  0  -0.090345  -0.122142  0  3.978528  0
C  C106  1  0.49907078  0.50024483  0.72595581  1  -0.033903  0  -0.00594  -0.013405  0  3.950062  0
C  C107  1  0.50019582  0.49908114  0.77405190  1  0.109706  0  -0.005869  -0.013678  0  3.949224  0
C  C108  1  0.49938065  0.50108958  0.36734538  1  -0.033147  0  -0.014822  -0.000688  0  3.987488  0
C  C109  1  0.50078812  0.49911264  0.13266183  1  -0.033248  0  -0.014392  -0.002789  0  3.991462  0
C  C110  1  0.43640842  0.56431055  0.34421243  1  0.069633  0  -0.092347  -0.219334  0  3.987854  0
C  C111  1  0.43744697  0.56314487  0.29935436  1  0.343731  0  0.102872  0.243751  0  3.99853  0
C  C112  1  0.56380042  0.43592743  0.15579492  1  0.119264  0  -0.091939  -0.219027  0  3.989511  0
C  C113  1  0.56275518  0.43709224  0.20065140  1  0.356758  0  0.102313  0.243858  0  3.998482  0
C  C114  1  0.43780649  0.56257622  0.15589766  1  0.021472  0  -0.087712  -0.101756  0  3.997006  0
C  C115  1  0.43820447  0.56232153  0.20086118  1  -0.037045  0  -0.090028  -0.121049  0  3.978237  0
C  C116  1  0.56241995  0.43765768  0.34411127  1  0.016795  0  -0.086878  -0.102308  0  3.995507  0
C  C117  1  0.56203957  0.43793726  0.29915090  1  -0.043991  0  -0.090265  -0.120997  0  3.978477  0
C  C118  1  0.49956447  0.50068276  0.27405054  1  0.116766  0  -0.006651  -0.014437  0  3.951179  0
C  C119  1  0.50065530  0.49954922  0.22596069  1  -0.045902  0  -0.00593  -0.01378  0  3.950182  0
C  C120  1  0.50064277  0.99954270  0.63230505  1  -0.002021  0  -0.014541  -0.002676  0  3.990951  0
C  C121  1  0.49838156  0.99857712  0.86702455  1  -0.000983  0  -0.014345  -0.000931  0  3.9871  0
C  C122  1  0.56375255  0.99918593  0.65543207  1  0.078559  0  -0.092797  -0.219028  0  3.988484  0
C  C123  1  0.56256521  0.99887152  0.70029156  1  0.408968  0  0.10298  0.243883  0  3.997818  0
C  C124  1  0.43536846  0.99858810  0.84394601  1  0.096356  0  -0.092445  -0.218717  0  3.986374  0
C  C125  1  0.43663545  0.99860998  0.79907466  1  0.335603  0  0.102818  0.242581  0  3.999665  0
C  C126  1  0.56185343  0.99815135  0.84373291  1  0.009523  0  -0.08752  -0.102446  0  3.994882  0
C  C127  1  0.56169416  0.99816817  0.79876996  1  -0.067977  0  -0.090033  -0.120386  0  3.977506  0
C  C128  1  0.43729186  0.99960999  0.65554793  1  -0.003572  0  -0.087247  -0.101584  0  3.994986  0
C  C129  1  0.43751195  0.99932638  0.70051974  1  -0.012108  0  -0.090011  -0.119562  0  3.976663  0
C  C130  1  0.50016914  0.99889743  0.72561690  1  0.038765  0  -0.006073  -0.013859  0  3.94927  0
C  C131  1  0.49901817  0.99855337  0.77371798  1  -0.018757  0  -0.006131  -0.013077  0  3.94923  0
C  C132  1  0.50122342  0.00060010  0.36693426  1  -0.019731  0  -0.014427  -7.9e-05  0  3.986267  0
C  C133  1  0.49922687  0.00073306  0.13227290  1  -0.022966  0  -0.014816  -0.000492  0  3.987324  0
C  C134  1  0.56433813  0.00054147  0.34364109  1  0.108701  0  -0.092521  -0.219378  0  3.987979  0
C  C135  1  0.56299163  0.00114068  0.29877775  1  0.32071  0  0.102855  0.24284  0  4.00003  0
C  C136  1  0.43575176  0.00172111  0.15564755  1  0.085894  0  -0.092245  -0.219165  0  3.987799  0
C  C137  1  0.43660590  0.00251740  0.20049382  1  0.390104  0  0.102847  0.24294  0  3.998422  0
C  C138  1  0.56226586  0.00121920  0.15523167  1  -0.0228  0  -0.087244  -0.102878  0  3.994814  0
C  C139  1  0.56174847  0.00191361  0.20020320  1  -0.02498  0  -0.089665  -0.119492  0  3.977195  0
C  C140  1  0.43777234  0.00116711  0.34385657  1  0.015972  0  -0.087214  -0.10231  0  3.994654  0
C  C141  1  0.43783809  0.00178519  0.29889527  1  -0.060321  0  -0.090056  -0.121026  0  3.976763  0
C  C142  1  0.50039504  0.00186148  0.27363733  1  -0.007727  0  -0.006195  -0.014057  0  3.95041  0
C  C143  1  0.49909425  0.00219501  0.22555424  1  0.084621  0  -0.005782  -0.012928  0  3.948951  0
C  C144  1  0.99963012  0.49877962  0.63208247  1  0.113719  0  -0.013919  0.000133  0  3.986393  0
C  C145  1  0.99844265  0.50026275  0.86680187  1  -0.027907  0  -0.014279  -0.000458  0  3.987546  0
C  C146  1  0.99925180  0.43576318  0.65529393  1  0.030281  0  -0.093032  -0.220094  0  3.987416  0
C  C147  1  0.99888357  0.43689779  0.70015489  1  0.409436  0  0.10267  0.243352  0  3.999182  0
C  C148  1  0.99846329  0.56342601  0.84356379  1  0.12009  0  -0.092377  -0.218632  0  3.987704  0
C  C149  1  0.99848961  0.56244666  0.79870628  1  0.317821  0  0.102914  0.243082  0  3.998077  0
C  C150  1  0.99806998  0.43725825  0.84365954  1  0.038213  0  -0.087472  -0.103073  0  3.995215  0
C  C151  1  0.99808663  0.43769243  0.79868355  1  -0.060842  0  -0.089681  -0.12037  0  3.97585  0
C  C152  1  0.99965543  0.56194316  0.65524219  1  -0.058013  0  -0.087895  -0.10288  0  3.994691  0
C  C153  1  0.99929264  0.56164372  0.70021520  1  -0.036146  0  -0.089522  -0.119426  0  3.976824  0
C  C154  1  0.99885434  0.49912989  0.72539289  1  0.080506  0  -0.005868  -0.013461  0  3.949106  0
C  C155  1  0.99845752  0.50022471  0.77348591  1  -0.005586  0  -0.006025  -0.013759  0  3.949237  0
C  C156  1  0.00062226  0.49951992  0.36681124  1  -0.002901  0  -0.014429  -0.003124  0  3.991213  0
C  C157  1  0.00071757  0.50082840  0.13215258  1  0.075881  0  -0.014291  0.000637  0  3.98719  0
C  C158  1  0.00059634  0.43642568  0.34378585  1  0.092944  0  -0.092404  -0.217901  0  3.988803  0
C  C159  1  0.00120485  0.43724445  0.29893385  1  0.322697  0  0.10274  0.24347  0  3.999556  0
C  C160  1  0.00162766  0.56356557  0.15509193  1  -0.015008  0  -0.09269  -0.219937  0  3.987653  0
C  C161  1  0.00245836  0.56219630  0.19995604  1  0.410448  0  0.103075  0.243729  0  3.998557  0
C  C162  1  0.00127935  0.43736063  0.15556223  1  0.006537  0  -0.087749  -0.103628  0  3.996968  0
C  C163  1  0.00200325  0.43745826  0.20052024  1  0.027019  0  -0.090122  -0.120372  0  3.978516  0
C  C164  1  0.00121795  0.56249392  0.34347975  1  0.036999  0  -0.087055  -0.101665  0  3.996232  0
C  C165  1  0.00187133  0.56187467  0.29850739  1  -0.075127  0  -0.089882  -0.120158  0  3.976323  0
C  C166  1  0.00192628  0.49919966  0.27352273  1  0.000692  0  -0.006063  -0.014639  0  3.951592  0
C  C167  1  0.00223794  0.50005416  0.22543499  1  0.007044  0  -0.006229  -0.014393  0  3.952059  0
C  C168  1  0.75090310  0.62276891  0.99887311  1  0.106317  0  -0.014941  -0.043098  0  3.97892  0
C  C169  1  0.70826035  0.58047548  0.99897338  1  -0.090091  0  -0.060043  -0.072  0  3.886351  0
C  C170  1  0.62334043  0.62311889  0.99904705  1  0.11954  0  -0.015064  -0.043669  0  3.979908  0
C  C171  1  0.58108934  0.70810743  0.99903969  1  -0.076388  0  -0.059526  -0.072017  0  3.886526  0
C  C172  1  0.62364035  0.75051729  0.99892384  1  0.168465  0  -0.015595  -0.042408  0  3.97765  0
C  C173  1  0.70856697  0.70779787  0.99877418  1  -0.158537  0  -0.05978  -0.072309  0  3.884699  0
C  C174  1  0.37473554  0.24767373  0.00139419  1  -0.007818  0  -0.015594  -0.041572  0  3.975726  0
C  C175  1  0.41690693  0.29047778  0.00135393  1  0.094445  0  -0.059335  -0.073085  0  3.885729  0
C  C176  1  0.37425873  0.37551706  0.00132934  1  -0.07986  0  -0.015191  -0.041357  0  3.97842  0
C  C177  1  0.28933773  0.41774721  0.00126135  1  -0.049758  0  -0.059262  -0.073583  0  3.886229  0
C  C178  1  0.24709345  0.37502069  0.00132042  1  -0.015474  0  -0.015227  -0.040044  0  3.977023  0
C  C179  1  0.28980785  0.29002572  0.00155018  1  0.039023  0  -0.059561  -0.074152  0  3.885441  0
O  O180  1  0.43875712  0.56186946  0.43447742  1  -1.162041  0  -0.317025  -0.550409  0  2.270944  0
O  O181  1  0.55848187  0.44190940  0.43472873  1  -1.148002  0  -0.315918  -0.553526  0  2.285618  0
O  O182  1  0.62178870  0.50057117  0.49995000  1  -1.164422  0  -0.314695  -0.548462  0  2.281577  0
O  O183  1  0.50186434  0.62029055  0.50002376  1  -1.136051  0  -0.314727  -0.551556  0  2.2897  0
O  O184  1  0.55792079  0.44157393  0.56522311  1  -1.148213  0  -0.315716  -0.553019  0  2.286433  0
O  O185  1  0.43810146  0.56143929  0.56556329  1  -1.152123  0  -0.316893  -0.550015  0  2.271001  0
O  O186  1  0.37951639  0.49849115  0.49995029  1  -1.145515  0  -0.314513  -0.551026  0  2.290207  0
O  O187  1  0.49911242  0.37843120  0.49996724  1  -1.165618  0  -0.314244  -0.548621  0  2.282292  0
O  O188  1  0.56200689  0.99995622  0.43398590  1  -1.153307  0  -0.316849  -0.549964  0  2.270754  0
O  O189  1  0.44219406  0.00005315  0.43440718  1  -1.156758  0  -0.315541  -0.553205  0  2.287396  0
O  O190  1  0.50076496  0.87756884  0.49978784  1  -1.129962  0  -0.314251  -0.547924  0  2.282006  0
O  O191  1  0.62031815  0.87798995  0.49974583  1  -1.150922  0  -0.314064  -0.5504  0  2.291213  0
O  O192  1  0.44168898  0.99998226  0.56492968  1  -1.149655  0  -0.316195  -0.553477  0  2.285964  0
O  O193  1  0.56142062  0.00004156  0.56514690  1  -1.141981  0  -0.31711  -0.550174  0  2.268909  0
O  O194  1  0.49825378  0.12210652  0.49944717  1  -1.145089  0  -0.314108  -0.550343  0  2.290057  0
O  O195  1  0.37835121  0.12238401  0.49957407  1  -1.13477  0  -0.314172  -0.548008  0  2.282472  0
O  O196  1  0.99993936  0.43896169  0.43397382  1  -1.153381  0  -0.316723  -0.550018  0  2.271467  0
O  O197  1  0.00007477  0.55877921  0.43415315  1  -1.152416  0  -0.315669  -0.553042  0  2.286131  0
O  O198  1  0.87754159  0.62173935  0.49960089  1  -1.135106  0  -0.314417  -0.548473  0  2.280822  0
O  O199  1  0.87797106  0.50165185  0.49973834  1  -1.146536  0  -0.314191  -0.550448  0  2.289043  0
O  O200  1  0.99994671  0.55803926  0.56463590  1  -1.147278  0  -0.315844  -0.553204  0  2.285386  0
O  O201  1  0.00007505  0.43809447  0.56501594  1  -1.147817  0  -0.316573  -0.549563  0  2.270424  0
O  O202  1  0.12215648  0.37960019  0.49930627  1  -1.147985  0  -0.314337  -0.551108  0  2.288214  0
O  O203  1  0.12238412  0.49935793  0.49931886  1  -1.130206  0  -0.314349  -0.548646  0  2.280828  0
O  O204  1  0.56101047  0.43794756  0.06553427  1  -1.161166  0  -0.316652  -0.549808  0  2.270865  0
O  O205  1  0.44120317  0.55782678  0.06528756  1  -1.148643  0  -0.315504  -0.553014  0  2.285525  0
O  O206  1  0.50023079  0.62039835  0.99953168  1  -1.127273  0  -0.314527  -0.548898  0  2.283421  0
O  O207  1  0.61985472  0.50035021  0.99942928  1  -1.12785  0  -0.314331  -0.550321  0  2.288246  0
O  O208  1  0.44085841  0.55734312  0.93479421  1  -1.149553  0  -0.315283  -0.553144  0  2.2859  0
O  O209  1  0.56057031  0.43738832  0.93445484  1  -1.154819  0  -0.316506  -0.549872  0  2.271266  0
O  O210  1  0.49687192  0.37915342  0.00064822  1  -1.131074  0  -0.314383  -0.550916  0  2.289211  0
O  O211  1  0.37694634  0.49885551  0.00068217  1  -1.126737  0  -0.313812  -0.547471  0  2.280741  0
O  O212  1  0.43939952  0.99851376  0.06543746  1  -1.149462  0  -0.316358  -0.550496  0  2.272776  0
O  O213  1  0.55916768  0.99852395  0.06464826  1  -1.150875  0  -0.315776  -0.552332  0  2.284841  0
O  O214  1  0.62077627  0.87655171  0.99901074  1  -1.135328  0  -0.314328  -0.54852  0  2.282221  0
O  O215  1  0.50088894  0.87682638  0.99949696  1  -1.17328  0  -0.314427  -0.550369  0  2.287225  0
O  O216  1  0.55701775  0.99973197  0.93423127  1  -1.153178  0  -0.315761  -0.553407  0  2.285819  0
O  O217  1  0.43728897  0.99967405  0.93435750  1  -1.15442  0  -0.31636  -0.549737  0  2.271059  0
O  O218  1  0.37823716  0.12132285  0.00056691  1  -1.136835  0  -0.314593  -0.55003  0  2.286137  0
O  O219  1  0.49782431  0.12164054  0.00006524  1  -1.136895  0  -0.314197  -0.548972  0  2.282366  0
O  O220  1  0.99841325  0.56245587  0.06483505  1  -1.151989  0  -0.316731  -0.549528  0  2.270197  0
O  O221  1  0.99850932  0.44252831  0.06497203  1  -1.148694  0  -0.315742  -0.553761  0  2.287963  0
O  O222  1  0.87677377  0.49947679  0.99941516  1  -1.122645  0  -0.314068  -0.547029  0  2.280816  0
O  O223  1  0.87702866  0.61922449  0.99892481  1  -1.136137  0  -0.314119  -0.550676  0  2.291284  0
O  O224  1  0.99959500  0.44057516  0.93437686  1  -1.15306  0  -0.315698  -0.553917  0  2.28462  0
O  O225  1  0.99961241  0.56044795  0.93374297  1  -1.154364  0  -0.317054  -0.551278  0  2.271845  0
O  O226  1  0.12088686  0.49767848  0.99995481  1  -1.130605  0  -0.31433  -0.550081  0  2.291323  0
O  O227  1  0.12130630  0.37759703  0.00031670  1  -1.144556  0  -0.314233  -0.547116  0  2.281374  0
F  F228  1  0.37171100  0.62808835  0.71957908  1  -0.641774  0  -0.096329  -0.145736  0  1.361082  0
F  F229  1  0.62765271  0.37132643  0.78043985  1  -0.643382  0  -0.096095  -0.145739  0  1.361203  0
F  F230  1  0.37226387  0.62858826  0.28054245  1  -0.642409  0  -0.095941  -0.145722  0  1.361362  0
F  F231  1  0.62792251  0.37161989  0.21946179  1  -0.642517  0  -0.095966  -0.14597  0  1.361238  0
F  F232  1  0.62790744  0.99855094  0.71908079  1  -0.635789  0  -0.096142  -0.145621  0  1.361817  0
F  F233  1  0.37133454  0.99884830  0.78028129  1  -0.63537  0  -0.096139  -0.145308  0  1.361875  0
F  F234  1  0.62837612  0.00089706  0.27976643  1  -0.63642  0  -0.096098  -0.145057  0  1.361461  0
F  F235  1  0.37082338  0.00363924  0.21954308  1  -0.636266  0  -0.096273  -0.145676  0  1.362488  0
F  F236  1  0.99858008  0.37166995  0.71906242  1  -0.636381  0  -0.096095  -0.145631  0  1.36199  0
F  F237  1  0.99870505  0.62773224  0.77980597  1  -0.636056  0  -0.096305  -0.145223  0  1.361107  0
F  F238  1  0.00094915  0.37202664  0.28024868  1  -0.635195  0  -0.096017  -0.145714  0  1.362451  0
F  F239  1  0.00350292  0.62704420  0.21859659  1  -0.63181  0  -0.096161  -0.145603  0  1.361531  0
