# generated using pymatgen
data_MnH6C7(N2O)2
_symmetry_space_group_name_H-M   'P 1'
_cell_length_a   7.87605486
_cell_length_b   9.17662055
_cell_length_c   11.04508502
_cell_angle_alpha   89.99942876
_cell_angle_beta   90.00013409
_cell_angle_gamma   102.98641470
_symmetry_Int_Tables_number   1
_chemical_formula_structural   MnH6C7(N2O)2
_chemical_formula_sum   'Mn4 H24 C28 N16 O8'
_cell_volume   777.87222289
_cell_formula_units_Z   4
loop_
 _symmetry_equiv_pos_site_id
 _symmetry_equiv_pos_as_xyz
  1  'x, y, z'
loop_
 _atom_site_type_symbol
 _atom_site_label
 _atom_site_symmetry_multiplicity
 _atom_site_fract_x
 _atom_site_fract_y
 _atom_site_fract_z
 _atom_site_occupancy
 _atom_site_pbe_bader_charge
 _atom_site_pbe_bader_spin_density
 _atom_site_pbe_cm5_charge
 _atom_site_pbe_ddec_charge
 _atom_site_pbe_ddec_spin_density
 _atom_site_pbe_ddec_sum_bond_order
 _atom_site_pbe_magmom
Mn  Mn0  1  0.37655017  0.51291315  0.87087452  1  1.492893  4.440822  0.645855  0.917279  4.58028  2.522529  4.374
Mn  Mn1  1  0.12344835  0.48708777  0.37087392  1  1.492919  4.440836  0.645841  0.917225  4.5803  2.522577  4.374
Mn  Mn2  1  0.62344561  0.48708703  0.12912486  1  1.492911  4.440821  0.645837  0.917181  4.580273  2.522669  4.374
Mn  Mn3  1  0.87654656  0.51290905  0.62912818  1  1.492921  4.440831  0.645888  0.917316  4.58031  2.522482  4.374
H  H4  1  0.19512615  0.33020839  0.04596910  1  0.428442  0.001095  0.309521  0.297013  0.000237  0.946508  0.001
H  H5  1  0.30488731  0.66978884  0.54596542  1  0.428462  0.001094  0.309534  0.297009  0.000237  0.94658  0.001
H  H6  1  0.80488908  0.66978848  0.95403391  1  0.428475  0.001095  0.30954  0.297037  0.000237  0.946519  0.001
H  H7  1  0.69510944  0.33021022  0.45403487  1  0.428482  0.001095  0.309529  0.297017  0.000237  0.946582  0.001
H  H8  1  0.05682502  0.35626917  0.93669907  1  0.461754  0.001715  0.304982  0.300001  0.000767  0.948797  0.001
H  H9  1  0.44317822  0.64372892  0.43668982  1  0.461678  0.001715  0.304962  0.299936  0.000767  0.948878  0.001
H  H10  1  0.94317555  0.64372990  0.06331480  1  0.461687  0.001715  0.304951  0.299946  0.000767  0.948842  0.001
H  H11  1  0.55682108  0.35627015  0.56331228  1  0.461673  0.001715  0.304955  0.299933  0.000767  0.948887  0.001
H  H12  1  0.30162048  0.86136325  0.99646441  1  0.084943  0.000268  0.104598  0.104883  -0.000448  1.013671  0.0
H  H13  1  0.19838804  0.13863431  0.49646453  1  0.08515  0.000268  0.104635  0.104943  -0.000448  1.013674  0.0
H  H14  1  0.69838361  0.13863472  0.00353226  1  0.084964  0.000268  0.104608  0.10488  -0.000448  1.013721  0.0
H  H15  1  0.80161536  0.86136589  0.50353666  1  0.085139  0.000268  0.10463  0.104912  -0.000448  1.013685  0.0
H  H16  1  0.32124846  0.12487582  0.06083104  1  0.121432  0.000333  0.102973  0.116474  -0.000371  1.052961  0.0
H  H17  1  0.17876309  0.87512350  0.56083073  1  0.121459  0.000333  0.102948  0.116449  -0.00037  1.053034  0.0
H  H18  1  0.67875817  0.87512214  0.93916744  1  0.121413  0.000333  0.102972  0.11643  -0.00037  1.053001  0.0
H  H19  1  0.82123961  0.12487892  0.43917137  1  0.12149  0.000333  0.102942  0.116441  -0.00037  1.053044  0.0
H  H20  1  0.98850546  0.18449377  0.76372633  1  0.080403  0.000507  0.10287  0.110328  -0.000188  1.032905  0.0
H  H21  1  0.51150490  0.81551564  0.26372609  1  0.080056  0.000507  0.102857  0.110338  -0.000188  1.032931  0.0
H  H22  1  0.01149685  0.81551201  0.23627577  1  0.080296  0.000507  0.102875  0.110344  -0.000189  1.032924  0.0
H  H23  1  0.48850162  0.18448679  0.73627782  1  0.080274  0.000507  0.102861  0.110342  -0.000189  1.032876  0.0
H  H24  1  0.98248497  0.92749110  0.69444754  1  0.12471  0.000237  0.100376  0.095855  -0.000157  1.057454  0.0
H  H25  1  0.51752204  0.07251671  0.19444461  1  0.124608  0.000237  0.100352  0.095814  -0.000157  1.057538  0.0
H  H26  1  0.01751733  0.07251468  0.30555185  1  0.124686  0.000237  0.100373  0.095858  -0.000157  1.057487  0.0
H  H27  1  0.48248107  0.92748237  0.80555658  1  0.124594  0.000237  0.100349  0.095817  -0.000157  1.057485  0.0
C  C28  1  0.13302860  0.72182109  0.79923978  1  1.502346  0.040009  0.218906  0.585977  0.039022  4.174338  0.033
C  C29  1  0.36696390  0.27818271  0.29923679  1  1.502051  0.040021  0.218983  0.586086  0.039027  4.174084  0.033
C  C30  1  0.86696648  0.27818132  0.20075779  1  1.502042  0.040019  0.218936  0.58605  0.039026  4.174291  0.033
C  C31  1  0.63302934  0.72181747  0.70076169  1  1.502063  0.040021  0.218969  0.586001  0.039027  4.174292  0.033
C  C32  1  0.14081378  0.87659154  0.84047184  1  -0.014929  0.007276  -0.036963  -0.093755  0.005367  4.035174  0.003
C  C33  1  0.35919058  0.12341303  0.34047127  1  -0.015011  0.007274  -0.03691  -0.093593  0.005366  4.034955  0.003
C  C34  1  0.85919049  0.12341201  0.15952663  1  -0.015024  0.007276  -0.036942  -0.093667  0.005367  4.035012  0.003
C  C35  1  0.64081028  0.87658716  0.65952902  1  -0.015095  0.007275  -0.036928  -0.093656  0.005366  4.035087  0.003
C  C36  1  0.23526133  0.93321811  0.94478767  1  -0.014215  0.008735  -0.082212  -0.064175  0.006599  3.979024  0.005
C  C37  1  0.26474789  0.06678328  0.44478852  1  -0.014383  0.008737  -0.082263  -0.064285  0.006601  3.979021  0.005
C  C38  1  0.76474432  0.06678098  0.05520719  1  -0.014106  0.008737  -0.082195  -0.064169  0.006601  3.978929  0.005
C  C39  1  0.73525522  0.93321580  0.55521358  1  -0.014367  0.008738  -0.082257  -0.064225  0.006601  3.97904  0.005
C  C40  1  0.24655373  0.07974849  0.98094729  1  -0.061494  0.003663  -0.096771  -0.186662  0.002322  3.942396  0.002
C  C41  1  0.25345532  0.92025144  0.48094703  1  -0.061382  0.003662  -0.096798  -0.186671  0.002321  3.942457  0.002
C  C42  1  0.75345476  0.92025171  0.01905118  1  -0.061499  0.003663  -0.09676  -0.186627  0.002321  3.942499  0.002
C  C43  1  0.74654739  0.07975099  0.51905507  1  -0.061416  0.003663  -0.096792  -0.186697  0.002322  3.942406  0.002
C  C44  1  0.15749267  0.17127146  0.91635973  1  0.283561  0.011559  0.097589  0.290238  0.009615  4.013594  0.008
C  C45  1  0.34251547  0.82873130  0.41635768  1  0.283319  0.011558  0.09768  0.290286  0.009616  4.013545  0.008
C  C46  1  0.84251131  0.82873097  0.08363875  1  0.283306  0.011558  0.097624  0.290327  0.009616  4.013429  0.008
C  C47  1  0.65748666  0.17126890  0.58364351  1  0.283308  0.011558  0.097641  0.29027  0.009616  4.013486  0.008
C  C48  1  0.06183261  0.11562572  0.81266861  1  0.032074  0.00476  -0.099037  -0.188479  0.003349  3.955608  0.002
C  C49  1  0.43817732  0.88438135  0.31266606  1  0.03284  0.004759  -0.099023  -0.188478  0.003349  3.955548  0.002
C  C50  1  0.93817449  0.88437896  0.18733349  1  0.0326  0.00476  -0.099025  -0.188464  0.003349  3.955486  0.002
C  C51  1  0.56182764  0.11561996  0.68733695  1  0.032613  0.004759  -0.099006  -0.188441  0.003349  3.955333  0.002
C  C52  1  0.05652931  0.97060090  0.77477699  1  -0.100404  0.008258  -0.085392  -0.068602  0.00626  3.984677  0.004
C  C53  1  0.44347668  0.02940651  0.27477465  1  -0.100236  0.008259  -0.085391  -0.068656  0.006261  3.984608  0.004
C  C54  1  0.94347398  0.02940376  0.22522149  1  -0.100298  0.008258  -0.085445  -0.068741  0.006261  3.984834  0.004
C  C55  1  0.55652701  0.97059481  0.72522654  1  -0.100188  0.008259  -0.085401  -0.06863  0.006261  3.984488  0.004
N  N56  1  0.16810140  0.32008324  0.95536549  1  -1.206525  0.042479  -0.583761  -0.597388  0.030809  3.366145  0.014
N  N57  1  0.33190503  0.67991692  0.45536037  1  -1.20671  0.04248  -0.583812  -0.597393  0.030809  3.366269  0.014
N  N58  1  0.83190425  0.67991584  0.04464113  1  -1.206711  0.042481  -0.583807  -0.597419  0.03081  3.366052  0.014
N  N59  1  0.66809583  0.32008327  0.54464082  1  -1.206694  0.042482  -0.58379  -0.597398  0.030809  3.366256  0.014
N  N60  1  0.42374613  0.60681483  0.07016498  1  -0.305791  0.083651  -0.25271  -0.489669  0.066991  3.040153  0.026
N  N61  1  0.07625605  0.39319222  0.57016935  1  -0.30545  0.08365  -0.252606  -0.489477  0.06699  3.040226  0.026
N  N62  1  0.57624993  0.39318647  0.92983531  1  -0.305856  0.083652  -0.252733  -0.489722  0.066994  3.040102  0.026
N  N63  1  0.92374129  0.60680908  0.42983003  1  -0.305364  0.083649  -0.252625  -0.489558  0.066992  3.040214  0.026
N  N64  1  0.29802079  0.60086288  0.13176523  1  -0.319457  0.07485  0.108154  0.441661  0.052384  4.444551  0.057
N  N65  1  0.20197877  0.39914247  0.63176869  1  -0.319666  0.07486  0.108069  0.441487  0.052392  4.44467  0.057
N  N66  1  0.70197782  0.39913842  0.86823415  1  -0.319469  0.074854  0.108181  0.441697  0.052387  4.444462  0.057
N  N67  1  0.79801516  0.60085546  0.36823069  1  -0.319663  0.074857  0.108032  0.441449  0.05239  4.444516  0.057
N  N68  1  0.17298521  0.59451013  0.19197120  1  -0.162611  0.114058  -0.213796  -0.42343  0.088205  2.890777  0.058
N  N69  1  0.32701877  0.40549133  0.69197646  1  -0.162711  0.114053  -0.213811  -0.423442  0.088206  2.890787  0.058
N  N70  1  0.82701057  0.40549005  0.80802908  1  -0.162489  0.114059  -0.213786  -0.423412  0.088206  2.890773  0.058
N  N71  1  0.67297654  0.59450214  0.30802383  1  -0.162766  0.114044  -0.213749  -0.423277  0.088197  2.890578  0.058
O  O72  1  0.18384966  0.63130850  0.87157467  1  -1.215047  0.078433  -0.326609  -0.578877  0.054712  2.408264  0.038
O  O73  1  0.31614730  0.36869129  0.37158164  1  -1.214751  0.078427  -0.326664  -0.578953  0.054713  2.408155  0.038
O  O74  1  0.81614484  0.36869167  0.12841838  1  -1.214807  0.078424  -0.326649  -0.578919  0.054711  2.408292  0.038
O  O75  1  0.68384634  0.63130553  0.62841774  1  -1.214811  0.078432  -0.326687  -0.578925  0.054715  2.408174  0.038
O  O76  1  0.07564813  0.68456450  0.69199949  1  -1.212136  0.077282  -0.318613  -0.56867  0.054227  2.370847  0.038
O  O77  1  0.42431693  0.31544358  0.19199073  1  -1.212249  0.077281  -0.318587  -0.568665  0.054216  2.370741  0.038
O  O78  1  0.92433610  0.31544012  0.30800170  1  -1.212092  0.077282  -0.318531  -0.568643  0.054222  2.37076  0.038
O  O79  1  0.57566840  0.68455546  0.80800413  1  -1.212166  0.077279  -0.318542  -0.56862  0.054221  2.370914  0.038
