# generated using pymatgen
data_CaH14(C3N2)4
_symmetry_space_group_name_H-M   'P 1'
_cell_length_a   8.65490138
_cell_length_b   9.02476962
_cell_length_c   10.30009761
_cell_angle_alpha   114.96058901
_cell_angle_beta   89.99996758
_cell_angle_gamma   90.00000105
_symmetry_Int_Tables_number   1
_chemical_formula_structural   CaH14(C3N2)4
_chemical_formula_sum   'Ca2 H28 C24 N16'
_cell_volume   729.38104813
_cell_formula_units_Z   2
loop_
 _symmetry_equiv_pos_site_id
 _symmetry_equiv_pos_as_xyz
  1  'x, y, z'
loop_
 _atom_site_type_symbol
 _atom_site_label
 _atom_site_symmetry_multiplicity
 _atom_site_fract_x
 _atom_site_fract_y
 _atom_site_fract_z
 _atom_site_occupancy
 _atom_site_hle17_bader_spin_density
 _atom_site_hle17_ddec_charge
 _atom_site_hle17_ddec_spin_density
 _atom_site_hle17_ddec_sum_bond_order
 _atom_site_hle17_magmom
 _atom_site_hse06_10hf_bader_spin_density
 _atom_site_hse06_10hf_ddec_charge
 _atom_site_hse06_10hf_ddec_spin_density
 _atom_site_hse06_10hf_ddec_sum_bond_order
 _atom_site_hse06_10hf_magmom
 _atom_site_hse06_bader_spin_density
 _atom_site_hse06_ddec_charge
 _atom_site_hse06_ddec_spin_density
 _atom_site_hse06_ddec_sum_bond_order
 _atom_site_hse06_magmom
 _atom_site_pbe_bader_spin_density
 _atom_site_pbe_cm5_charge
 _atom_site_pbe_ddec_charge
 _atom_site_pbe_ddec_spin_density
 _atom_site_pbe_ddec_sum_bond_order
 _atom_site_pbe_magmom
Ca  Ca0  1  0.50000091  0.50000062  0.50000091  1  0  1.300205  0  1.33891  0  0  1.123066  0  1.704745  0  0  1.162206  0  1.676537  0  0  0.912319  1.09499  0  1.723549  0
Ca  Ca1  1  0.00000001  0.49999938  0.00000012  1  0  1.300205  0  1.338898  0  0  1.123063  0  1.704731  0  0  1.162214  0  1.676518  0  0  0.912308  1.094979  0  1.723527  0
H  H2  1  0.79140230  0.92006462  0.41597138  1  0  0.276011  0  0.944782  0  0  0.25902  0  1.006533  0  0  0.264994  0  1.004361  0  0  0.303164  0.254877  0  1.008563  0
H  H3  1  0.29140133  0.07993531  0.08402948  1  0  0.276026  0  0.944808  0  0  0.259035  0  1.006557  0  0  0.265009  0  1.004385  0  0  0.30317  0.254885  0  1.008599  0
H  H4  1  0.20859837  0.07993418  0.58402954  1  0  0.276003  0  0.944783  0  0  0.259023  0  1.006531  0  0  0.264997  0  1.004358  0  0  0.30317  0.254877  0  1.008563  0
H  H5  1  0.70859818  0.92006592  0.91597039  1  0  0.27602  0  0.944786  0  0  0.259021  0  1.006539  0  0  0.264993  0  1.00437  0  0  0.303165  0.254873  0  1.008578  0
H  H6  1  0.13877213  0.48362209  0.32665418  1  0  0.05785  0  0.978239  0  0  0.06567  0  1.049997  0  0  0.067503  0  1.048389  0  0  0.118834  0.063913  0  1.052122  0
H  H7  1  0.63877326  0.51637788  0.17334676  1  0  0.057838  0  0.978275  0  0  0.06566  0  1.050028  0  0  0.067493  0  1.048421  0  0  0.118817  0.063903  0  1.052146  0
H  H8  1  0.86122738  0.51637915  0.67334666  1  0  0.057857  0  0.978258  0  0  0.065676  0  1.050018  0  0  0.06751  0  1.04841  0  0  0.118825  0.063923  0  1.052145  0
H  H9  1  0.36122741  0.48362213  0.82665363  1  0  0.057861  0  0.978238  0  0  0.065681  0  1.049995  0  0  0.067515  0  1.048387  0  0  0.118835  0.063925  0  1.052114  0
H  H10  1  0.54509341  0.25134609  0.11526046  1  0  0.081794  0  0.986375  0  0  0.089355  0  1.054382  0  0  0.091574  0  1.053867  0  0  0.104163  0.087554  0  1.055133  0
H  H11  1  0.04509571  0.74865390  0.38474054  1  0  0.081802  0  0.98634  0  0  0.089362  0  1.054344  0  0  0.091582  0  1.053828  0  0  0.104185  0.087554  0  1.055108  0
H  H12  1  0.45490495  0.74865392  0.88474090  1  0  0.081795  0  0.98636  0  0  0.089358  0  1.054359  0  0  0.091575  0  1.053845  0  0  0.104179  0.087551  0  1.055121  0
H  H13  1  0.95490611  0.25134611  0.61525986  1  0  0.081829  0  0.986357  0  0  0.089391  0  1.054356  0  0  0.091609  0  1.053841  0  0  0.104181  0.087583  0  1.055121  0
H  H14  1  0.32432575  0.23469704  0.91371538  1  0  0.080955  0  0.997474  0  0  0.085257  0  1.071055  0  0  0.087621  0  1.070663  0  0  0.101619  0.083657  0  1.071677  0
H  H15  1  0.82432578  0.76530425  0.58628493  1  0  0.080918  0  0.997513  0  0  0.085231  0  1.071088  0  0  0.087595  0  1.070696  0  0  0.101618  0.083631  0  1.071719  0
H  H16  1  0.67567492  0.76530420  0.08628546  1  0  0.080898  0  0.997521  0  0  0.08521  0  1.0711  0  0  0.087573  0  1.070708  0  0  0.101604  0.08361  0  1.07172  0
H  H17  1  0.17567489  0.23469698  0.41371591  1  0  0.08094  0  0.997497  0  0  0.085243  0  1.071079  0  0  0.087606  0  1.070687  0  0  0.101613  0.083643  0  1.071702  0
H  H18  1  0.57167011  0.12987080  0.53090288  1  0  0.078546  0  0.958663  0  0  0.085444  0  1.029245  0  0  0.087881  0  1.026383  0  0  0.133695  0.083804  0  1.031175  0
H  H19  1  0.07167005  0.87012811  0.96909766  1  0  0.078531  0  0.958698  0  0  0.085447  0  1.02926  0  0  0.087883  0  1.0264  0  0  0.13369  0.083802  0  1.031197  0
H  H20  1  0.42832824  0.87012921  0.46909849  1  0  0.078521  0  0.958713  0  0  0.085436  0  1.029273  0  0  0.087873  0  1.026411  0  0  0.133689  0.083792  0  1.031208  0
H  H21  1  0.92832946  0.12987190  0.03090177  1  0  0.078549  0  0.958689  0  0  0.085467  0  1.02925  0  0  0.087903  0  1.026389  0  0  0.133699  0.083825  0  1.031186  0
H  H22  1  0.83466107  0.29527176  0.27453826  1  0  0.101058  0  0.965541  0  0  0.108666  0  1.028985  0  0  0.110836  0  1.02884  0  0  0.120743  0.10738  0  1.029612  0
H  H23  1  0.33466117  0.70472938  0.22546205  1  0  0.101054  0  0.965587  0  0  0.108659  0  1.029032  0  0  0.11083  0  1.028887  0  0  0.120735  0.107367  0  1.029663  0
H  H24  1  0.16533845  0.70472703  0.72546168  1  0  0.101082  0  0.96548  0  0  0.108691  0  1.028928  0  0  0.110861  0  1.028783  0  0  0.120759  0.107397  0  1.029559  0
H  H25  1  0.66533835  0.29527308  0.77453827  1  0  0.101072  0  0.965497  0  0  0.10868  0  1.028946  0  0  0.11085  0  1.028801  0  0  0.120753  0.107388  0  1.029574  0
H  H26  1  0.95661279  0.99722957  0.25166501  1  0  0.106385  0  0.971178  0  0  0.115315  0  1.03353  0  0  0.117983  0  1.032614  0  0  0.120814  0.113691  0  1.033703  0
H  H27  1  0.45661286  0.00277031  0.24833575  1  0  0.106386  0  0.971224  0  0  0.115319  0  1.033562  0  0  0.117987  0  1.032645  0  0  0.120801  0.113693  0  1.033739  0
H  H28  1  0.04338672  0.00277044  0.74833636  1  0  0.106381  0  0.971175  0  0  0.115314  0  1.033522  0  0  0.117983  0  1.032604  0  0  0.120815  0.113685  0  1.033704  0
H  H29  1  0.54338781  0.99722970  0.75166367  1  0  0.106381  0  0.971199  0  0  0.115307  0  1.033549  0  0  0.117975  0  1.032633  0  0  0.120805  0.113682  0  1.033726  0
C  C30  1  0.21989844  0.41738952  0.24105633  1  0  0.187855  0  3.813247  0  0  0.143999  0  4.082318  0  0  0.155524  0  4.097695  0  0  0.109067  0.135971  0  4.071613  0
C  C31  1  0.71989951  0.58260920  0.25894314  1  0  0.187872  0  3.813295  0  0  0.144017  0  4.08236  0  0  0.155541  0  4.097739  0  0  0.109091  0.135989  0  4.071642  0
C  C32  1  0.78009992  0.58260928  0.75894458  1  0  0.187802  0  3.813444  0  0  0.143947  0  4.082505  0  0  0.155471  0  4.097884  0  0  0.10906  0.135912  0  4.071809  0
C  C33  1  0.28010115  0.41739080  0.74105628  1  0  0.187804  0  3.81327  0  0  0.14395  0  4.082338  0  0  0.155475  0  4.097714  0  0  0.109057  0.135923  0  4.071624  0
C  C34  1  0.42759004  0.29799271  0.13068714  1  0  -0.050457  0  3.844135  0  0  -0.073594  0  4.101172  0  0  -0.071922  0  4.120072  0  0  -0.028373  -0.075028  0  4.089397  0
C  C35  1  0.92759104  0.70200718  0.36931267  1  0  -0.050373  0  3.844053  0  0  -0.073504  0  4.101078  0  0  -0.071831  0  4.119979  0  0  -0.028346  -0.07493  0  4.089316  0
C  C36  1  0.57240716  0.70200607  0.86931183  1  0  -0.050396  0  3.843933  0  0  -0.073533  0  4.100961  0  0  -0.071858  0  4.119862  0  0  -0.028345  -0.074963  0  4.089198  0
C  C37  1  0.07240847  0.29799406  0.63068818  1  0  -0.050491  0  3.844073  0  0  -0.07363  0  4.101105  0  0  -0.071957  0  4.120006  0  0  -0.028374  -0.07506  0  4.089345  0
C  C38  1  0.31679390  0.28786598  0.02974046  1  0  -0.061509  0  3.847945  0  0  -0.085569  0  4.105978  0  0  -0.084419  0  4.125758  0  0  -0.031315  -0.087049  0  4.095045  0
C  C39  1  0.81679483  0.71213516  0.47025889  1  0  -0.061517  0  3.847949  0  0  -0.085588  0  4.105985  0  0  -0.08444  0  4.125767  0  0  -0.031349  -0.087076  0  4.09507  0
C  C40  1  0.68320446  0.71213282  0.97026046  1  0  -0.061458  0  3.847781  0  0  -0.085526  0  4.105816  0  0  -0.084377  0  4.125598  0  0  -0.031311  -0.086999  0  4.094869  0
C  C41  1  0.18320584  0.28786607  0.52974001  1  0  -0.061494  0  3.847869  0  0  -0.085548  0  4.105903  0  0  -0.084398  0  4.125682  0  0  -0.031308  -0.087028  0  4.094972  0
C  C42  1  0.65865438  0.13587528  0.45753418  1  0  0.185663  0  3.734447  0  0  0.131362  0  4.008838  0  0  0.144029  0  4.020714  0  0  0.138977  0.123158  0  4.000451  0
C  C43  1  0.15865345  0.86412589  0.04246526  1  0  0.185714  0  3.734433  0  0  0.131396  0  4.008809  0  0  0.144062  0  4.020683  0  0  0.138988  0.123188  0  4.000424  0
C  C44  1  0.34134745  0.86412594  0.54246472  1  0  0.185713  0  3.734395  0  0  0.131415  0  4.008779  0  0  0.144082  0  4.020654  0  0  0.138993  0.123207  0  4.000396  0
C  C45  1  0.84134606  0.13587534  0.95753462  1  0  0.185679  0  3.734586  0  0  0.131348  0  4.008964  0  0  0.144014  0  4.020839  0  0  0.138973  0.123138  0  4.000584  0
C  C46  1  0.79731458  0.21582804  0.32347312  1  0  -0.011767  0  3.755606  0  0  -0.040368  0  4.019286  0  0  -0.039637  0  4.039887  0  0  -0.000343  -0.041588  0  4.006598  0
C  C47  1  0.29731587  0.78416944  0.17652684  1  0  -0.011778  0  3.755607  0  0  -0.04038  0  4.01929  0  0  -0.039646  0  4.039883  0  0  -0.000364  -0.041607  0  4.006609  0
C  C48  1  0.20268493  0.78417319  0.67652675  1  0  -0.011764  0  3.755573  0  0  -0.040364  0  4.019254  0  0  -0.039632  0  4.039856  0  0  -0.000346  -0.041578  0  4.006564  0
C  C49  1  0.70268595  0.21582813  0.82347363  1  0  -0.011776  0  3.755623  0  0  -0.040384  0  4.019313  0  0  -0.039652  0  4.039913  0  0  -0.000357  -0.041603  0  4.006623  0
C  C50  1  0.85934764  0.06981563  0.31110692  1  0  -0.018188  0  3.693108  0  0  -0.052717  0  3.951624  0  0  -0.051046  0  3.970054  0  0  0.000968  -0.053415  0  3.93868  0
C  C51  1  0.35935124  0.93018428  0.18889390  1  0  -0.018171  0  3.693059  0  0  -0.052697  0  3.951565  0  0  -0.051025  0  3.969992  0  0  0.00102  -0.053392  0  3.938621  0
C  C52  1  0.14065187  0.93018194  0.68889258  1  0  -0.018188  0  3.693144  0  0  -0.052703  0  3.951672  0  0  -0.051031  0  3.970099  0  0  0.000965  -0.053395  0  3.938726  0
C  C53  1  0.64065059  0.06981573  0.81110649  1  0  -0.018179  0  3.69308  0  0  -0.052703  0  3.951576  0  0  -0.051031  0  3.970004  0  0  0.000964  -0.053397  0  3.938628  0
N  N54  1  0.36531430  0.38103092  0.26589221  1  0  -0.479338  0  3.153559  0  0  -0.409545  0  3.423358  0  0  -0.427819  0  3.440833  0  0  -0.432484  -0.396653  0  3.410545  0
N  N55  1  0.86531424  0.61896898  0.23410763  1  0  -0.479376  0  3.153565  0  0  -0.409583  0  3.423364  0  0  -0.427859  0  3.44084  0  0  -0.432492  -0.396688  0  3.410544  0
N  N56  1  0.63468406  0.61896787  0.73410773  1  0  -0.479337  0  3.153565  0  0  -0.409544  0  3.423369  0  0  -0.42782  0  3.440846  0  0  -0.432495  -0.396655  0  3.410566  0
N  N57  1  0.13468528  0.38103103  0.76589179  1  0  -0.479289  0  3.153547  0  0  -0.409504  0  3.423369  0  0  -0.42778  0  3.440846  0  0  -0.43247  -0.396608  0  3.410551  0
N  N58  1  0.18367046  0.36483854  0.10075068  1  0  -0.487043  0  3.151615  0  0  -0.415569  0  3.4187  0  0  -0.43411  0  3.436611  0  0  -0.43484  -0.402219  0  3.406778  0
N  N59  1  0.68367028  0.63516263  0.39924874  1  0  -0.487062  0  3.151557  0  0  -0.415592  0  3.418648  0  0  -0.434133  0  3.436561  0  0  -0.434852  -0.402239  0  3.406725  0
N  N60  1  0.81632905  0.63516269  0.89924919  1  0  -0.487057  0  3.151706  0  0  -0.415587  0  3.418794  0  0  -0.434128  0  3.436706  0  0  -0.434834  -0.402229  0  3.406863  0
N  N61  1  0.31632923  0.36483860  0.60075016  1  0  -0.487056  0  3.151614  0  0  -0.415587  0  3.418709  0  0  -0.434125  0  3.436617  0  0  -0.434858  -0.402235  0  3.406784  0
N  N62  1  0.67157193  0.25572192  0.41481883  1  0  -0.419415  0  3.142351  0  0  -0.356881  0  3.417568  0  0  -0.373333  0  3.434664  0  0  -0.399243  -0.344827  0  3.405347  0
N  N63  1  0.17157097  0.74427804  0.08518209  1  0  -0.419426  0  3.142313  0  0  -0.356894  0  3.417543  0  0  -0.373348  0  3.434639  0  0  -0.399249  -0.344832  0  3.405308  0
N  N64  1  0.32842874  0.74427688  0.58518209  1  0  -0.419469  0  3.142327  0  0  -0.356937  0  3.417553  0  0  -0.37339  0  3.434648  0  0  -0.399264  -0.344879  0  3.405325  0
N  N65  1  0.82842970  0.25572197  0.91481927  1  0  -0.419401  0  3.142426  0  0  -0.356865  0  3.417647  0  0  -0.37332  0  3.434743  0  0  -0.399246  -0.344808  0  3.405419  0
N  N66  1  0.76958345  0.02125400  0.39655982  1  0  -0.278501  0  3.50522  0  0  -0.211378  0  3.732696  0  0  -0.226761  0  3.750116  0  0  -0.381604  -0.200711  0  3.72062  0
N  N67  1  0.26958364  0.97874593  0.10343911  1  0  -0.278548  0  3.505241  0  0  -0.211422  0  3.732717  0  0  -0.226807  0  3.750136  0  0  -0.381635  -0.200759  0  3.72065  0
N  N68  1  0.23041607  0.97874601  0.60344058  1  0  -0.278488  0  3.505202  0  0  -0.211408  0  3.732717  0  0  -0.226793  0  3.750136  0  0  -0.38161  -0.200741  0  3.720639  0
N  N69  1  0.73041819  0.02125409  0.89656129  1  0  -0.278548  0  3.505297  0  0  -0.211398  0  3.732753  0  0  -0.226781  0  3.750172  0  0  -0.381585  -0.200726  0  3.720678  0
