# generated using pymatgen
data_RbLiH6C4O7
_symmetry_space_group_name_H-M   'P 1'
_cell_length_a   9.64940209
_cell_length_b   9.78885233
_cell_length_c   10.40898374
_cell_angle_alpha   118.04882614
_cell_angle_beta   112.66605878
_cell_angle_gamma   89.99963316
_symmetry_Int_Tables_number   1
_chemical_formula_structural   RbLiH6C4O7
_chemical_formula_sum   'Rb4 Li4 H24 C16 O28'
_cell_volume   780.62984805
_cell_formula_units_Z   4
loop_
 _symmetry_equiv_pos_site_id
 _symmetry_equiv_pos_as_xyz
  1  'x, y, z'
loop_
 _atom_site_type_symbol
 _atom_site_label
 _atom_site_symmetry_multiplicity
 _atom_site_fract_x
 _atom_site_fract_y
 _atom_site_fract_z
 _atom_site_occupancy
 _atom_site_hle17_bader_spin_density
 _atom_site_hle17_ddec_charge
 _atom_site_hle17_ddec_spin_density
 _atom_site_hle17_ddec_sum_bond_order
 _atom_site_hle17_magmom
 _atom_site_hse06_10hf_bader_spin_density
 _atom_site_hse06_10hf_ddec_charge
 _atom_site_hse06_10hf_ddec_spin_density
 _atom_site_hse06_10hf_ddec_sum_bond_order
 _atom_site_hse06_10hf_magmom
 _atom_site_hse06_bader_spin_density
 _atom_site_hse06_ddec_charge
 _atom_site_hse06_ddec_spin_density
 _atom_site_hse06_ddec_sum_bond_order
 _atom_site_hse06_magmom
 _atom_site_pbe_bader_spin_density
 _atom_site_pbe_cm5_charge
 _atom_site_pbe_ddec_charge
 _atom_site_pbe_ddec_spin_density
 _atom_site_pbe_ddec_sum_bond_order
 _atom_site_pbe_magmom
Rb  Rb0  1  0.75000206  0.96834004  0.99999502  1  0  0.946035  0  0.467789  0  0  0.888862  0  0.672906  0  0  0.904422  0  0.650503  0  0  0.798385  0.877397  0  0.688886  0
Rb  Rb1  1  0.24999860  0.03166008  0.00000465  1  0  0.946034  0  0.467788  0  0  0.888861  0  0.672906  0  0  0.90442  0  0.650503  0  0  0.798386  0.877395  0  0.688886  0
Rb  Rb2  1  0.75000449  0.48589463  0.99999404  1  0  0.944985  0  0.505182  0  0  0.887198  0  0.724842  0  0  0.904675  0  0.699227  0  0  0.841905  0.874125  0  0.74352  0
Rb  Rb3  1  0.24999617  0.51410549  0.00000659  1  0  0.944975  0  0.50519  0  0  0.887195  0  0.724842  0  0  0.90467  0  0.699228  0  0  0.841907  0.874127  0  0.743508  0
Li  Li4  1  0.92972322  0.42325754  0.33186231  1  0  0.855273  0  0.415653  0  0  0.819929  0  0.515903  0  0  0.828612  0  0.499835  0  0  0.506156  0.813676  0  0.527105  0
Li  Li5  1  0.57026075  0.09140837  0.66812977  1  0  0.855323  0  0.415653  0  0  0.819975  0  0.515908  0  0  0.828657  0  0.499841  0  0  0.506192  0.813715  0  0.527119  0
Li  Li6  1  0.07027632  0.57674257  0.66813888  1  0  0.855295  0  0.415622  0  0  0.819941  0  0.515891  0  0  0.828624  0  0.499824  0  0  0.506157  0.813686  0  0.527096  0
Li  Li7  1  0.42973878  0.90859174  0.33186950  1  0  0.855325  0  0.415648  0  0  0.819978  0  0.5159  0  0  0.828661  0  0.499832  0  0  0.506186  0.813718  0  0.527111  0
H  H8  1  0.90916866  0.74654048  0.74921453  1  0  0.364016  0  0.925921  0  0  0.34223  0  0.996476  0  0  0.352983  0  0.983681  0  0  0.304101  0.334401  0  1.005755  0
H  H9  1  0.59082303  0.99731658  0.25077393  1  0  0.364055  0  0.925667  0  0  0.342271  0  0.996237  0  0  0.35303  0  0.983426  0  0  0.304161  0.334439  0  1.00553  0
H  H10  1  0.09083088  0.25345964  0.25078570  1  0  0.364016  0  0.925924  0  0  0.34223  0  0.996481  0  0  0.352984  0  0.983686  0  0  0.304104  0.334401  0  1.005759  0
H  H11  1  0.40917876  0.00268354  0.74922709  1  0  0.36407  0  0.925648  0  0  0.342285  0  0.996221  0  0  0.353043  0  0.983411  0  0  0.304164  0.334453  0  1.005516  0
H  H12  1  0.10840081  0.12046165  0.67358745  1  0  0.370363  0  0.91383  0  0  0.348398  0  0.985834  0  0  0.357995  0  0.97476  0  0  0.30232  0.341732  0  0.993469  0
H  H13  1  0.39160380  0.44688504  0.32643208  1  0  0.370375  0  0.914067  0  0  0.348368  0  0.986109  0  0  0.357966  0  0.97504  0  0  0.302317  0.341702  0  0.99374  0
H  H14  1  0.89159985  0.87953846  0.32641318  1  0  0.37034  0  0.913875  0  0  0.348362  0  0.985907  0  0  0.357958  0  0.974833  0  0  0.302308  0.341695  0  0.993542  0
H  H15  1  0.60839548  0.55311389  0.67356752  1  0  0.370369  0  0.914062  0  0  0.348361  0  0.98611  0  0  0.357959  0  0.975042  0  0  0.302311  0.341695  0  0.993741  0
H  H16  1  0.03786785  0.35905292  0.10928524  1  0  0.420559  0  0.894448  0  0  0.388368  0  0.960089  0  0  0.400178  0  0.943091  0  0  0.294632  0.380547  0  0.971305  0
H  H17  1  0.46212636  0.24976295  0.89071372  1  0  0.420547  0  0.894468  0  0  0.388352  0  0.960096  0  0  0.400168  0  0.943093  0  0  0.29464  0.380529  0  0.971316  0
H  H18  1  0.96213056  0.64094719  0.89071458  1  0  0.420558  0  0.894448  0  0  0.388367  0  0.960091  0  0  0.400177  0  0.943093  0  0  0.294632  0.380547  0  0.971305  0
H  H19  1  0.53787430  0.75023716  0.10928595  1  0  0.42055  0  0.894468  0  0  0.388355  0  0.960093  0  0  0.400172  0  0.943088  0  0  0.294635  0.380532  0  0.971313  0
H  H20  1  0.15268750  0.50216752  0.28576137  1  0  0.426295  0  0.880106  0  0  0.395982  0  0.943183  0  0  0.406479  0  0.927914  0  0  0.300475  0.388519  0  0.954027  0
H  H21  1  0.34731441  0.21642078  0.71424496  1  0  0.426225  0  0.880203  0  0  0.395875  0  0.943337  0  0  0.406373  0  0.928066  0  0  0.300441  0.388411  0  0.954183  0
H  H22  1  0.84731091  0.49783260  0.71423846  1  0  0.42627  0  0.880141  0  0  0.395983  0  0.943176  0  0  0.406481  0  0.927907  0  0  0.300484  0.38852  0  0.954021  0
H  H23  1  0.65268625  0.78357933  0.28575470  1  0  0.426255  0  0.880159  0  0  0.395903  0  0.943295  0  0  0.4064  0  0.928025  0  0  0.300454  0.388439  0  0.954141  0
H  H24  1  0.72952641  0.85204460  0.58967202  1  0  0.069559  0  0.929572  0  0  0.075331  0  0.996213  0  0  0.078052  0  0.993969  0  0  0.125276  0.073314  0  0.997892  0
H  H25  1  0.77046815  0.26236507  0.41031270  1  0  0.069436  0  0.929585  0  0  0.075335  0  0.996196  0  0  0.078058  0  0.993949  0  0  0.125276  0.073309  0  0.997884  0
H  H26  1  0.27047425  0.14795551  0.41032764  1  0  0.069572  0  0.929597  0  0  0.07533  0  0.996227  0  0  0.078051  0  0.993983  0  0  0.125271  0.073313  0  0.997907  0
H  H27  1  0.22953138  0.73763504  0.58968753  1  0  0.069491  0  0.929575  0  0  0.075339  0  0.996195  0  0  0.078063  0  0.993947  0  0  0.125279  0.073313  0  0.997883  0
H  H28  1  0.85109405  0.04493061  0.56649912  1  0  0.066653  0  0.91758  0  0  0.075318  0  0.979608  0  0  0.07716  0  0.978206  0  0  0.120939  0.073683  0  0.98116  0
H  H29  1  0.64890931  0.47841880  0.43348011  1  0  0.066694  0  0.917545  0  0  0.075296  0  0.979592  0  0  0.077127  0  0.978193  0  0  0.120964  0.073666  0  0.981137  0
H  H30  1  0.14890661  0.95506950  0.43350055  1  0  0.066641  0  0.917598  0  0  0.075325  0  0.979632  0  0  0.077167  0  0.97823  0  0  0.120947  0.073689  0  0.981181  0
H  H31  1  0.35109023  0.52158132  0.56651915  1  0  0.06668  0  0.917576  0  0  0.075286  0  0.979621  0  0  0.077117  0  0.978223  0  0  0.120961  0.073656  0  0.981167  0
C  C32  1  0.87958942  0.73573100  0.48776312  1  0  0.693701  0  3.829981  0  0  0.641338  0  4.13789  0  0  0.67341  0  4.128627  0  0  0.234832  0.619752  0  4.143243  0
C  C33  1  0.62040671  0.24795380  0.51221851  1  0  0.69358  0  3.830228  0  0  0.641262  0  4.138238  0  0  0.673312  0  4.129013  0  0  0.234798  0.619676  0  4.143587  0
C  C34  1  0.12041012  0.26426911  0.51223710  1  0  0.693603  0  3.830137  0  0  0.641262  0  4.137988  0  0  0.673322  0  4.128745  0  0  0.234791  0.619676  0  4.143342  0
C  C35  1  0.37959446  0.75204869  0.48778335  1  0  0.693622  0  3.830258  0  0  0.641241  0  4.138302  0  0  0.67329  0  4.129078  0  0  0.23478  0.619654  0  4.143651  0
C  C36  1  0.85527863  0.86525584  0.63013060  1  0  0.06171  0  3.657064  0  0  0.039156  0  3.90734  0  0  0.040219  0  3.914385  0  0  0.001673  0.038266  0  3.902463  0
C  C37  1  0.64471602  0.23510876  0.36985031  1  0  0.061993  0  3.656882  0  0  0.039046  0  3.907583  0  0  0.040105  0  3.914638  0  0  0.00159  0.038165  0  3.902703  0
C  C38  1  0.14472229  0.13474546  0.36986968  1  0  0.061667  0  3.657093  0  0  0.039189  0  3.907275  0  0  0.040257  0  3.914323  0  0  0.001703  0.038298  0  3.902398  0
C  C39  1  0.35528326  0.76489016  0.63015026  1  0  0.061855  0  3.657034  0  0  0.039061  0  3.90755  0  0  0.040121  0  3.914607  0  0  0.001609  0.03818  0  3.90267  0
C  C40  1  0.92281427  0.02896140  0.66840511  1  0  0.062986  0  3.644899  0  0  0.039664  0  3.897183  0  0  0.041203  0  3.904085  0  0  -0.002758  0.038358  0  3.893012  0
C  C41  1  0.57717654  0.36054424  0.33158288  1  0  0.062923  0  3.644805  0  0  0.039891  0  3.89684  0  0  0.041459  0  3.903735  0  0  -0.002721  0.038574  0  3.892699  0
C  C42  1  0.07718638  0.97103871  0.33159551  1  0  0.063113  0  3.6448  0  0  0.03968  0  3.897215  0  0  0.041219  0  3.904116  0  0  -0.00277  0.038377  0  3.893038  0
C  C43  1  0.42282162  0.63945469  0.66841536  1  0  0.062955  0  3.644872  0  0  0.039879  0  3.896905  0  0  0.041444  0  3.903803  0  0  -0.002748  0.038562  0  3.892764  0
C  C44  1  0.90992057  0.15875709  0.82007532  1  0  0.672541  0  3.868417  0  0  0.624673  0  4.171396  0  0  0.656997  0  4.162962  0  0  0.209627  0.602561  0  4.177134  0
C  C45  1  0.59006316  0.33866295  0.17990791  1  0  0.672397  0  3.868471  0  0  0.624382  0  4.171611  0  0  0.656693  0  4.163191  0  0  0.209447  0.602263  0  4.177363  0
C  C46  1  0.09008009  0.84124303  0.17992531  1  0  0.672474  0  3.868493  0  0  0.624635  0  4.171444  0  0  0.656958  0  4.163011  0  0  0.209617  0.602523  0  4.177182  0
C  C47  1  0.40993388  0.66133598  0.82009089  1  0  0.672335  0  3.868522  0  0  0.624335  0  4.171638  0  0  0.656649  0  4.163218  0  0  0.209454  0.602215  0  4.177394  0
O  O48  1  0.81878640  0.73257243  0.35349599  1  0  -0.681768  0  2.008746  0  0  -0.624843  0  2.238767  0  0  -0.649495  0  2.227903  0  0  -0.339428  -0.607887  0  2.246158  0
O  O49  1  0.68121266  0.37906979  0.64648488  1  0  -0.681822  0  2.008685  0  0  -0.62487  0  2.238704  0  0  -0.649515  0  2.227852  0  0  -0.339452  -0.607916  0  2.246095  0
O  O50  1  0.18121426  0.26742769  0.64650464  1  0  -0.681722  0  2.008756  0  0  -0.624817  0  2.238765  0  0  -0.649465  0  2.227906  0  0  -0.339411  -0.607862  0  2.246156  0
O  O51  1  0.31878488  0.62093151  0.35351419  1  0  -0.68188  0  2.008615  0  0  -0.624898  0  2.238657  0  0  -0.649543  0  2.227808  0  0  -0.339473  -0.607943  0  2.246048  0
O  O52  1  0.95482212  0.63613833  0.50877509  1  0  -0.757248  0  2.010885  0  0  -0.712941  0  2.265143  0  0  -0.733035  0  2.249793  0  0  -0.432153  -0.698544  0  2.27398  0
O  O53  1  0.54517155  0.12735932  0.49121120  1  0  -0.757193  0  2.011297  0  0  -0.712896  0  2.2655  0  0  -0.732982  0  2.250165  0  0  -0.43208  -0.698497  0  2.274342  0
O  O54  1  0.04517742  0.36386178  0.49122513  1  0  -0.757214  0  2.010959  0  0  -0.712922  0  2.265218  0  0  -0.733012  0  2.249876  0  0  -0.432144  -0.698525  0  2.274055  0
O  O55  1  0.45482799  0.87264079  0.50878902  1  0  -0.757126  0  2.011358  0  0  -0.712824  0  2.265587  0  0  -0.732909  0  2.25025  0  0  -0.43203  -0.698425  0  2.274428  0
O  O56  1  0.92516243  0.85825513  0.77408718  1  0  -0.602145  0  2.117189  0  0  -0.558706  0  2.341929  0  0  -0.573777  0  2.331018  0  0  -0.466383  -0.547639  0  2.349347  0
O  O57  1  0.57483983  0.08415400  0.22589530  1  0  -0.602167  0  2.117073  0  0  -0.558663  0  2.341924  0  0  -0.573739  0  2.331013  0  0  -0.46638  -0.547595  0  2.34934  0
O  O58  1  0.07483711  0.14174498  0.22591305  1  0  -0.60214  0  2.117179  0  0  -0.558717  0  2.341905  0  0  -0.57379  0  2.330996  0  0  -0.466398  -0.54765  0  2.349324  0
O  O59  1  0.42515970  0.91584611  0.77410492  1  0  -0.602188  0  2.117078  0  0  -0.558705  0  2.341897  0  0  -0.573782  0  2.330986  0  0  -0.466401  -0.547637  0  2.349314  0
O  O60  1  0.07658571  0.03306513  0.68608436  1  0  -0.570364  0  2.080104  0  0  -0.532672  0  2.309299  0  0  -0.546706  0  2.298142  0  0  -0.439441  -0.522872  0  2.316874  0
O  O61  1  0.42341121  0.34698340  0.31391931  1  0  -0.570378  0  2.080388  0  0  -0.532683  0  2.309522  0  0  -0.54673  0  2.298369  0  0  -0.439423  -0.522881  0  2.3171  0
O  O62  1  0.92341495  0.96693499  0.31391530  1  0  -0.570384  0  2.080128  0  0  -0.532655  0  2.309389  0  0  -0.54669  0  2.298236  0  0  -0.439425  -0.522855  0  2.316961  0
O  O63  1  0.57658833  0.65301671  0.68607996  1  0  -0.570357  0  2.080362  0  0  -0.532658  0  2.309524  0  0  -0.546704  0  2.298373  0  0  -0.439402  -0.522855  0  2.317102  0
O  O64  1  0.03151941  0.26295522  0.93453097  1  0  -0.698004  0  2.013696  0  0  -0.64065  0  2.244277  0  0  -0.665777  0  2.233747  0  0  -0.406637  -0.623689  0  2.251359  0
O  O65  1  0.46844452  0.32838207  0.06544352  1  0  -0.697968  0  2.013348  0  0  -0.640597  0  2.243976  0  0  -0.665724  0  2.233452  0  0  -0.406653  -0.623629  0  2.251058  0
O  O66  1  0.96848038  0.73704608  0.06546987  1  0  -0.697982  0  2.013749  0  0  -0.64063  0  2.244304  0  0  -0.665758  0  2.233775  0  0  -0.406613  -0.62367  0  2.251388  0
O  O67  1  0.53155838  0.67161805  0.93455790  1  0  -0.697961  0  2.013287  0  0  -0.640608  0  2.24389  0  0  -0.665738  0  2.233366  0  0  -0.406687  -0.623638  0  2.250973  0
O  O68  1  0.77896196  0.15365802  0.82070867  1  0  -0.766511  0  1.974752  0  0  -0.726218  0  2.226508  0  0  -0.748522  0  2.214482  0  0  -0.469098  -0.710901  0  2.234873  0
O  O69  1  0.72101242  0.33295573  0.17926988  1  0  -0.766353  0  1.975014  0  0  -0.72601  0  2.226872  0  0  -0.74831  0  2.214855  0  0  -0.468917  -0.710692  0  2.235238  0
O  O70  1  0.22103732  0.84634091  0.17928998  1  0  -0.766501  0  1.974797  0  0  -0.72622  0  2.226529  0  0  -0.748523  0  2.214503  0  0  -0.469122  -0.710904  0  2.234895  0
O  O71  1  0.27898824  0.66704438  0.82072979  1  0  -0.766326  0  1.975152  0  0  -0.725972  0  2.226992  0  0  -0.748271  0  2.214974  0  0  -0.468895  -0.710654  0  2.235361  0
O  O72  1  0.05531162  0.41975622  0.22661494  1  0  -0.933147  0  1.839279  0  0  -0.882404  0  2.017609  0  0  -0.900534  0  1.983104  0  0  -0.664293  -0.869051  0  2.040637  0
O  O73  1  0.44469752  0.19316039  0.77339156  1  0  -0.933153  0  1.839402  0  0  -0.88235  0  2.017828  0  0  -0.900486  0  1.983311  0  0  -0.664331  -0.868994  0  2.040861  0
O  O74  1  0.94468792  0.58024389  0.77338529  1  0  -0.933114  0  1.839318  0  0  -0.882388  0  2.017612  0  0  -0.900518  0  1.983109  0  0  -0.664286  -0.869033  0  2.040643  0
O  O75  1  0.55530314  0.80683973  0.22660906  1  0  -0.933175  0  1.839365  0  0  -0.882366  0  2.017788  0  0  -0.900503  0  1.983271  0  0  -0.664331  -0.86901  0  2.040821  0
