# generated using pymatgen
data_Pr2H9C10O13
_symmetry_space_group_name_H-M   'P 1'
_cell_length_a   8.41191592
_cell_length_b   9.37270331
_cell_length_c   11.47360346
_cell_angle_alpha   80.12630619
_cell_angle_beta   69.15447056
_cell_angle_gamma   76.06358746
_symmetry_Int_Tables_number   1
_chemical_formula_structural   Pr2H9C10O13
_chemical_formula_sum   'Pr4 H18 C20 O26'
_cell_volume   816.83154348
_cell_formula_units_Z   2
loop_
 _symmetry_equiv_pos_site_id
 _symmetry_equiv_pos_as_xyz
  1  'x, y, z'
loop_
 _atom_site_type_symbol
 _atom_site_label
 _atom_site_symmetry_multiplicity
 _atom_site_fract_x
 _atom_site_fract_y
 _atom_site_fract_z
 _atom_site_occupancy
 _atom_site_hle17_ddec_charge
 _atom_site_hle17_ddec_spin_density
 _atom_site_hle17_ddec_sum_bond_order
 _atom_site_hle17_magmom
 _atom_site_hse06_10hf_ddec_charge
 _atom_site_hse06_10hf_ddec_spin_density
 _atom_site_hse06_10hf_ddec_sum_bond_order
 _atom_site_hse06_10hf_magmom
 _atom_site_hse06_ddec_charge
 _atom_site_hse06_ddec_spin_density
 _atom_site_hse06_ddec_sum_bond_order
 _atom_site_hse06_magmom
 _atom_site_pbe_cm5_charge
 _atom_site_pbe_ddec_charge
 _atom_site_pbe_ddec_spin_density
 _atom_site_pbe_ddec_sum_bond_order
 _atom_site_pbe_magmom
Pr  Pr0  1  0.25736199  0.52865166  0.48625306  1  2.369195  -0.004995  1.570254  -0.001  2.260431  -0.006669  1.917966  -0.002  2.299635  -0.005986  1.878334  -0.002  1.486173  2.182572  -0.007083  2.03721  -0.002
Pr  Pr1  1  0.74264082  0.47134871  0.51374708  1  2.369211  0.005  1.570281  0.001  2.26044  0.006587  1.918001  0.002  2.299646  0.005976  1.878367  0.002  1.486196  2.182644  0.007079  2.037133  0.002
Pr  Pr2  1  0.44764685  0.14039225  0.63572069  1  2.335136  0.012512  1.702257  0.003  2.180243  0.019987  2.156419  0.006  2.262402  0.018396  2.031613  0.005  1.538698  2.147916  0.021097  2.19057  0.007
Pr  Pr3  1  0.55234404  0.85960470  0.36428376  1  2.335196  -0.012535  1.702214  -0.003  2.18034  -0.020044  2.156312  -0.006  2.262475  -0.018409  2.031558  -0.005  1.53873  2.148041  -0.021099  2.190436  -0.007
H  H4  1  0.50796060  0.33905967  0.12875734  1  0.081217  -9.7e-05  0.914413  0.0  0.090225  -0.000177  0.971278  0.0  0.092115  -0.000103  0.969834  0.0  0.116953  0.088588  -0.000289  0.972851  0.0
H  H5  1  0.49204642  0.66093409  0.87124006  1  0.081147  0.0001  0.914368  0.0  0.090218  0.000177  0.971212  0.0  0.092111  0.000104  0.969765  0.0  0.116937  0.088576  0.000289  0.972792  0.0
H  H6  1  0.22243462  0.45597625  0.10746059  1  0.138792  3e-06  0.890715  0.0  0.156114  -1.3e-05  0.938696  0.0  0.158698  -2e-06  0.937726  0.0  0.119319  0.154205  -2.1e-05  0.939785  0.0
H  H7  1  0.77756953  0.54402412  0.89253660  1  0.138768  2e-06  0.890705  0.0  0.156102  1.3e-05  0.938659  0.0  0.158684  3e-06  0.937689  0.0  0.119326  0.154192  2.1e-05  0.939746  0.0
H  H8  1  0.23781094  0.26532307  0.15249056  1  0.126118  -1e-05  0.919858  0.0  0.140952  -1.8e-05  0.978753  0.0  0.142333  -1.3e-05  0.979225  0.0  0.113082  0.140026  -2.1e-05  0.978527  0.0
H  H9  1  0.76219333  0.73467730  0.84750224  1  0.126166  2.1e-05  0.919785  0.0  0.14098  1.8e-05  0.9787  0.0  0.142362  1.5e-05  0.97917  0.0  0.113083  0.140052  2.1e-05  0.978472  0.0
H  H10  1  0.04964599  0.83115413  0.75601146  1  0.154659  0.00789  0.907006  0.007  0.171248  0.009439  0.957165  0.008  0.173545  0.00857  0.95661  0.007  0.124601  0.16917  0.009893  0.958109  0.009
H  H11  1  0.95034587  0.16885944  0.24399568  1  0.154734  -0.007888  0.907043  -0.007  0.171297  -0.009437  0.957211  -0.008  0.173593  -0.00857  0.95666  -0.007  0.124636  0.169222  -0.009893  0.958153  -0.009
H  H12  1  0.93729030  0.96145784  0.66762592  1  0.146084  -0.001923  0.898732  -0.001  0.1603  -0.000898  0.952144  -0.001  0.163987  -0.00119  0.950417  -0.001  0.123649  0.157611  -0.000678  0.95366  0.0
H  H13  1  0.06269982  0.03854242  0.33237740  1  0.146134  0.001923  0.898831  0.001  0.160352  0.000899  0.952221  0.001  0.164038  0.00119  0.950496  0.001  0.123679  0.157663  0.000679  0.953738  0.0
H  H14  1  0.92895910  0.08073877  0.84810509  1  0.064577  0.009112  0.906159  0.009  0.075778  0.012755  0.960261  0.01  0.07825  0.01302  0.959399  0.011  0.113877  0.074006  0.012565  0.961236  0.01
H  H15  1  0.07102955  0.91927363  0.15188993  1  0.064473  -0.009111  0.906074  -0.009  0.075703  -0.012753  0.960195  -0.01  0.078174  -0.013018  0.959335  -0.011  0.113873  0.073947  -0.012564  0.961175  -0.01
H  H16  1  0.60036321  0.05030881  0.07016787  1  0.128001  -0.000669  0.965272  0.0  0.130912  -0.001062  1.03518  0.0  0.135083  -0.000963  1.032561  0.0  0.114663  0.127726  -0.001116  1.037668  0.0
H  H17  1  0.39963961  0.94969156  0.92983227  1  0.128041  0.000668  0.965287  0.0  0.130936  0.001063  1.035213  0.0  0.135108  0.000963  1.032591  0.0  0.114676  0.127748  0.001117  1.037698  0.0
H  H18  1  0.39275096  0.58736923  0.18107447  1  0.393892  7.8e-05  0.906174  0.0  0.363649  7.5e-05  0.983755  0.0  0.376492  7e-05  0.96934  0.0  0.296866  0.354607  7.7e-05  0.993073  0.0
H  H19  1  0.60725502  0.41262894  0.81892170  1  0.393841  -7.8e-05  0.906252  0.0  0.36358  -7.5e-05  0.983865  0.0  0.376424  -6.9e-05  0.969443  0.0  0.296826  0.354538  -7.7e-05  0.993182  0.0
H  H20  1  0.41379139  0.44120910  0.69109386  1  0.441817  -3.4e-05  0.845162  0.0  0.416377  -4.6e-05  0.899935  0.0  0.426885  -4e-05  0.884178  0.0  0.308648  0.409027  -4.5e-05  0.910683  0.0
H  H21  1  0.58620818  0.55879456  0.30890314  1  0.441801  3.6e-05  0.845188  0.0  0.41636  4.6e-05  0.899973  0.0  0.426869  4e-05  0.884211  0.0  0.308643  0.409012  4.5e-05  0.910719  0.0
C  C22  1  0.42023526  0.24213729  0.31634576  1  0.708763  2.5e-05  3.783698  0.0  0.664999  -0.000125  4.079798  0.0  0.699114  -5.9e-05  4.070875  0.0  0.241708  0.641916  -0.00021  4.084754  0.0
C  C23  1  0.57976485  0.75785862  0.68365392  1  0.708726  -2.3e-05  3.783619  0.0  0.664952  0.000127  4.079785  0.0  0.699067  5.8e-05  4.070864  0.0  0.241624  0.641871  0.00021  4.084738  0.0
C  C24  1  0.39676333  0.36575498  0.21432636  1  0.138619  -6.8e-05  3.631225  0.0  0.11404  -0.000158  3.882298  0.0  0.11668  -8.8e-05  3.889369  0.0  5.7e-05  0.112427  -0.000293  3.875573  0.0
C  C25  1  0.60324090  0.63423986  0.78567071  1  0.13876  6.3e-05  3.631057  0.0  0.114054  0.000159  3.882307  0.0  0.11669  8.8e-05  3.88938  0.0  0.000175  0.112439  0.000293  3.875578  0.0
C  C26  1  0.23129212  0.37097562  0.18513260  1  -0.311985  -6.8e-05  3.634803  0.0  -0.356423  -0.000144  3.884219  0.0  -0.36209  -6.1e-05  3.890675  0.0  -0.154768  -0.352853  -0.000345  3.880038  0.0
C  C27  1  0.76871236  0.62902364  0.81486205  1  -0.311992  4.1e-05  3.634857  0.0  -0.35638  0.000142  3.884227  0.0  -0.362044  5.8e-05  3.890681  0.0  -0.15477  -0.352818  0.000345  3.880068  0.0
C  C28  1  0.06587123  0.40188921  0.29489718  1  0.732421  -0.000642  3.823688  0.0  0.688314  -0.00097  4.131772  -0.001  0.721579  -0.000785  4.121999  0.0  0.209897  0.66615  -0.001102  4.131862  -0.001
C  C29  1  0.93413250  0.59810784  0.70509884  1  0.732265  0.000645  3.823705  0.0  0.688183  0.000972  4.131728  0.001  0.721446  0.000785  4.121955  0.0  0.20992  0.66602  0.001102  4.131805  0.001
C  C30  1  0.21234785  0.90617289  0.57972461  1  0.792574  -0.000399  3.767634  0.0  0.751074  0.001584  4.05817  0.002  0.785154  0.001162  4.051042  0.001  0.240959  0.72725  0.001885  4.064736  0.002
C  C31  1  0.78764376  0.09382628  0.42028023  1  0.792576  0.0004  3.767467  0.0  0.750957  -0.001582  4.058181  -0.002  0.785038  -0.001159  4.051055  -0.001  0.240928  0.727147  -0.001885  4.06472  -0.002
C  C32  1  0.05485166  0.93576507  0.69481453  1  -0.338341  0.024789  3.62071  0.018  -0.38116  0.023372  3.862419  0.014  -0.387988  0.023035  3.868801  0.015  -0.151215  -0.376133  0.023358  3.858746  0.014
C  C33  1  0.94514097  0.06424074  0.30518652  1  -0.338561  -0.024788  3.620812  -0.018  -0.381287  -0.023371  3.862581  -0.014  -0.388121  -0.023029  3.868966  -0.015  -0.151271  -0.376252  -0.023359  3.858933  -0.014
C  C34  1  0.05348170  0.05616120  0.77077024  1  0.208203  0.078689  3.701232  0.024  0.187669  0.116873  3.971067  0.05  0.189063  0.101685  3.981649  0.038  0.03284  0.184873  0.123972  3.966536  0.057
C  C35  1  0.94651142  0.94384793  0.22922935  1  0.208516  -0.078641  3.700919  -0.024  0.187862  -0.116824  3.970963  -0.05  0.189263  -0.101677  3.981541  -0.038  0.032865  0.184993  -0.123959  3.966565  -0.057
C  C36  1  0.02439856  0.22788853  0.67289134  1  0.69498  0.214228  3.75415  0.13  0.655681  0.188104  4.063615  0.11  0.69279  0.199153  4.059052  0.117  0.285042  0.629714  0.17999  4.065696  0.104
C  C37  1  0.97559735  0.77211400  0.32711109  1  0.695084  -0.214273  3.753784  -0.13  0.655736  -0.188104  4.063423  -0.11  0.692848  -0.199157  4.058858  -0.117  0.285087  0.629786  -0.180007  4.065504  -0.104
C  C38  1  0.55153121  0.18397822  0.90430444  1  0.72387  7.1e-05  3.869572  0.0  0.682012  0.000272  4.159188  0.0  0.716553  0.000211  4.14972  0.0  0.226878  0.658796  0.000334  4.165201  0.0
C  C39  1  0.44846956  0.81601992  0.09569826  1  0.723944  -6.8e-05  3.869612  0.0  0.682066  -0.000271  4.159251  0.0  0.716606  -0.00021  4.149784  0.0  0.226883  0.658846  -0.000333  4.165273  0.0
C  C40  1  0.54109162  0.05354501  0.99908805  1  -0.174089  -0.000462  3.650191  0.0  -0.194485  -0.000515  3.906285  -0.001  -0.20018  -0.000483  3.920492  -0.001  -0.075996  -0.190606  -0.000546  3.896262  -0.001
C  C41  1  0.45890886  0.94645424  0.00091544  1  -0.174114  0.000464  3.650201  0.0  -0.194451  0.000515  3.906257  0.001  -0.200146  0.000481  3.920466  0.001  -0.075916  -0.190571  0.000546  3.896233  0.001
O  O42  1  0.39760642  0.50253470  0.25221823  1  -0.672972  -0.001405  2.206068  -0.001  -0.616041  -0.001879  2.439112  -0.002  -0.633291  -0.001205  2.425043  -0.001  -0.445901  -0.598437  -0.002993  2.448228  -0.003
O  O43  1  0.60239656  0.49746013  0.74777828  1  -0.672915  0.001407  2.206044  0.001  -0.615965  0.001878  2.43915  0.002  -0.633213  0.001204  2.425077  0.001  -0.445915  -0.598368  0.002991  2.448262  0.003
O  O44  1  0.07553717  0.41460829  0.40285927  1  -0.82984  -0.000513  2.094069  0.0  -0.782129  -0.000661  2.347866  0.0  -0.805788  -0.000567  2.336802  0.0  -0.427688  -0.754692  -0.000787  2.354076  0.0
O  O45  1  0.92446957  0.58539210  0.59713553  1  -0.82982  0.000514  2.094038  0.0  -0.78212  0.000662  2.347811  0.0  -0.805794  0.000567  2.336782  0.0  -0.427769  -0.754684  0.000785  2.354019  0.0
O  O46  1  0.92065589  0.41347822  0.28157569  1  -0.664914  -0.001166  1.905571  -0.001  -0.626426  -0.001793  2.128454  -0.001  -0.648974  -0.001343  2.118489  -0.001  -0.352083  -0.606076  -0.002466  2.135012  -0.002
O  O47  1  0.07934961  0.58651663  0.71842106  1  -0.664824  0.001164  1.905588  0.001  -0.626346  0.001793  2.128451  0.001  -0.648893  0.001345  2.118489  0.001  -0.352062  -0.605989  0.002465  2.135006  0.002
O  O48  1  0.88339130  0.25498188  0.65722507  1  -0.533306  0.171742  2.063696  0.149  -0.500474  0.167313  2.310146  0.144  -0.526556  0.162332  2.30652  0.142  -0.242999  -0.479182  0.167991  2.313916  0.144
O  O49  1  0.11661985  0.74502077  0.34277355  1  -0.53344  -0.171779  2.063337  -0.149  -0.500593  -0.167312  2.309853  -0.144  -0.52667  -0.16235  2.306215  -0.142  -0.243067  -0.479286  -0.168013  2.313612  -0.144
O  O50  1  0.23845537  0.79874383  0.51686115  1  -0.765863  -0.001587  2.032638  -0.002  -0.723904  -0.002078  2.289229  -0.002  -0.749356  -0.001564  2.276482  -0.002  -0.382719  -0.702329  -0.002714  2.298505  -0.003
O  O51  1  0.76154003  0.20125537  0.48314361  1  -0.765744  0.001586  2.032619  0.002  -0.723723  0.002081  2.289234  0.002  -0.749179  0.001563  2.276489  0.002  -0.38257  -0.702157  0.002714  2.298499  0.003
O  O52  1  0.42865518  0.27761699  0.41700099  1  -0.769148  8.7e-05  2.088329  0.0  -0.720308  6e-05  2.341516  0.0  -0.747421  7.1e-05  2.329857  0.0  -0.399468  -0.698605  0.000152  2.348098  0.0
O  O53  1  0.57134847  0.72238006  0.58299765  1  -0.769192  -8.4e-05  2.088244  0.0  -0.720334  -5.9e-05  2.34144  0.0  -0.747442  -7.1e-05  2.32978  0.0  -0.399499  -0.698641  -0.000151  2.348021  0.0
O  O54  1  0.44570154  0.40674866  0.60847720  1  -1.223599  0.000145  1.816999  0.0  -1.174603  -0.00023  2.05362  0.0  -1.201031  -0.000127  2.021088  0.0  -0.80473  -1.146306  -0.00042  2.076854  0.0
O  O55  1  0.55430462  0.59325394  0.39151918  1  -1.22354  -0.000143  1.817013  0.0  -1.17454  0.000239  2.053593  0.0  -1.200967  0.000127  2.021071  0.0  -0.804717  -1.146246  0.000424  2.076824  0.0
O  O56  1  0.15110835  0.28984869  0.63947401  1  -0.697809  0.060863  2.205084  0.052  -0.643741  0.062266  2.448093  0.052  -0.674611  0.059024  2.44135  0.05  -0.346576  -0.621511  0.063603  2.452834  0.053
O  O57  1  0.84890639  0.71014404  0.36052770  1  -0.697823  -0.060863  2.205197  -0.052  -0.643728  -0.062262  2.448241  -0.052  -0.674592  -0.059027  2.441496  -0.05  -0.346535  -0.621508  -0.063601  2.452979  -0.053
O  O58  1  0.32085973  0.99282968  0.54425413  1  -0.813858  -0.000872  2.17505  0.0  -0.75286  -0.000673  2.425671  0.0  -0.787085  -0.000759  2.41501  0.0  -0.434562  -0.73501  -0.0006  2.432589  0.0
O  O59  1  0.67913882  0.00716180  0.45575004  1  -0.813961  0.000873  2.174921  0.0  -0.75291  0.000674  2.425568  0.0  -0.787127  0.000758  2.414895  0.0  -0.434694  -0.735063  0.0006  2.432475  0.0
O  O60  1  0.43221112  0.11278928  0.29280856  1  -0.701796  -0.001001  2.020563  -0.001  -0.659089  -0.001201  2.274776  -0.001  -0.689734  -0.000959  2.263761  -0.001  -0.377862  -0.641319  -0.001323  2.280975  -0.001
O  O61  1  0.56777857  0.88720765  0.70719357  1  -0.701722  0.001004  2.020593  0.001  -0.658994  0.001202  2.274796  0.001  -0.689644  0.000958  2.263785  0.001  -0.377777  -0.64122  0.001324  2.280989  0.001
O  O62  1  0.19291884  0.05348731  0.79742602  1  -0.512484  0.415986  1.891773  0.352  -0.4927  0.371065  2.132144  0.311  -0.495982  0.402397  2.118913  0.342  -0.354125  -0.492189  0.350006  2.140423  0.291
O  O63  1  0.80707368  0.94652403  0.20257603  1  -0.512601  -0.41594  1.891761  -0.352  -0.49278  -0.371005  2.132186  -0.311  -0.496069  -0.402363  2.118958  -0.342  -0.354141  -0.492248  -0.34998  2.140504  -0.291
O  O64  1  0.50100279  0.18604088  0.81114252  1  -0.777074  -0.000289  2.031674  0.0  -0.722155  -0.000248  2.289895  0.0  -0.752457  -0.00035  2.272008  0.0  -0.440745  -0.704856  -0.000248  2.29929  0.0
O  O65  1  0.49899207  0.81396054  0.18886206  1  -0.7771  0.000281  2.031775  0.0  -0.722171  0.000248  2.28999  0.0  -0.752472  0.000352  2.272114  0.0  -0.440753  -0.704873  0.000248  2.299391  0.0
O  O66  1  0.60969004  0.28890501  0.92184039  1  -0.591943  -6.3e-05  1.915799  0.0  -0.543644  5.4e-05  2.125593  0.0  -0.567928  -2.1e-05  2.115055  0.0  -0.30256  -0.526632  0.000118  2.132337  0.0
O  O67  1  0.39031513  0.71109095  0.07815891  1  -0.59193  7e-05  1.915752  0.0  -0.54367  -5.4e-05  2.125594  0.0  -0.567955  2e-05  2.115058  0.0  -0.302545  -0.526653  -0.000117  2.13234  0.0
