# generated using pymatgen
data_EuH16C27N2O7
_symmetry_space_group_name_H-M   'P 1'
_cell_length_a   10.50965744
_cell_length_b   10.79776170
_cell_length_c   11.74492500
_cell_angle_alpha   76.86130996
_cell_angle_beta   83.96932840
_cell_angle_gamma   66.04170295
_symmetry_Int_Tables_number   1
_chemical_formula_structural   EuH16C27N2O7
_chemical_formula_sum   'Eu2 H32 C54 N4 O14'
_cell_volume   1185.98330014
_cell_formula_units_Z   2
loop_
 _symmetry_equiv_pos_site_id
 _symmetry_equiv_pos_as_xyz
  1  'x, y, z'
loop_
 _atom_site_type_symbol
 _atom_site_label
 _atom_site_symmetry_multiplicity
 _atom_site_fract_x
 _atom_site_fract_y
 _atom_site_fract_z
 _atom_site_occupancy
 _atom_site_hle17_bader_spin_density
 _atom_site_hle17_ddec_charge
 _atom_site_hle17_ddec_spin_density
 _atom_site_hle17_ddec_sum_bond_order
 _atom_site_hle17_magmom
 _atom_site_hse06_10hf_bader_spin_density
 _atom_site_hse06_10hf_ddec_charge
 _atom_site_hse06_10hf_ddec_spin_density
 _atom_site_hse06_10hf_ddec_sum_bond_order
 _atom_site_hse06_10hf_magmom
 _atom_site_hse06_bader_spin_density
 _atom_site_hse06_ddec_charge
 _atom_site_hse06_ddec_spin_density
 _atom_site_hse06_ddec_sum_bond_order
 _atom_site_hse06_magmom
 _atom_site_pbe_bader_spin_density
 _atom_site_pbe_cm5_charge
 _atom_site_pbe_ddec_charge
 _atom_site_pbe_ddec_spin_density
 _atom_site_pbe_ddec_sum_bond_order
 _atom_site_pbe_magmom
Eu  Eu0  1  0.98791362  0.25223659  0.09975435  1  0  2.158042  0  1.755199  0  0  1.990835  0  2.259262  0  0  2.039714  0  2.215808  0  0  1.522616  1.954343  0  2.292614  0
Eu  Eu1  1  0.01208704  0.74776530  0.90024698  1  0  2.157964  0  1.755063  0  0  1.990694  0  2.259188  0  0  2.039544  0  2.215786  0  0  1.522664  1.954222  0  2.292485  0
H  H2  1  0.21098474  0.40735789  0.96816312  1  0  0.081737  0  0.970507  0  0  0.086371  0  1.040598  0  0  0.089425  0  1.037123  0  0  0.126413  0.084293  0  1.04282  0
H  H3  1  0.78901488  0.59264217  0.03183733  1  0  0.081738  0  0.970478  0  0  0.086371  0  1.040583  0  0  0.089427  0  1.037107  0  0  0.126411  0.084292  0  1.042807  0
H  H4  1  0.45934887  0.36203233  0.92970760  1  0  0.105946  0  0.959243  0  0  0.116196  0  1.017077  0  0  0.11949  0  1.015683  0  0  0.108823  0.113933  0  1.018044  0
H  H5  1  0.54065081  0.63796815  0.07029110  1  0  0.106022  0  0.959241  0  0  0.116268  0  1.017065  0  0  0.119563  0  1.015668  0  0  0.10886  0.114005  0  1.018033  0
H  H6  1  0.64203060  0.13924432  0.03657961  1  0  0.122862  0  0.945391  0  0  0.132072  0  1.004437  0  0  0.135719  0  1.001469  0  0  0.113999  0.129291  0  1.006807  0
H  H7  1  0.35796947  0.86075494  0.96341996  1  0  0.122882  0  0.945369  0  0  0.132082  0  1.004427  0  0  0.135728  0  1.00146  0  0  0.114013  0.1293  0  1.0068  0
H  H8  1  0.69423321  0.91339852  0.17291232  1  0  0.117147  0  0.945336  0  0  0.126946  0  1.005562  0  0  0.130096  0  1.004128  0  0  0.109341  0.124435  0  1.007105  0
H  H9  1  0.30576686  0.08660074  0.82708725  1  0  0.117173  0  0.945315  0  0  0.126961  0  1.005552  0  0  0.130111  0  1.004117  0  0  0.109352  0.124448  0  1.007099  0
H  H10  1  0.61142609  0.74874021  0.31046221  1  0  0.092056  0  0.978106  0  0  0.101307  0  1.043607  0  0  0.102949  0  1.045342  0  0  0.098288  0.100375  0  1.04197  0
H  H11  1  0.38857395  0.25125884  0.68953823  1  0  0.092054  0  0.978103  0  0  0.101307  0  1.043598  0  0  0.10295  0  1.045331  0  0  0.098294  0.100374  0  1.041961  0
H  H12  1  0.41187702  0.69327762  0.41100398  1  0  0.098586  0  0.927321  0  0  0.113997  0  0.97816  0  0  0.116747  0  0.976659  0  0  0.111318  0.11193  0  0.979492  0
H  H13  1  0.58812218  0.30672346  0.58899647  1  0  0.098613  0  0.927295  0  0  0.114025  0  0.978134  0  0  0.116774  0  0.976633  0  0  0.111337  0.111958  0  0.979467  0
H  H14  1  0.15381527  0.76958750  0.44624394  1  0  0.109977  0  0.947456  0  0  0.121907  0  1.00355  0  0  0.124702  0  1.003572  0  0  0.110289  0.119837  0  1.003734  0
H  H15  1  0.84618436  0.23041257  0.55375651  1  0  0.109994  0  0.947441  0  0  0.121922  0  1.003533  0  0  0.124718  0  1.003554  0  0  0.1103  0.119853  0  1.00372  0
H  H16  1  0.99455513  0.00078211  0.33342264  1  0  0.084387  0  0.946546  0  0  0.091633  0  1.012317  0  0  0.094721  0  1.009088  0  0  0.122666  0.089309  0  1.014776  0
H  H17  1  0.00544409  0.99921918  0.66657693  1  0  0.084393  0  0.946605  0  0  0.091634  0  1.01237  0  0  0.094726  0  1.009145  0  0  0.122653  0.089308  0  1.014833  0
H  H18  1  0.69951101  0.13066461  0.40460119  1  0  0.096797  0  0.952882  0  0  0.106256  0  1.014192  0  0  0.109375  0  1.012274  0  0  0.102651  0.103924  0  1.015733  0
H  H19  1  0.30048906  0.86933465  0.59539838  1  0  0.096805  0  0.952876  0  0  0.10627  0  1.014181  0  0  0.109389  0  1.012264  0  0  0.102663  0.103938  0  1.015722  0
H  H20  1  0.47430477  0.11508091  0.48743918  1  0  0.109909  0  0.95538  0  0  0.120627  0  1.015976  0  0  0.124003  0  1.014666  0  0  0.104025  0.118277  0  1.016864  0
H  H21  1  0.52569486  0.88491916  0.51256127  1  0  0.109925  0  0.955372  0  0  0.120644  0  1.015964  0  0  0.124021  0  1.014652  0  0  0.104038  0.118294  0  1.016854  0
H  H22  1  0.24856045  0.46643474  0.22333614  1  0  0.125941  0  0.951448  0  0  0.136911  0  1.008658  0  0  0.139694  0  1.008076  0  0  0.11176  0.134897  0  1.009291  0
H  H23  1  0.75143970  0.53356634  0.77666431  1  0  0.125935  0  0.951442  0  0  0.136906  0  1.008654  0  0  0.139691  0  1.008068  0  0  0.111762  0.13489  0  1.009287  0
H  H24  1  0.47237027  0.47935808  0.14092194  1  0  0.102041  0  0.950229  0  0  0.113859  0  1.007388  0  0  0.117258  0  1.004663  0  0  0.109188  0.111264  0  1.009598  0
H  H25  1  0.52762986  0.52064280  0.85907938  1  0  0.102054  0  0.950245  0  0  0.113883  0  1.007373  0  0  0.117293  0  1.004637  0  0  0.109219  0.111289  0  1.009583  0
H  H26  1  0.23289904  0.49635347  0.46884051  1  0  0.105497  0  0.95993  0  0  0.116684  0  1.018711  0  0  0.119526  0  1.018822  0  0  0.102427  0.114614  0  1.018885  0
H  H27  1  0.76710152  0.50364639  0.53116082  1  0  0.105498  0  0.959944  0  0  0.116684  0  1.01872  0  0  0.119526  0  1.018831  0  0  0.102435  0.114616  0  1.018893  0
H  H28  1  0.13014305  0.57176591  0.65615336  1  0  0.110112  0  0.957459  0  0  0.117879  0  1.020143  0  0  0.121576  0  1.017018  0  0  0.110144  0.115236  0  1.02233  0
H  H29  1  0.86985605  0.42823314  0.34384708  1  0  0.110109  0  0.95744  0  0  0.117874  0  1.020128  0  0  0.12157  0  1.017007  0  0  0.110147  0.115232  0  1.022318  0
H  H30  1  0.01373488  0.22354579  0.75693690  1  0  0.100561  0  0.949695  0  0  0.109867  0  1.011152  0  0  0.112669  0  1.009446  0  0  0.108187  0.107638  0  1.012747  0
H  H31  1  0.98626475  0.77645427  0.24306355  1  0  0.100559  0  0.949709  0  0  0.109868  0  1.01116  0  0  0.112668  0  1.009457  0  0  0.108178  0.107638  0  1.012754  0
H  H32  1  0.11369545  0.14937586  0.56687522  1  0  0.109854  0  0.943183  0  0  0.122645  0  0.999523  0  0  0.126174  0  0.997728  0  0  0.107837  0.120099  0  1.000972  0
H  H33  1  0.88630513  0.85062421  0.43312523  1  0  0.109855  0  0.943175  0  0  0.122645  0  0.999516  0  0  0.126174  0  0.997721  0  0  0.107834  0.120098  0  1.000964  0
C  C34  1  0.28995834  0.31047570  0.01179746  1  0  0.166606  0  3.675841  0  0  0.135919  0  3.934636  0  0  0.144285  0  3.950273  0  0  0.069241  0.130564  0  3.923561  0
C  C35  1  0.71004091  0.68952580  0.98820123  1  0  0.166632  0  3.675867  0  0  0.13591  0  3.934707  0  0  0.144277  0  3.950342  0  0  0.069232  0.130551  0  3.923635  0
C  C36  1  0.43180204  0.28417922  0.99052517  1  0  -0.105156  0  3.719403  0  0  -0.117777  0  3.972444  0  0  -0.124793  0  3.993584  0  0  -0.077093  -0.112924  0  3.957754  0
C  C37  1  0.56819844  0.71581882  0.00947529  1  0  -0.105241  0  3.719382  0  0  -0.117853  0  3.972438  0  0  -0.12487  0  3.993574  0  0  -0.077123  -0.113001  0  3.957751  0
C  C38  1  0.53092523  0.16272482  0.04849128  1  0  -0.032581  0  3.644616  0  0  -0.057992  0  3.892754  0  0  -0.055546  0  3.910184  0  0  -0.055733  -0.059405  0  3.880928  0
C  C39  1  0.46907537  0.83727545  0.95150830  1  0  -0.032585  0  3.644575  0  0  -0.058006  0  3.892669  0  0  -0.055559  0  3.910096  0  0  -0.05572  -0.059421  0  3.880846  0
C  C40  1  0.48692973  0.06735477  0.12755550  1  0  0.028234  0  3.772426  0  0  0.045553  0  4.003066  0  0  0.042688  0  4.028042  0  0  0.00374  0.047296  0  3.986295  0
C  C41  1  0.51307037  0.93264470  0.87244320  1  0  0.028208  0  3.77249  0  0  0.045611  0  4.003024  0  0  0.042748  0  4.027996  0  0  0.003708  0.04735  0  3.98625  0
C  C42  1  0.58342871  0.93817794  0.18957541  1  0  -0.081553  0  3.715759  0  0  -0.106362  0  3.96989  0  0  -0.108728  0  3.992795  0  0  -0.077634  -0.104631  0  3.954657  0
C  C43  1  0.41657136  0.06182132  0.81042417  1  0  -0.081569  0  3.715719  0  0  -0.106403  0  3.969838  0  0  -0.108768  0  3.992739  0  0  -0.077637  -0.104672  0  3.954609  0
C  C44  1  0.53746186  0.84780989  0.26468007  1  0  -0.117496  0  3.767471  0  0  -0.139501  0  4.023288  0  0  -0.144278  0  4.048652  0  0  -0.089979  -0.136124  0  4.005558  0
C  C45  1  0.46253877  0.15219058  0.73531864  1  0  -0.117484  0  3.767427  0  0  -0.139489  0  4.023254  0  0  -0.144266  0  4.048617  0  0  -0.089984  -0.136113  0  4.005525  0
C  C46  1  0.39158955  0.88107628  0.28525579  1  0  0.026375  0  3.782317  0  0  0.044171  0  4.008943  0  0  0.041727  0  4.033279  0  0  -0.000532  0.04569  0  3.992409  0
C  C47  1  0.60841050  0.11892277  0.71474466  1  0  0.026418  0  3.782309  0  0  0.044205  0  4.008944  0  0  0.041762  0  4.033279  0  0  -0.000504  0.045723  0  3.992408  0
C  C48  1  0.33911190  0.79252863  0.36424527  1  0  -0.042367  0  3.700998  0  0  -0.064638  0  3.943398  0  0  -0.061982  0  3.961564  0  0  -0.060632  -0.066446  0  3.931279  0
C  C49  1  0.66088775  0.20747164  0.63575430  1  0  -0.042385  0  3.700958  0  0  -0.064661  0  3.943366  0  0  -0.062003  0  3.961529  0  0  -0.060634  -0.066471  0  3.931252  0
C  C50  1  0.19708844  0.83388762  0.38345088  1  0  -0.125304  0  3.744338  0  0  -0.138753  0  3.997564  0  0  -0.14607  0  4.019498  0  0  -0.084368  -0.13393  0  3.982937  0
C  C51  1  0.80291077  0.16611346  0.61654956  1  0  -0.125256  0  3.744337  0  0  -0.138695  0  3.997548  0  0  -0.146012  0  4.01948  0  0  -0.084344  -0.133876  0  3.982927  0
C  C52  1  0.10750274  0.96283702  0.32122564  1  0  0.14794  0  3.71394  0  0  0.118834  0  3.971268  0  0  0.126285  0  3.988049  0  0  0.060435  0.114073  0  3.959718  0
C  C53  1  0.89249733  0.03716223  0.67877393  1  0  0.147884  0  3.714085  0  0  0.118782  0  3.971393  0  0  0.126228  0  3.988179  0  0  0.060447  0.11402  0  3.959845  0
C  C54  1  0.29291155  0.00917676  0.22568297  1  0  0.156575  0  3.729613  0  0  0.151483  0  3.967092  0  0  0.156782  0  3.986302  0  0  0.126658  0.148156  0  3.953774  0
C  C55  1  0.70708855  0.99082271  0.77431573  1  0  0.156559  0  3.729767  0  0  0.151477  0  3.967231  0  0  0.156777  0  3.98644  0  0  0.126665  0.14815  0  3.953908  0
C  C56  1  0.34145829  0.10266729  0.14385780  1  0  0.144377  0  3.748759  0  0  0.138295  0  3.989008  0  0  0.142682  0  4.009331  0  0  0.123528  0.135348  0  3.975264  0
C  C57  1  0.65854176  0.89733177  0.85614265  1  0  0.144333  0  3.748812  0  0  0.138224  0  3.989034  0  0  0.142611  0  4.009359  0  0  0.123497  0.135279  0  3.975282  0
C  C58  1  0.92666678  0.00964813  0.02648184  1  0  0.547579  0  3.959215  0  0  0.508668  0  4.253629  0  0  0.538627  0  4.24321  0  0  0.209683  0.488398  0  4.259956  0
C  C59  1  0.07333260  0.99032604  0.97350811  1  0  0.547402  0  3.959169  0  0  0.508344  0  4.253777  0  0  0.538305  0  4.243363  0  0  0.20944  0.488073  0  4.260102  0
C  C60  1  0.73369490  0.31254837  0.21882566  1  0  0.64202  0  3.930058  0  0  0.59845  0  4.219404  0  0  0.633127  0  4.210712  0  0  0.185386  0.57515  0  4.224345  0
C  C61  1  0.26630322  0.68745048  0.78117565  1  0  0.642061  0  3.930113  0  0  0.598514  0  4.219449  0  0  0.63319  0  4.210755  0  0  0.185447  0.575213  0  4.224392  0
C  C62  1  0.59921310  0.30800941  0.26985730  1  0  -0.074379  0  3.761589  0  0  -0.051427  0  3.990023  0  0  -0.061308  0  4.014785  0  0  -0.021809  -0.045224  0  3.973467  0
C  C63  1  0.40078750  0.69199086  0.73014228  1  0  -0.074422  0  3.76167  0  0  -0.051519  0  3.990169  0  0  -0.061398  0  4.014933  0  0  -0.021821  -0.045316  0  3.973609  0
C  C64  1  0.60002155  0.20423621  0.36672235  1  0  -0.045125  0  3.753012  0  0  -0.067089  0  3.999203  0  0  -0.065517  0  4.019998  0  0  -0.081481  -0.067727  0  3.984925  0
C  C65  1  0.39997945  0.79576284  0.63327811  1  0  -0.045096  0  3.753034  0  0  -0.067053  0  3.999238  0  0  -0.065481  0  4.020033  0  0  -0.08148  -0.067694  0  3.984962  0
C  C66  1  0.47591566  0.19490347  0.41216814  1  0  -0.189982  0  3.76673  0  0  -0.213544  0  4.025018  0  0  -0.2197  0  4.045043  0  0  -0.102211  -0.20939  0  4.011245  0
C  C67  1  0.52408534  0.80509558  0.58783232  1  0  -0.190006  0  3.766775  0  0  -0.213578  0  4.02506  0  0  -0.219731  0  4.045076  0  0  -0.102238  -0.209425  0  4.011289  0
C  C68  1  0.35049118  0.29010017  0.36010493  1  0  0.27337  0  3.786771  0  0  0.262998  0  4.05496  0  0  0.273685  0  4.070337  0  0  0.083695  0.255778  0  4.044557  0
C  C69  1  0.64950895  0.70990071  0.63989640  1  0  0.273375  0  3.786777  0  0  0.263007  0  4.05494  0  0  0.273712  0  4.070315  0  0  0.083701  0.255786  0  4.044533  0
C  C70  1  0.34706280  0.39399037  0.26351130  1  0  -0.171632  0  3.727824  0  0  -0.19361  0  3.981263  0  0  -0.199198  0  4.001282  0  0  -0.094683  -0.190118  0  3.968336  0
C  C71  1  0.65293641  0.60601071  0.73648914  1  0  -0.171603  0  3.727861  0  0  -0.193596  0  3.981305  0  0  -0.199183  0  4.001318  0  0  -0.094699  -0.190105  0  3.968376  0
C  C72  1  0.47230153  0.40171831  0.21846658  1  0  -0.046142  0  3.741663  0  0  -0.068693  0  3.987318  0  0  -0.067144  0  4.007801  0  0  -0.076886  -0.069718  0  3.973958  0
C  C73  1  0.52769863  0.59828276  0.78153387  1  0  -0.046154  0  3.741726  0  0  -0.068697  0  3.987395  0  0  -0.067157  0  4.007871  0  0  -0.076902  -0.069725  0  3.974036  0
C  C74  1  0.17746325  0.31901705  0.50810674  1  0  0.291967  0  3.792032  0  0  0.281534  0  4.055722  0  0  0.29422  0  4.070416  0  0  0.092455  0.273055  0  4.045554  0
C  C75  1  0.82253597  0.68098423  0.49189283  1  0  0.291978  0  3.791976  0  0  0.281518  0  4.055673  0  0  0.294231  0  4.070361  0  0  0.092458  0.273046  0  4.045501  0
C  C76  1  0.18478752  0.43715415  0.53233921  1  0  -0.208851  0  3.77811  0  0  -0.227396  0  4.030957  0  0  -0.235311  0  4.052053  0  0  -0.106244  -0.222107  0  4.01671  0
C  C77  1  0.81521158  0.56284490  0.46766124  1  0  -0.208859  0  3.778053  0  0  -0.2274  0  4.030905  0  0  -0.235318  0  4.051998  0  0  -0.106239  -0.222116  0  4.016662  0
C  C78  1  0.12769150  0.47881963  0.63639490  1  0  -0.033328  0  3.728833  0  0  -0.055639  0  3.974687  0  0  -0.051554  0  3.992159  0  0  -0.077014  -0.05815  0  3.962779  0
C  C79  1  0.87230868  0.52118166  0.36360467  1  0  -0.033289  0  3.728828  0  0  -0.055585  0  3.974672  0  0  -0.051505  0  3.992146  0  0  -0.077011  -0.058101  0  3.96277  0
C  C80  1  0.06534797  0.40229992  0.71762267  1  0  -0.104356  0  3.752841  0  0  -0.084922  0  3.989372  0  0  -0.095627  0  4.012595  0  0  -0.025562  -0.077994  0  3.973891  0
C  C81  1  0.93465115  0.59769934  0.28237689  1  0  -0.104274  0  3.752799  0  0  -0.084837  0  3.989376  0  0  -0.095524  0  4.012596  0  0  -0.025511  -0.077897  0  3.973891  0
C  C82  1  0.06005142  0.28354122  0.69239358  1  0  -0.037159  0  3.742801  0  0  -0.060837  0  3.99399  0  0  -0.057263  0  4.01333  0  0  -0.07714  -0.06295  0  3.981018  0
C  C83  1  0.93994780  0.71646006  0.30760598  1  0  -0.03727  0  3.74279  0  0  -0.060932  0  3.993976  0  0  -0.057365  0  4.013321  0  0  -0.077177  -0.063047  0  3.981001  0
C  C84  1  0.11512705  0.24207169  0.58785122  1  0  -0.189142  0  3.746991  0  0  -0.210897  0  4.00431  0  0  -0.217837  0  4.023306  0  0  -0.100634  -0.206482  0  3.99148  0
C  C85  1  0.88487162  0.75792837  0.41214922  1  0  -0.189117  0  3.746987  0  0  -0.21087  0  4.004312  0  0  -0.217816  0  4.023305  0  0  -0.100621  -0.206459  0  3.991481  0
C  C86  1  0.00867177  0.44565741  0.83050715  1  0  0.726737  0  3.867184  0  0  0.678111  0  4.162841  0  0  0.714427  0  4.150241  0  0  0.237102  0.653454  0  4.170708  0
C  C87  1  0.99133078  0.55435239  0.16949069  1  0  0.726817  0  3.867172  0  0  0.678081  0  4.16301  0  0  0.71439  0  4.150422  0  0  0.237164  0.653417  0  4.170883  0
N  N88  1  0.24519620  0.22268861  0.08562242  1  0  -0.430289  0  3.239041  0  0  -0.380872  0  3.509657  0  0  -0.396069  0  3.527358  0  0  -0.378947  -0.370264  0  3.497419  0
N  N89  1  0.75480290  0.77731044  0.91437803  1  0  -0.430283  0  3.239102  0  0  -0.380842  0  3.509733  0  0  -0.396041  0  3.527436  0  0  -0.378927  -0.370234  0  3.497488  0
N  N90  1  0.15327902  0.04733820  0.24383930  1  0  -0.43453  0  3.244367  0  0  -0.384948  0  3.513198  0  0  -0.399505  0  3.530387  0  0  -0.38199  -0.374856  0  3.50096  0
N  N91  1  0.84671926  0.95266309  0.75616026  1  0  -0.434505  0  3.244548  0  0  -0.384912  0  3.513364  0  0  -0.39947  0  3.530559  0  0  -0.38201  -0.374819  0  3.501118  0
O  O92  1  0.84657889  0.23659824  0.27577702  1  0  -0.713339  0  1.963262  0  0  -0.668616  0  2.20705  0  0  -0.693018  0  2.196401  0  0  -0.396325  -0.651432  0  2.213549  0
O  O93  1  0.15342213  0.76340102  0.72422257  1  0  -0.713353  0  1.963279  0  0  -0.668627  0  2.20706  0  0  -0.693026  0  2.196411  0  0  -0.396346  -0.651447  0  2.213559  0
O  O94  1  0.73566958  0.38712889  0.11783530  1  0  -0.680648  0  1.93846  0  0  -0.633189  0  2.172436  0  0  -0.65739  0  2.163431  0  0  -0.376529  -0.616016  0  2.177907  0
O  O95  1  0.26433199  0.61287158  0.88216341  1  0  -0.68063  0  1.9385  0  0  -0.633172  0  2.172474  0  0  -0.657371  0  2.163471  0  0  -0.376528  -0.616004  0  2.177945  0
O  O96  1  0.22768306  0.27549855  0.40446581  1  0  -0.299405  0  2.298811  0  0  -0.23652  0  2.525374  0  0  -0.253162  0  2.526016  0  0  -0.156591  -0.224801  0  2.524377  0
O  O97  1  0.77231752  0.72450151  0.59553464  1  0  -0.299436  0  2.298782  0  0  -0.236506  0  2.525305  0  0  -0.253192  0  2.525971  0  0  -0.156605  -0.224789  0  2.524305  0
O  O98  1  0.01126220  0.55683857  0.84680900  1  0  -0.75667  0  2.112239  0  0  -0.707212  0  2.392258  0  0  -0.731404  0  2.37768  0  0  -0.416502  -0.690175  0  2.401781  0
O  O99  1  0.98873753  0.44315440  0.15319145  1  0  -0.756785  0  2.111908  0  0  -0.707282  0  2.391956  0  0  -0.73149  0  2.377389  0  0  -0.416593  -0.690241  0  2.401484  0
O  O100  1  0.96090879  0.36917842  0.90607272  1  0  -0.744927  0  2.012515  0  0  -0.690997  0  2.27307  0  0  -0.71522  0  2.259348  0  0  -0.415011  -0.673778  0  2.281897  0
O  O101  1  0.03908821  0.63081778  0.09393121  1  0  -0.744921  0  2.012865  0  0  -0.690945  0  2.273482  0  0  -0.715145  0  2.259734  0  0  -0.415001  -0.673733  0  2.28232  0
O  O102  1  0.87508567  0.92821804  0.00942225  1  0  -0.657766  0  2.088405  0  0  -0.616476  0  2.338683  0  0  -0.639421  0  2.332243  0  0  -0.365945  -0.600234  0  2.342816  0
O  O103  1  0.12492180  0.07179659  0.99058088  1  0  -0.657985  0  2.08704  0  0  -0.616644  0  2.337342  0  0  -0.639607  0  2.33091  0  0  -0.36592  -0.600379  0  2.341458  0
O  O104  1  0.86991113  0.10610810  0.08290818  1  0  -0.661115  0  2.057378  0  0  -0.612078  0  2.297516  0  0  -0.635304  0  2.289168  0  0  -0.374499  -0.595747  0  2.302908  0
O  O105  1  0.13007961  0.89390633  0.91710007  1  0  -0.66072  0  2.058667  0  0  -0.611625  0  2.298862  0  0  -0.634834  0  2.290519  0  0  -0.37427  -0.595305  0  2.304251  0
