# generated using pymatgen
data_NiH7C7NO6
_symmetry_space_group_name_H-M   'P 1'
_cell_length_a   7.30752076
_cell_length_b   8.05582889
_cell_length_c   9.00828351
_cell_angle_alpha   97.98678042
_cell_angle_beta   100.79016300
_cell_angle_gamma   116.01572629
_symmetry_Int_Tables_number   1
_chemical_formula_structural   NiH7C7NO6
_chemical_formula_sum   'Ni2 H14 C14 N2 O12'
_cell_volume   453.22621780
_cell_formula_units_Z   2
loop_
 _symmetry_equiv_pos_site_id
 _symmetry_equiv_pos_as_xyz
  1  'x, y, z'
loop_
 _atom_site_type_symbol
 _atom_site_label
 _atom_site_symmetry_multiplicity
 _atom_site_fract_x
 _atom_site_fract_y
 _atom_site_fract_z
 _atom_site_occupancy
 _atom_site_hle17_ddec_charge
 _atom_site_hle17_ddec_spin_density
 _atom_site_hle17_ddec_sum_bond_order
 _atom_site_hle17_magmom
 _atom_site_hse06_10hf_ddec_charge
 _atom_site_hse06_10hf_ddec_spin_density
 _atom_site_hse06_10hf_ddec_sum_bond_order
 _atom_site_hse06_10hf_magmom
 _atom_site_hse06_ddec_charge
 _atom_site_hse06_ddec_spin_density
 _atom_site_hse06_ddec_sum_bond_order
 _atom_site_hse06_magmom
 _atom_site_pbe_cm5_charge
 _atom_site_pbe_ddec_charge
 _atom_site_pbe_ddec_spin_density
 _atom_site_pbe_ddec_sum_bond_order
 _atom_site_pbe_magmom
Ni  Ni0  1  0.60976827  0.82118254  0.67835527  1  0.900677  -1.75121  1.949348  -1.506  0.91163  -1.816603  2.340428  -1.628  1.002583  -1.868775  2.261884  -1.715  0.638659  0.844147  -1.769972  2.40024  -1.554
Ni  Ni1  1  0.39022946  0.17881667  0.32164369  1  0.900644  -1.751208  1.949283  -1.506  0.911611  -1.816606  2.340351  -1.628  1.002568  -1.868778  2.261796  -1.715  0.638666  0.844127  -1.76997  2.400156  -1.554
H  H2  1  0.23930835  0.70828580  0.53418481  1  0.419632  0.000742  0.890754  0.001  0.384896  0.000233  0.962558  0.0  0.397514  0.000363  0.944932  0.0  0.287013  0.376192  8.3e-05  0.974601  0.0
H  H3  1  0.76069065  0.29171059  0.46581627  1  0.419616  0.000742  0.890773  0.001  0.384879  0.000233  0.962579  0.0  0.397498  0.000363  0.944953  0.0  0.287012  0.376177  8.3e-05  0.974621  0.0
H  H4  1  0.33104015  0.60142606  0.41957083  1  0.424408  -0.000235  0.883522  0.001  0.392993  -0.000758  0.949706  0.0  0.405716  -0.000382  0.931734  0.0  0.292273  0.384  -0.001146  0.962291  -0.001
H  H5  1  0.66896251  0.39857456  0.58042904  1  0.4244  -0.000236  0.883537  0.001  0.392985  -0.000758  0.949722  0.0  0.405708  -0.000382  0.931748  0.0  0.292268  0.383992  -0.001146  0.962307  -0.001
H  H6  1  0.52954250  0.08759735  0.79681745  1  0.42971  0.000303  0.806253  0.0  0.417546  -0.000392  0.854869  0.0  0.426762  -0.000191  0.845777  0.0  0.32923  0.410575  -0.000589  0.861836  -0.001
H  H7  1  0.47045260  0.91240474  0.20318141  1  0.429633  0.000303  0.806393  0.0  0.41749  -0.000392  0.854955  0.0  0.426702  -0.000191  0.845877  0.0  0.32925  0.410522  -0.000589  0.861919  -0.001
H  H8  1  0.62700867  0.15269738  0.65563819  1  0.429622  0.000237  0.872958  0.001  0.400827  -0.000231  0.933944  0.0  0.412708  -5.3e-05  0.91712  0.0  0.2916  0.392514  -0.000411  0.945622  0.0
H  H9  1  0.37299323  0.84730181  0.34436142  1  0.429601  0.000236  0.872995  0.001  0.400809  -0.000231  0.933974  0.0  0.412691  -5.3e-05  0.917148  0.0  0.291594  0.392483  -0.000411  0.94567  0.0
H  H10  1  0.66252458  0.49061418  0.01889200  1  0.107862  -2.8e-05  0.943113  0.0  0.116931  -9e-05  1.00566  0.0  0.120944  -4.5e-05  1.002446  0.0  0.10774  0.114167  -0.000121  1.007826  0.0
H  H11  1  0.33748054  0.50939363  0.98111125  1  0.107979  -2.9e-05  0.94307  0.0  0.11694  -9e-05  1.005724  0.0  0.120955  -4.5e-05  1.002509  0.0  0.107731  0.114176  -0.000121  1.007887  0.0
H  H12  1  0.01067329  0.17308510  0.74801481  1  0.106489  -0.000991  0.935992  -0.002  0.113352  -0.000876  0.997481  -0.002  0.115821  -0.000609  0.996146  -0.001  0.129959  0.11074  -0.001152  0.99988  -0.002
H  H13  1  0.98931938  0.82690987  0.25198402  1  0.106505  -0.000991  0.936032  -0.002  0.113371  -0.000876  0.9975  -0.002  0.11584  -0.000609  0.996166  -0.001  0.129945  0.110762  -0.001152  0.999903  -0.002
H  H14  1  0.68751063  0.69114857  0.37499072  1  0.109841  -0.000861  0.93651  -0.002  0.115684  -0.000752  0.999587  -0.002  0.119186  -0.000495  0.996999  -0.001  0.128235  0.112291  -0.00102  1.002904  -0.002
H  H15  1  0.31248141  0.30884781  0.62500705  1  0.109884  -0.000865  0.936419  -0.002  0.115711  -0.000752  0.999523  -0.002  0.119206  -0.000495  0.996932  -0.001  0.128258  0.112319  -0.001019  1.002839  -0.002
C  C16  1  0.80508692  0.67216391  0.80820047  1  0.644193  0.016611  3.862624  0.014  0.594479  0.005544  4.175805  0.005  0.631067  0.005403  4.171117  0.005  0.210058  0.568683  0.005688  4.177272  0.006
C  C17  1  0.19491577  0.32783676  0.19180163  1  0.644314  0.016612  3.862522  0.014  0.594587  0.005544  4.175732  0.005  0.631164  0.005403  4.17105  0.005  0.210025  0.568793  0.005688  4.177201  0.006
C  C18  1  0.90916842  0.58154216  0.90180471  1  -0.034052  -0.006023  3.709506  -0.007  -0.020803  -0.003766  3.947019  -0.004  -0.022434  -0.002192  3.963635  -0.002  0.00074  -0.02006  -0.005799  3.936121  -0.006
C  C19  1  0.09084224  0.41846559  0.09819829  1  -0.03409  -0.006052  3.709423  -0.007  -0.020865  -0.003765  3.946944  -0.004  -0.022482  -0.002192  3.963562  -0.002  0.000717  -0.020121  -0.005799  3.936043  -0.006
C  C20  1  0.81149606  0.49556506  0.00975717  1  -0.091515  -0.002957  3.708693  -0.003  -0.127031  -0.002234  3.967083  -0.002  -0.127169  -0.001323  3.983573  -0.001  -0.081958  -0.12647  -0.003325  3.955617  -0.003
C  C21  1  0.18851753  0.50444556  0.99024770  1  -0.091602  -0.002933  3.708724  -0.003  -0.12701  -0.002235  3.967102  -0.002  -0.12716  -0.001324  3.983594  -0.001  -0.081897  -0.126449  -0.003327  3.955635  -0.003
C  C22  1  0.10062064  0.58615150  0.89150107  1  -0.048543  -0.006438  3.710211  -0.008  -0.040694  -0.004439  3.950117  -0.005  -0.045673  -0.002957  3.968716  -0.004  -0.006508  -0.037243  -0.00611  3.937572  -0.007
C  C23  1  0.89938385  0.41385774  0.10850224  1  -0.048551  -0.006414  3.709998  -0.008  -0.040682  -0.004439  3.949918  -0.005  -0.045673  -0.002957  3.968524  -0.004  -0.006522  -0.037231  -0.00611  3.937376  -0.007
C  C24  1  0.21331926  0.67317292  0.77646928  1  0.631373  0.006223  3.90778  0.005  0.59175  0.001472  4.201658  0.001  0.627836  0.001546  4.194477  0.001  0.205877  0.5666  0.001538  4.205593  0.001
C  C25  1  0.78668278  0.32682915  0.22353177  1  0.631317  0.006204  3.907856  0.005  0.591687  0.001472  4.201745  0.001  0.627772  0.001546  4.194565  0.001  0.205834  0.566529  0.001538  4.205693  0.001
C  C26  1  0.00678377  0.09668835  0.63679084  1  0.099497  0.006013  3.620524  0.002  0.075253  0.00247  3.868674  0.0  0.081824  0.002133  3.880556  0.001  0.064489  0.06849  0.003617  3.865731  0.0
C  C27  1  0.99320814  0.90330520  0.36320772  1  0.099321  0.006053  3.620634  0.002  0.075109  0.002468  3.868737  0.0  0.081681  0.002134  3.880622  0.001  0.064437  0.068344  0.003615  3.865809  0.0
C  C28  1  0.82689280  0.83005348  0.42995314  1  0.090743  0.005512  3.623198  0.002  0.065563  0.002122  3.876539  0.0  0.071764  0.001843  3.887492  0.001  0.064185  0.059071  0.003273  3.874321  0.0
C  C29  1  0.17309987  0.16994150  0.57004569  1  0.090642  0.005578  3.623125  0.002  0.065473  0.002122  3.876517  0.0  0.071686  0.001845  3.887462  0.001  0.064152  0.058987  0.003273  3.874291  0.0
N  N30  1  0.83328221  0.92743963  0.56644602  1  -0.244168  -0.039381  3.313825  -0.065  -0.205516  -0.028472  3.601341  -0.048  -0.225372  -0.02312  3.615321  -0.041  -0.317273  -0.194148  -0.031735  3.595758  -0.051
N  N31  1  0.16671185  0.07255534  0.43355303  1  -0.244067  -0.039403  3.313837  -0.065  -0.205439  -0.028472  3.601347  -0.048  -0.225298  -0.023121  3.615324  -0.041  -0.317242  -0.194077  -0.031735  3.595771  -0.051
O  O32  1  0.65628516  0.57198799  0.67985358  1  -0.616805  -0.046101  2.030257  -0.078  -0.586955  -0.030735  2.289609  -0.053  -0.627313  -0.02166  2.28165  -0.04  -0.304865  -0.555266  -0.039845  2.293045  -0.065
O  O33  1  0.34371378  0.42800825  0.32014081  1  -0.61683  -0.046095  2.030421  -0.078  -0.586941  -0.030734  2.289737  -0.053  -0.627298  -0.021659  2.281783  -0.04  -0.304804  -0.555248  -0.039843  2.293164  -0.065
O  O34  1  0.85031373  0.84262182  0.86267635  1  -0.513031  -0.06611  1.966842  -0.109  -0.49946  -0.039191  2.219057  -0.067  -0.538535  -0.027761  2.214144  -0.051  -0.280064  -0.468725  -0.049995  2.220285  -0.082
O  O35  1  0.14967985  0.15737744  0.13732309  1  -0.513116  -0.066113  1.96672  -0.109  -0.499557  -0.039191  2.218953  -0.067  -0.538633  -0.027761  2.214046  -0.051  -0.280115  -0.46882  -0.049996  2.220177  -0.082
O  O36  1  0.41061322  0.71976496  0.81014498  1  -0.614161  -0.047309  2.086944  -0.081  -0.586445  -0.029545  2.350484  -0.052  -0.624391  -0.02197  2.340309  -0.041  -0.32434  -0.558106  -0.03648  2.356217  -0.061
O  O37  1  0.58939160  0.28023708  0.18985538  1  -0.614091  -0.047302  2.087006  -0.081  -0.586379  -0.029544  2.350545  -0.052  -0.624324  -0.021969  2.34037  -0.041  -0.324292  -0.558035  -0.036478  2.356277  -0.061
O  O38  1  0.10872913  0.69088360  0.65596874  1  -0.604042  0.003399  1.963276  0.002  -0.557245  0.002016  2.179058  0.001  -0.58263  0.002251  2.171403  0.001  -0.315694  -0.538879  0.001777  2.183733  0.001
O  O39  1  0.89127060  0.30911414  0.34402927  1  -0.604046  0.003409  1.963341  0.002  -0.557264  0.002015  2.179145  0.001  -0.582648  0.002252  2.171491  0.001  -0.315699  -0.538896  0.001777  2.183825  0.001
O  O40  1  0.35610880  0.72939921  0.47900213  1  -0.835389  -0.036244  2.014996  -0.062  -0.791965  -0.028124  2.225824  -0.047  -0.825495  -0.021198  2.189448  -0.038  -0.558305  -0.766583  -0.03433  2.250694  -0.055
O  O41  1  0.64388893  0.27060000  0.52099683  1  -0.835388  -0.036245  2.015031  -0.062  -0.791957  -0.028124  2.225853  -0.047  -0.825485  -0.021199  2.189475  -0.038  -0.558316  -0.76658  -0.03433  2.250722  -0.055
O  O42  1  0.63234381  0.08649552  0.74259795  1  -0.792256  -0.035202  1.94921  -0.06  -0.764714  -0.02765  2.155368  -0.047  -0.794633  -0.020809  2.125341  -0.038  -0.561015  -0.741918  -0.033949  2.176619  -0.054
O  O43  1  0.36765101  0.91350087  0.25740137  1  -0.79216  -0.035201  1.94935  -0.06  -0.764634  -0.02765  2.155517  -0.047  -0.794552  -0.020809  2.125485  -0.038  -0.561037  -0.741826  -0.033948  2.176786  -0.054
