# generated using pymatgen
data_Fe3H40C64(NO)8
_symmetry_space_group_name_H-M   'P 1'
_cell_length_a   14.56504216
_cell_length_b   14.94998361
_cell_length_c   15.25699608
_cell_angle_alpha   107.53319825
_cell_angle_beta   110.75242380
_cell_angle_gamma   110.16826601
_symmetry_Int_Tables_number   1
_chemical_formula_structural   Fe3H40C64(NO)8
_chemical_formula_sum   'Fe3 H40 C64 N8 O8'
_cell_volume   2554.42986961
_cell_formula_units_Z   1
loop_
 _symmetry_equiv_pos_site_id
 _symmetry_equiv_pos_as_xyz
  1  'x, y, z'
loop_
 _atom_site_type_symbol
 _atom_site_label
 _atom_site_symmetry_multiplicity
 _atom_site_fract_x
 _atom_site_fract_y
 _atom_site_fract_z
 _atom_site_occupancy
 _atom_site_pbe_bader_charge
 _atom_site_pbe_bader_spin_density
 _atom_site_pbe_cm5_charge
 _atom_site_pbe_ddec_charge
 _atom_site_pbe_ddec_spin_density
 _atom_site_pbe_ddec_sum_bond_order
 _atom_site_pbe_magmom
Fe  Fe0  1  0.99999247  0.49994072  0.49995322  1  1.233358  0.590013  0.791611  0.459139  0.652672  3.451265  0.586
Fe  Fe1  1  0.99541455  0.04611395  0.07230019  1  1.158835  0.646226  0.805678  0.690886  0.706613  3.907611  0.626
Fe  Fe2  1  0.00449701  0.95375075  0.92767377  1  1.160063  0.655009  0.80496  0.690602  0.716016  3.906073  0.635
H  H3  1  0.34581304  0.28355245  0.30690029  1  0.091166  -0.000292  0.109489  0.111963  -0.000275  0.99714  0.0
H  H4  1  0.63681675  0.92799961  0.94161265  1  0.112129  0.000112  0.109153  0.112468  6e-05  0.993671  0.0
H  H5  1  0.36304208  0.07187621  0.05823110  1  0.109798  0.000112  0.108987  0.112204  5.9e-05  0.993795  0.0
H  H6  1  0.65419968  0.71627673  0.69311273  1  0.089738  -0.000288  0.109368  0.111737  -0.000272  0.997235  0.0
H  H7  1  0.99018467  0.94435444  0.32090133  1  0.070844  -4.3e-05  0.10278  0.104005  -6e-05  1.001012  0.0
H  H8  1  0.00961165  0.05586855  0.67964011  1  0.069556  -4.2e-05  0.102764  0.103462  -6.1e-05  1.001837  0.0
H  H9  1  0.05730797  0.31840448  0.93947174  1  0.084034  8.2e-05  0.104445  0.107823  5.2e-05  0.998982  0.0
H  H10  1  0.94295121  0.68233017  0.06091816  1  0.090087  8.5e-05  0.104565  0.107729  5.4e-05  0.999601  0.0
H  H11  1  0.16100752  0.28133925  0.25911906  1  0.083749  -0.007896  0.104832  0.105353  -0.004747  1.007271  -0.006
H  H12  1  0.85819834  0.16034762  0.13925223  1  0.095503  -5.1e-05  0.110045  0.10757  -0.000199  0.981826  0.0
H  H13  1  0.14191859  0.83953397  0.86072353  1  0.098601  -4.1e-05  0.110007  0.107738  -0.000198  0.981685  0.0
H  H14  1  0.83912742  0.71883917  0.74071067  1  0.084927  -0.007913  0.104933  0.105391  -0.004756  1.007784  -0.006
H  H15  1  0.00523091  0.15179211  0.30192971  1  0.082883  -0.000142  0.109042  0.10499  6.2e-05  0.98146  0.001
H  H16  1  0.99513338  0.84827887  0.69803713  1  0.080737  -0.000126  0.109269  0.10497  7.3e-05  0.980755  0.001
H  H17  1  0.02462056  0.33480870  0.15828830  1  0.090135  -0.00463  0.107871  0.102301  -0.003695  0.9747  -0.002
H  H18  1  0.97528222  0.66518353  0.84156727  1  0.092013  -0.004639  0.107916  0.102272  -0.003713  0.974817  -0.002
H  H19  1  0.25864753  0.43551054  0.47909362  1  0.090281  -0.008717  0.095944  0.092571  -0.013104  1.055898  0.005
H  H20  1  0.81312285  0.30383643  0.26106294  1  0.117457  -0.001146  0.116464  0.10053  -0.000809  1.028825  -0.001
H  H21  1  0.18688984  0.69589945  0.73893379  1  0.117055  -0.001145  0.116665  0.100853  -0.000809  1.029203  -0.001
H  H22  1  0.74154437  0.56444407  0.52076766  1  0.092751  -0.008624  0.095982  0.092436  -0.013129  1.055821  0.005
H  H23  1  0.05645936  0.31510936  0.47596611  1  0.098329  -0.012425  0.113557  0.082039  -0.009099  1.013918  -0.009
H  H24  1  0.94385371  0.68494494  0.52401286  1  0.094889  -0.012472  0.113547  0.081822  -0.009126  1.014283  -0.009
H  H25  1  0.01695827  0.48706632  0.30319154  1  0.133146  -0.000986  0.115668  0.096836  -0.000829  1.046849  -0.001
H  H26  1  0.98283456  0.51280282  0.69666821  1  0.132859  -0.000981  0.115674  0.096952  -0.000826  1.046723  -0.001
H  H27  1  0.55798668  0.39670421  0.41303403  1  0.07367  -0.000479  0.101226  0.102111  0.00016  1.00566  0.0
H  H28  1  0.42443996  0.81675244  0.83442244  1  0.045996  -4e-05  0.10253  0.104658  1.4e-05  0.995426  0.0
H  H29  1  0.57541317  0.18306873  0.16531273  1  0.046292  -4e-05  0.10276  0.104949  1.4e-05  0.99531  0.0
H  H30  1  0.44204161  0.60306850  0.58689416  1  0.071163  -0.000481  0.101066  0.101826  0.00016  1.005203  0.0
H  H31  1  0.01760423  0.85148975  0.43153027  1  0.050304  -4e-05  0.099146  0.101571  2e-05  0.998783  0.0
H  H32  1  0.98216566  0.14846994  0.56873976  1  0.050375  -4e-05  0.099288  0.101698  2e-05  0.998581  0.0
H  H33  1  0.02024938  0.40731549  0.82612808  1  0.074726  -8e-06  0.099777  0.10209  1.8e-05  0.99557  0.0
H  H34  1  0.97994968  0.59315621  0.17399053  1  0.074164  -7e-06  0.099757  0.101894  1.8e-05  0.995126  0.0
H  H35  1  0.61545903  0.43010521  0.21349741  1  0.09389  3.4e-05  0.110212  0.131377  -7.4e-05  0.999508  0.0
H  H36  1  0.38449282  0.56962290  0.78627261  1  0.095412  3.4e-05  0.110199  0.131888  -7.4e-05  0.999022  0.0
H  H37  1  0.61155592  0.20149564  0.41547517  1  0.118331  -3.9e-05  0.107655  0.127729  3.4e-05  1.005956  0.0
H  H38  1  0.38840498  0.79830567  0.58434224  1  0.117978  -3.9e-05  0.107738  0.127777  3.4e-05  1.005872  0.0
H  H39  1  0.22678684  0.80766092  0.43496952  1  0.092917  -0.000159  0.10938  0.130742  -0.000114  1.001691  0.0
H  H40  1  0.22037379  0.40827653  0.78185238  1  0.111332  -9.8e-05  0.110848  0.133756  -8.8e-05  1.000461  0.0
H  H41  1  0.77317277  0.19229313  0.56500686  1  0.093209  -0.000159  0.109469  0.130831  -0.000114  1.001941  0.0
H  H42  1  0.77956437  0.59158293  0.21803964  1  0.109835  -9.8e-05  0.110914  0.133855  -8.8e-05  1.000663  0.0
C  C43  1  0.76425854  0.44117748  0.33961761  1  0.362713  -0.003869  0.085084  0.158959  -0.003491  4.072155  -0.002
C  C44  1  0.23570612  0.55862588  0.66021671  1  0.366495  -0.003876  0.085181  0.159724  -0.003501  4.07164  -0.002
C  C45  1  0.76271658  0.33312756  0.43354140  1  0.454962  -0.0081  0.087022  0.169072  -0.00922  4.059152  -0.005
C  C46  1  0.23724324  0.66668253  0.56629161  1  0.453017  -0.008126  0.086755  0.169177  -0.009255  4.059164  -0.005
C  C47  1  0.10660716  0.67489099  0.44582873  1  0.361288  0.000346  0.087517  0.168484  -4.3e-05  4.055457  0.0
C  C48  1  0.10236421  0.42752251  0.65681604  1  0.386361  0.003567  0.088371  0.160022  0.001595  4.058759  0.003
C  C49  1  0.89335166  0.32505179  0.55413066  1  0.361636  0.000376  0.087726  0.168813  -2.3e-05  4.055642  0.0
C  C50  1  0.89759109  0.57239234  0.34311752  1  0.387962  0.003539  0.088231  0.159779  0.00158  4.058893  0.003
C  C51  1  0.70716563  0.46860346  0.26269701  1  -0.069178  0.011242  -0.101313  -0.177194  0.005389  3.988318  0.006
C  C52  1  0.29278756  0.53117309  0.73711658  1  -0.071214  0.011261  -0.101327  -0.178186  0.0054  3.987751  0.006
C  C53  1  0.70344631  0.24930886  0.45386588  1  -0.064695  0.003181  -0.105126  -0.17927  0.001421  3.994404  0.002
C  C54  1  0.29651547  0.75052631  0.54598763  1  -0.060913  0.003159  -0.105245  -0.17961  0.00141  3.994345  0.002
C  C55  1  0.21555273  0.75543415  0.47119186  1  -0.083916  -0.004986  -0.104203  -0.181817  -0.005027  3.994926  -0.003
C  C56  1  0.21017461  0.44989340  0.73499599  1  -0.043617  0.001116  -0.10067  -0.176058  -0.000181  3.982604  0.0
C  C57  1  0.78441100  0.24448970  0.52875444  1  -0.08166  -0.00499  -0.104689  -0.182569  -0.005033  3.99609  -0.003
C  C58  1  0.78977198  0.54996293  0.26489240  1  -0.040864  0.001128  -0.100729  -0.1764  -0.000171  3.983162  0.0
C  C59  1  0.70748203  0.36074449  0.36001567  1  -0.045819  -0.004622  -0.00518  -0.093272  -0.004879  4.010009  -0.002
C  C60  1  0.29247084  0.63904446  0.63980115  1  -0.04879  -0.004616  -0.005346  -0.094099  -0.004876  4.010245  -0.002
C  C61  1  0.00257654  0.65340367  0.36967881  1  -0.016101  -0.005185  -0.002529  -0.083976  -0.005304  3.996209  -0.003
C  C62  1  0.99737771  0.34660304  0.63033845  1  -0.018024  -0.005188  -0.002579  -0.084139  -0.005306  3.996814  -0.003
C  C63  1  0.58052254  0.29694392  0.29630047  1  -0.000386  -0.000191  0.001807  0.096816  -7e-05  4.014613  0.0
C  C64  1  0.41942420  0.70286081  0.70353856  1  -0.002269  -0.000181  0.001561  0.096893  -5.9e-05  4.014811  0.0
C  C65  1  0.99927360  0.71576092  0.30962750  1  0.015454  -0.000495  -0.008543  0.079541  -0.000521  4.02833  0.0
C  C66  1  0.00068981  0.28442338  0.69055474  1  -0.024181  -0.000498  -0.008501  0.079681  -0.000522  4.029537  0.0
C  C67  1  0.51520385  0.32509957  0.33542197  1  -0.053648  -0.000134  -0.088646  -0.142201  -0.0001  3.983955  0.0
C  C68  1  0.47498950  0.79449222  0.80379840  1  -0.079627  -7.6e-05  -0.088847  -0.143024  -5e-06  3.990827  0.0
C  C69  1  0.52491773  0.20535054  0.19600713  1  -0.082362  -7.4e-05  -0.089114  -0.142786  -5e-06  3.990872  0.0
C  C70  1  0.48476950  0.67469481  0.66447774  1  -0.052582  -0.000134  -0.088329  -0.141191  -0.000101  3.982951  0.0
C  C71  1  0.00378603  0.81557947  0.35100390  1  -0.022536  1e-06  -0.094588  -0.144888  -4.9e-05  4.000702  0.0
C  C72  1  0.99606488  0.18453927  0.64928552  1  -0.020187  1e-06  -0.094777  -0.145047  -4.9e-05  4.001265  0.0
C  C73  1  0.01860927  0.33055395  0.79417109  1  -0.053639  -3.9e-05  -0.094338  -0.142723  -8.6e-05  4.002141  0.0
C  C74  1  0.98151311  0.66986757  0.20605308  1  -0.090184  -3.9e-05  -0.094632  -0.142502  -8.4e-05  4.002206  0.0
C  C75  1  0.39672404  0.26207808  0.27646085  1  -0.076674  -7.1e-05  -0.075555  -0.074492  -0.000231  3.958242  0.0
C  C76  1  0.59319554  0.85703439  0.86352267  1  0.013778  -2.5e-05  -0.078003  -0.077884  -0.000125  3.968991  0.0
C  C77  1  0.40670800  0.14283974  0.13633247  1  0.014669  -3.2e-05  -0.077949  -0.077891  -0.000131  3.969115  0.0
C  C78  1  0.60324426  0.73775061  0.72348376  1  -0.069872  -6.1e-05  -0.075601  -0.075132  -0.000224  3.95805  0.0
C  C79  1  0.98730325  0.86701730  0.28893537  1  -0.080465  -0.000551  -0.086794  -0.094688  -0.000603  3.995449  0.0
C  C80  1  0.01255978  0.13325310  0.71149586  1  -0.076161  -0.000548  -0.086478  -0.09328  -0.000601  3.995008  0.0
C  C81  1  0.03848807  0.28118782  0.85728165  1  -0.062852  -0.000309  -0.084533  -0.091075  -0.000339  3.993948  0.0
C  C82  1  0.96166614  0.71938059  0.14308566  1  -0.068815  -0.000303  -0.084704  -0.091269  -0.000334  3.992771  0.0
C  C83  1  0.34196458  0.17038826  0.17668085  1  0.017195  -0.001054  -0.010284  -0.026153  -0.001163  3.969025  -0.001
C  C84  1  0.65796637  0.82947009  0.82322890  1  0.011197  -0.001055  -0.009982  -0.025448  -0.001165  3.968098  -0.001
C  C85  1  0.96264031  0.81743839  0.18342215  1  0.02724  0.001189  -0.01513  -0.022784  0.000484  3.970108  0.001
C  C86  1  0.03735038  0.18303831  0.81702673  1  0.025995  0.001147  -0.015742  -0.023891  0.000461  3.972757  0.001
C  C87  1  0.21578999  0.10275698  0.11199954  1  1.56673  0.000865  0.234914  0.570337  -0.000108  4.116671  0.001
C  C88  1  0.78414161  0.89709457  0.88789576  1  1.575841  0.000872  0.235547  0.571522  -0.0001  4.116485  0.001
C  C89  1  0.93240198  0.86197139  0.10814073  1  1.563953  0.000942  0.209062  0.557127  -5.7e-05  4.181483  0.002
C  C90  1  0.06752159  0.13853758  0.89234684  1  1.561958  0.000953  0.209405  0.556763  -5.2e-05  4.181254  0.002
C  C91  1  0.11681236  0.30668757  0.29722981  1  -0.019878  -0.000571  -0.084024  -0.069863  -0.01565  3.769771  0.017
C  C92  1  0.92395497  0.23318989  0.21603106  1  -0.019515  -0.008783  -0.078544  -0.074856  -0.007816  3.754825  -0.005
C  C93  1  0.07614425  0.76673474  0.78391764  1  -0.015564  -0.008714  -0.07847  -0.075297  -0.00775  3.754792  -0.005
C  C94  1  0.88330245  0.69341056  0.70262616  1  -0.025988  -0.000603  -0.083908  -0.069673  -0.015576  3.770144  0.017
C  C95  1  0.01474833  0.22765110  0.30190985  1  -0.030983  -0.032281  -0.06767  -0.067317  -0.034304  3.665987  -0.025
C  C96  1  0.98547821  0.77238234  0.69803811  1  -0.026958  -0.032143  -0.06843  -0.067921  -0.034148  3.66699  -0.025
C  C97  1  0.02419711  0.32879766  0.22780677  1  -0.001433  -0.064048  -0.066833  -0.047226  -0.065997  3.692449  -0.048
C  C98  1  0.97578502  0.67118102  0.77206847  1  -0.005726  -0.064105  -0.066872  -0.046974  -0.066171  3.692332  -0.048
C  C99  1  0.17189621  0.37560304  0.41371992  1  -0.105784  -0.681902  -0.062904  -0.091401  -0.694733  3.425489  -0.381
C  C100  1  0.89475811  0.31372893  0.27279825  1  0.149459  0.000701  0.003335  -0.00111  1.6e-05  3.674696  0.001
C  C101  1  0.10527113  0.68610607  0.72715949  1  0.149827  0.000656  0.003321  -0.001225  -2.2e-05  3.674466  0.001
C  C102  1  0.82825488  0.62449793  0.58613712  1  -0.10697  -0.682632  -0.063362  -0.091623  -0.695474  3.425182  -0.382
C  C103  1  0.06168396  0.32735115  0.41048252  1  0.216996  0.002375  0.003823  0.060502  -0.008838  3.760974  0.022
C  C104  1  0.93852533  0.67268888  0.58945628  1  0.214907  0.002368  0.003663  0.060052  -0.008832  3.76114  0.022
C  C105  1  0.99861637  0.40670488  0.29301965  1  0.15721  -0.005602  -0.000368  -0.01002  -0.007671  3.711389  0.0
C  C106  1  0.00130627  0.59319693  0.70687331  1  0.155227  -0.005605  -0.00058  -0.010623  -0.007676  3.711234  0.0
N  N107  1  0.88132950  0.50482650  0.38845929  1  -1.143923  8.9e-05  -0.361073  -0.305436  -0.003053  3.464782  -0.002
N  N108  1  0.11863593  0.49504104  0.61143201  1  -1.142831  7.2e-05  -0.361351  -0.305926  -0.003066  3.4649  -0.002
N  N109  1  0.87919729  0.37936696  0.49550785  1  -1.146692  -0.007613  -0.356709  -0.300628  -0.008543  3.453418  -0.006
N  N110  1  0.12076492  0.62049798  0.50437309  1  -1.145466  -0.007634  -0.356707  -0.300762  -0.008556  3.453555  -0.006
N  N111  1  0.99705784  0.14360903  0.05660559  1  -0.384761  -0.073306  -0.421501  -0.276521  -0.086573  2.059765  -0.063
N  N112  1  0.00322949  0.85643093  0.94359751  1  -0.386493  -0.072816  -0.422007  -0.277883  -0.086545  2.05642  -0.063
N  N113  1  0.99725867  0.38595518  0.38209035  1  -0.860546  -0.049868  -0.310065  -0.119481  -0.051702  3.303559  -0.045
N  N114  1  0.00279828  0.61396397  0.61784277  1  -0.856135  -0.049976  -0.309802  -0.11844  -0.051776  3.302813  -0.045
O  O115  1  0.15993240  0.11309828  0.15935298  1  -1.075185  -0.001664  -0.279196  -0.445463  -0.003695  2.386113  -0.003
O  O116  1  0.82838641  0.96241293  0.98649665  1  -1.089815  0.005925  -0.275684  -0.441858  0.001378  2.404287  0.003
O  O117  1  0.17156293  0.03764462  0.01334527  1  -1.082554  0.005813  -0.27534  -0.441204  0.00129  2.40383  0.003
O  O118  1  0.83998526  0.88650853  0.84058965  1  -1.076238  -0.001489  -0.279547  -0.445912  -0.0036  2.387796  -0.003
O  O119  1  0.98375243  0.96871001  0.15375936  1  -1.084337  0.015784  -0.328728  -0.494973  0.007344  2.290883  0.008
O  O120  1  0.01606260  0.03182494  0.84677101  1  -1.090383  0.016007  -0.328926  -0.495248  0.007423  2.292582  0.008
O  O121  1  0.13456185  0.20425459  0.98931590  1  -1.126314  -0.000548  -0.303454  -0.504031  -0.001997  2.128516  -0.001
O  O122  1  0.86543205  0.79629104  0.01116994  1  -1.134883  -0.000725  -0.303448  -0.504824  -0.002126  2.130192  -0.001
