# generated using pymatgen
data_CuH14C12NO4
_symmetry_space_group_name_H-M   'P 1'
_cell_length_a   7.58605885
_cell_length_b   7.97216707
_cell_length_c   11.89848571
_cell_angle_alpha   86.59748847
_cell_angle_beta   85.93955393
_cell_angle_gamma   81.96577027
_symmetry_Int_Tables_number   1
_chemical_formula_structural   CuH14C12NO4
_chemical_formula_sum   'Cu2 H28 C24 N2 O8'
_cell_volume   709.84572600
_cell_formula_units_Z   2
loop_
 _symmetry_equiv_pos_site_id
 _symmetry_equiv_pos_as_xyz
  1  'x, y, z'
loop_
 _atom_site_type_symbol
 _atom_site_label
 _atom_site_symmetry_multiplicity
 _atom_site_fract_x
 _atom_site_fract_y
 _atom_site_fract_z
 _atom_site_occupancy
 _atom_site_hle17_ddec_charge
 _atom_site_hle17_ddec_spin_density
 _atom_site_hle17_ddec_sum_bond_order
 _atom_site_hle17_magmom
 _atom_site_hse06_10hf_ddec_charge
 _atom_site_hse06_10hf_ddec_spin_density
 _atom_site_hse06_10hf_ddec_sum_bond_order
 _atom_site_hse06_10hf_magmom
 _atom_site_hse06_ddec_charge
 _atom_site_hse06_ddec_spin_density
 _atom_site_hse06_ddec_sum_bond_order
 _atom_site_hse06_magmom
 _atom_site_pbe_cm5_charge
 _atom_site_pbe_ddec_charge
 _atom_site_pbe_ddec_spin_density
 _atom_site_pbe_ddec_sum_bond_order
 _atom_site_pbe_magmom
Cu  Cu0  1  0.61608292  0.51758872  0.91604859  1  0.824275  -0.664459  1.915779  -0.479  0.812191  -0.796524  2.32782  -0.632  0.918479  -0.888406  2.241623  -0.735  0.671589  0.745188  -0.691235  2.387096  -0.536
Cu  Cu1  1  0.38392161  0.48241076  0.08395430  1  0.82422  0.664466  1.915842  0.479  0.812131  0.796521  2.327901  0.632  0.918515  0.888409  2.241559  0.735  0.671591  0.745136  0.691239  2.387207  0.537
H  H2  1  0.47521151  0.98381818  0.87294888  1  0.120915  0.000201  0.918471  0.0  0.138021  0.00011  0.970344  0.0  0.140208  0.000101  0.970121  0.0  0.106661  0.136523  9.5e-05  0.97047  0.0
H  H3  1  0.52477545  0.01620125  0.12702259  1  0.120746  -0.000203  0.918414  0.0  0.13788  -0.00011  0.970304  0.0  0.140066  -0.000101  0.97008  0.0  0.106675  0.136388  -9.4e-05  0.970437  0.0
H  H4  1  0.37145870  0.10684241  0.76291633  1  0.097939  0.000788  0.918684  0.001  0.112881  0.000544  0.975359  0.0  0.114578  0.000379  0.974936  0.0  0.097232  0.111574  0.000603  0.975683  0.0
H  H5  1  0.62851885  0.89319438  0.23707204  1  0.097823  -0.000789  0.918713  -0.001  0.112846  -0.000544  0.975348  0.0  0.114547  -0.000379  0.974918  0.0  0.09721  0.111539  -0.000603  0.975684  0.0
H  H6  1  0.18163322  0.01320075  0.99095510  1  0.078598  0.000278  0.927796  0.0  0.097671  0.000238  0.984457  0.0  0.098629  0.000137  0.984456  0.0  0.09635  0.097003  0.000305  0.984586  0.0
H  H7  1  0.81836082  0.98682198  0.00903346  1  0.078573  -0.000276  0.928141  0.0  0.097636  -0.000238  0.984747  0.0  0.098596  -0.000137  0.984751  0.0  0.096364  0.096965  -0.000305  0.984871  0.0
H  H8  1  0.07592168  0.12980787  0.87870546  1  0.072952  -8.3e-05  0.936592  0.0  0.090443  -9e-05  0.995815  0.0  0.090135  -4.6e-05  0.996911  0.0  0.094759  0.090857  -0.000122  0.994973  0.0
H  H9  1  0.92407049  0.87019846  0.12128122  1  0.073073  8.6e-05  0.936339  0.0  0.090479  9e-05  0.995679  0.0  0.090175  4.6e-05  0.996773  0.0  0.094756  0.090889  0.000122  0.994838  0.0
H  H10  1  0.17173186  0.87300051  0.75639293  1  0.094015  0.001229  0.937984  0.001  0.107018  0.000881  0.997743  0.001  0.107867  0.000578  0.998515  0.001  0.093561  0.10631  0.001042  0.997229  0.001
H  H11  1  0.82827876  0.12700929  0.24360083  1  0.09408  -0.00123  0.937892  -0.001  0.107092  -0.000881  0.997624  -0.001  0.107941  -0.000579  0.998394  -0.001  0.093601  0.106384  -0.001042  0.997114  -0.001
H  H12  1  0.01409559  0.84108459  0.87172098  1  0.115023  -0.001253  0.924389  -0.001  0.126855  -0.000849  0.98431  -0.001  0.12843  -0.000532  0.984414  -0.001  0.103512  0.125633  -0.001037  0.984296  -0.001
H  H13  1  0.98592305  0.15891381  0.12827008  1  0.115063  0.001251  0.92424  0.001  0.126864  0.000849  0.9842  0.001  0.128425  0.000532  0.984315  0.001  0.103541  0.125642  0.001036  0.984189  0.001
H  H14  1  0.01036446  0.40191571  0.88389026  1  0.090048  3e-06  0.954649  0.0  0.098616  2.7e-05  1.018646  0.0  0.102474  3.3e-05  1.014943  0.0  0.117374  0.095593  1.8e-05  1.021652  0.0
H  H15  1  0.98965787  0.59808337  0.11612240  1  0.090187  0.0  0.954694  0.0  0.098721  -2.7e-05  1.018707  0.0  0.102619  -3.3e-05  1.014956  0.0  0.11735  0.095705  -1.8e-05  1.021697  0.0
H  H16  1  0.27078295  0.43195348  0.74770537  1  0.108113  0.000101  0.992156  0.0  0.119446  3.9e-05  1.051507  0.0  0.122945  4.6e-05  1.050816  0.0  0.105477  0.116991  2.7e-05  1.052153  0.0
H  H17  1  0.72922389  0.56804970  0.25230061  1  0.108135  -0.000104  0.99201  0.0  0.119444  -3.9e-05  1.051416  0.0  0.122943  -4.6e-05  1.05072  0.0  0.105446  0.11699  -2.6e-05  1.052063  0.0
H  H18  1  0.91063364  0.74322219  0.53155363  1  0.098822  1.9e-05  0.94492  0.0  0.111926  7e-06  0.999212  0.0  0.115722  7e-06  0.998022  0.0  0.10321  0.109136  5e-06  1.000323  0.0
H  H19  1  0.08935042  0.25676462  0.46845605  1  0.098831  -1.9e-05  0.944808  0.0  0.111949  -7e-06  0.99907  0.0  0.115765  -7e-06  0.99786  0.0  0.103217  0.109152  -5e-06  1.000189  0.0
H  H20  1  0.66388490  0.69841982  0.67736572  1  0.077737  4.1e-05  0.937469  0.0  0.08868  5e-05  0.997213  0.0  0.091971  5.3e-05  0.994158  0.0  0.114863  0.08617  4.1e-05  0.999635  0.0
H  H21  1  0.33610891  0.30156550  0.32264925  1  0.077716  -4.1e-05  0.937399  0.0  0.088646  -5e-05  0.99713  0.0  0.091934  -5.3e-05  0.994078  0.0  0.1149  0.086137  -4.1e-05  0.999553  0.0
H  H22  1  0.22118622  0.65126168  0.46127765  1  0.078804  2e-06  0.927506  0.0  0.097935  2e-06  0.983936  0.0  0.099107  2e-06  0.984086  0.0  0.09505  0.097074  4e-06  0.983891  0.0
H  H23  1  0.77880153  0.34872168  0.53871760  1  0.078846  -3e-06  0.927503  0.0  0.098008  -2e-06  0.983893  0.0  0.099181  -2e-06  0.984046  0.0  0.09505  0.097143  -3e-06  0.983848  0.0
H  H24  1  0.31575158  0.74046691  0.57062161  1  0.077821  1.3e-05  0.914702  0.0  0.100581  1.5e-05  0.96858  0.0  0.102195  1.4e-05  0.967475  0.0  0.097006  0.099333  1.8e-05  0.9695  0.0
H  H25  1  0.68424342  0.25953277  0.42937685  1  0.077794  -1.5e-05  0.914854  0.0  0.100542  -1.5e-05  0.968743  0.0  0.10216  -1.4e-05  0.967635  0.0  0.097005  0.099303  -1.8e-05  0.969652  0.0
H  H26  1  0.37947150  0.36098163  0.52598537  1  0.053398  3e-06  0.94002  0.0  0.073841  4e-06  1.001006  0.0  0.074225  3e-06  1.001554  0.0  0.085009  0.073517  4e-06  1.000665  0.0
H  H27  1  0.62053136  0.63901267  0.47402284  1  0.053396  -4e-06  0.93993  0.0  0.073871  -4e-06  1.000931  0.0  0.074261  -3e-06  1.001465  0.0  0.084991  0.073534  -4e-06  1.000603  0.0
H  H28  1  0.48185046  0.45987769  0.62753991  1  0.075473  2e-06  0.941003  0.0  0.094544  -5e-06  1.00136  0.0  0.095676  7e-06  1.001436  0.0  0.092633  0.093591  -1.7e-05  1.001573  0.0
H  H29  1  0.51814397  0.54011808  0.37246292  1  0.075485  -3e-06  0.940944  0.0  0.094596  5e-06  1.001287  0.0  0.095695  -7e-06  1.001403  0.0  0.092654  0.093642  1.7e-05  1.001501  0.0
C  C30  1  0.40849866  0.24303175  0.90662382  1  0.682848  -2.2e-05  3.818401  0.0  0.649032  -8.1e-05  4.124394  0.0  0.689104  -4.7e-05  4.119576  0.0  0.212177  0.621781  -0.000104  4.127512  0.0
C  C31  1  0.59150368  0.75697290  0.09337569  1  0.682697  1.5e-05  3.81832  0.0  0.648914  7.9e-05  4.124313  0.0  0.688985  4.7e-05  4.119502  0.0  0.212216  0.621671  0.000105  4.127428  0.0
C  C32  1  0.36426005  0.08485019  0.85520046  1  -0.255851  -0.000221  3.656235  0.0  -0.294227  -5e-05  3.905795  0.0  -0.302508  4.5e-05  3.915025  0.0  -0.16146  -0.287318  -0.000135  3.89862  0.0
C  C33  1  0.63573539  0.91516476  0.14479498  1  -0.255461  0.000232  3.655778  0.0  -0.294004  5.2e-05  3.905446  0.0  -0.30228  -4.4e-05  3.914678  0.0  -0.161556  -0.287131  0.000137  3.898328  0.0
C  C34  1  0.18590509  0.02965280  0.89856300  1  -0.058922  -0.001694  3.666784  -0.002  -0.100659  -0.00097  3.927412  -0.001  -0.098881  -0.000644  3.940445  -0.001  -0.161801  -0.10206  -0.001103  3.918259  -0.002
C  C35  1  0.81408725  0.97037011  0.10141894  1  -0.059115  0.001682  3.666874  0.002  -0.100749  0.000971  3.92741  0.001  -0.098988  0.000644  3.940459  0.001  -0.161751  -0.102126  0.001103  3.91824  0.002
C  C36  1  0.27814225  0.71728171  0.89599351  1  0.685344  0.00056  3.822701  0.001  0.651793  0.000411  4.124413  0.001  0.692211  0.000422  4.119627  0.001  0.214136  0.624285  0.000343  4.127228  0.001
C  C37  1  0.72186544  0.28271395  0.10400929  1  0.685541  -0.00056  3.822397  -0.001  0.651987  -0.000411  4.124129  -0.001  0.692403  -0.000421  4.119346  -0.001  0.214137  0.624477  -0.000341  4.126952  -0.001
C  C38  1  0.15151662  0.86444236  0.84869898  1  -0.256421  -0.001112  3.656226  -0.001  -0.297787  -0.000708  3.910925  -0.001  -0.306388  -0.000431  3.92132  -0.001  -0.161916  -0.290679  -0.000802  3.902948  -0.001
C  C39  1  0.84850289  0.13556100  0.15129608  1  -0.256466  0.001119  3.656075  0.001  -0.297796  0.00071  3.910667  0.001  -0.306377  0.000434  3.921067  0.001  -0.161914  -0.290693  0.000803  3.902688  0.001
C  C40  1  0.99352919  0.47358376  0.80355344  1  0.132147  0.000394  3.697159  0.0  0.107265  0.000331  3.947798  0.0  0.115932  0.000309  3.963687  0.0  0.04546  0.10179  0.000344  3.937437  0.0
C  C41  1  0.00648768  0.52641662  0.19645954  1  0.13164  -0.00043  3.696901  0.0  0.106816  -0.000331  3.94758  0.0  0.115455  -0.000309  3.963459  0.0  0.045338  0.101347  -0.000344  3.937225  0.0
C  C42  1  0.13812694  0.49083182  0.72714695  1  -0.181796  -0.000188  3.713741  0.0  -0.194574  -8.2e-05  3.949131  0.0  -0.202766  -9.8e-05  3.969186  0.0  -0.092612  -0.189427  -7.9e-05  3.935798  0.0
C  C43  1  0.86187161  0.50914719  0.27286623  1  -0.181791  0.00022  3.713392  0.0  -0.194494  8.2e-05  3.948798  0.0  -0.202684  9.7e-05  3.968859  0.0  -0.092572  -0.189349  7.9e-05  3.935472  0.0
C  C44  1  0.11364031  0.59079829  0.62735986  1  0.144698  0.000384  3.73664  0.0  0.160788  0.000304  3.975891  0.0  0.166829  0.000262  3.997934  0.0  0.008394  0.156934  0.000357  3.960838  0.0
C  C45  1  0.88634473  0.40918093  0.37264915  1  0.144857  -0.000402  3.736468  0.0  0.160842  -0.000304  3.975877  0.0  0.166884  -0.000262  3.997926  0.0  0.008437  0.156988  -0.000357  3.960831  0.0
C  C46  1  0.93899587  0.66563831  0.60854553  1  -0.191227  -0.000272  3.748727  0.0  -0.207499  -0.000114  3.993648  0.0  -0.216163  -0.000132  4.014855  0.0  -0.091831  -0.201907  -0.000103  3.979424  0.0
C  C47  1  0.06099208  0.33434970  0.39146554  1  -0.191301  0.000284  3.748268  0.0  -0.207574  0.000114  3.993191  0.0  -0.216254  0.000133  4.014386  0.0  -0.091833  -0.201976  0.000103  3.978974  0.0
C  C48  1  0.80109407  0.64085251  0.68876147  1  0.123808  0.000477  3.733497  0.0  0.099739  0.000367  3.987585  0.0  0.107951  0.000337  4.005384  0.0  0.04253  0.094556  0.000384  3.975644  0.0
C  C49  1  0.19889725  0.35913694  0.31124176  1  0.1239  -0.000495  3.733306  0.0  0.099942  -0.000367  3.987328  0.0  0.108155  -0.000337  4.005133  0.0  0.042587  0.094761  -0.000384  3.975388  0.0
C  C50  1  0.26861645  0.62309914  0.54663160  1  -0.153891  -3e-05  3.714608  0.0  -0.199129  -9e-06  3.970979  0.0  -0.200684  -5e-06  3.98299  0.0  -0.1547  -0.197898  -1.4e-05  3.962576  0.0
C  C51  1  0.73136848  0.37688906  0.45337294  1  -0.153977  3.5e-05  3.714752  0.0  -0.199188  9e-06  3.971253  0.0  -0.20075  5e-06  3.983266  0.0  -0.154732  -0.197951  1.4e-05  3.962835  0.0
C  C52  1  0.42651601  0.48092090  0.54404339  1  -0.106418  5e-06  3.700804  0.0  -0.149415  -5e-06  3.96899  0.0  -0.150319  4e-06  3.983556  0.0  -0.166922  -0.148528  -1.2e-05  3.958712  0.0
C  C53  1  0.57349302  0.51907238  0.45595351  1  -0.106262  -3e-06  3.700634  0.0  -0.149409  4e-06  3.968964  0.0  -0.150307  -5e-06  3.983568  0.0  -0.166874  -0.148516  1.2e-05  3.958689  0.0
N  N54  1  0.82679854  0.54675330  0.78522197  1  -0.307788  0.001129  3.237544  0.0  -0.261031  0.000657  3.521508  0.0  -0.282797  0.000691  3.536322  0.0  -0.340135  -0.247269  0.000565  3.512696  0.0
N  N55  1  0.17322709  0.45323833  0.21478398  1  -0.307585  -0.001108  3.237371  0.0  -0.260933  -0.000658  3.521373  0.0  -0.282717  -0.000692  3.536196  0.0  -0.340128  -0.247178  -0.000567  3.512574  0.0
O  O56  1  0.52592389  0.32021678  0.85115450  1  -0.587148  -0.077036  2.050977  -0.102  -0.570452  -0.052845  2.325721  -0.077  -0.614839  -0.041441  2.317571  -0.064  -0.32602  -0.541979  -0.054335  2.332134  -0.076
O  O57  1  0.47406600  0.67979296  0.14884820  1  -0.587096  0.077057  2.050914  0.102  -0.570404  0.052856  2.325638  0.077  -0.614811  0.041446  2.317482  0.064  -0.325995  -0.541927  0.054344  2.33205  0.076
O  O58  1  0.32777166  0.28454275  0.00034528  1  -0.573627  0.070299  2.057049  0.093  -0.551233  0.048671  2.332391  0.071  -0.595172  0.038594  2.325697  0.06  -0.312563  -0.522961  0.049817  2.337794  0.07
O  O59  1  0.67224592  0.71545018  0.99966200  1  -0.57358  -0.07029  2.057111  -0.093  -0.551161  -0.048666  2.332368  -0.071  -0.595082  -0.038592  2.325684  -0.06  -0.312581  -0.522889  -0.049813  2.337759  -0.07
O  O60  1  0.22749428  0.64947512  0.99018799  1  -0.578427  0.071705  2.085915  0.095  -0.554778  0.049487  2.366285  0.072  -0.600052  0.038772  2.359753  0.059  -0.311422  -0.525065  0.052505  2.371086  0.073
O  O61  1  0.77250437  0.35052586  0.00980768  1  -0.578535  -0.071736  2.085789  -0.095  -0.554921  -0.0495  2.366201  -0.072  -0.600161  -0.038783  2.359627  -0.059  -0.311463  -0.525185  -0.052522  2.370957  -0.073
O  O62  1  0.42821090  0.67927940  0.84154621  1  -0.581293  -0.077411  2.06364  -0.102  -0.558457  -0.053343  2.342314  -0.077  -0.604118  -0.041633  2.336587  -0.064  -0.315595  -0.528736  -0.056325  2.346772  -0.078
O  O63  1  0.57180365  0.32074169  0.15845030  1  -0.581402  0.077408  2.063626  0.102  -0.558597  0.053342  2.342362  0.077  -0.604276  0.041631  2.336633  0.064  -0.315673  -0.528885  0.056321  2.346833  0.078
