# generated using pymatgen
data_HgH11C15I2N3O
_symmetry_space_group_name_H-M   'P 1'
_cell_length_a   9.86167649
_cell_length_b   9.77184205
_cell_length_c   10.08315411
_cell_angle_alpha   61.01653106
_cell_angle_beta   89.93468863
_cell_angle_gamma   89.86464441
_symmetry_Int_Tables_number   1
_chemical_formula_structural   HgH11C15I2N3O
_chemical_formula_sum   'Hg2 H22 C30 I4 N6 O2'
_cell_volume   849.98463503
_cell_formula_units_Z   2
loop_
 _symmetry_equiv_pos_site_id
 _symmetry_equiv_pos_as_xyz
  1  'x, y, z'
loop_
 _atom_site_type_symbol
 _atom_site_label
 _atom_site_symmetry_multiplicity
 _atom_site_fract_x
 _atom_site_fract_y
 _atom_site_fract_z
 _atom_site_occupancy
 _atom_site_hle17_bader_spin_density
 _atom_site_hle17_ddec_charge
 _atom_site_hle17_ddec_spin_density
 _atom_site_hle17_ddec_sum_bond_order
 _atom_site_hle17_magmom
 _atom_site_hse06_10hf_bader_spin_density
 _atom_site_hse06_10hf_ddec_charge
 _atom_site_hse06_10hf_ddec_spin_density
 _atom_site_hse06_10hf_ddec_sum_bond_order
 _atom_site_hse06_10hf_magmom
 _atom_site_hse06_bader_spin_density
 _atom_site_hse06_ddec_charge
 _atom_site_hse06_ddec_spin_density
 _atom_site_hse06_ddec_sum_bond_order
 _atom_site_hse06_magmom
 _atom_site_pbe_bader_spin_density
 _atom_site_pbe_cm5_charge
 _atom_site_pbe_ddec_charge
 _atom_site_pbe_ddec_spin_density
 _atom_site_pbe_ddec_sum_bond_order
 _atom_site_pbe_magmom
Hg  Hg0  1  0.24999933  0.32817782  0.34364958  1  0  0.542758  0  2.196633  0  0  0.405533  0  2.691816  0  0  0.449142  0  2.667195  0  0  0.408178  0.378821  0  2.708097  0
Hg  Hg1  1  0.74999860  0.67182262  0.65635100  1  0  0.542789  0  2.196601  0  0  0.405567  0  2.691778  0  0  0.449176  0  2.667167  0  0  0.40818  0.378852  0  2.708062  0
H  H2  1  0.27490507  0.94649431  0.53861157  1  0  0.077338  0  0.973362  0  0  0.077049  0  1.054836  0  0  0.080859  0  1.050716  0  0  0.098734  0.073589  0  1.058969  0
H  H3  1  0.22509471  0.51489715  0.53860813  1  0  0.077328  0  0.973298  0  0  0.077033  0  1.054796  0  0  0.080848  0  1.050667  0  0  0.098737  0.073574  0  1.05893  0
H  H4  1  0.72509489  0.05350290  0.46138990  1  0  0.077335  0  0.97335  0  0  0.07704  0  1.05482  0  0  0.080853  0  1.050696  0  0  0.09874  0.073582  0  1.05895  0
H  H5  1  0.77490525  0.48510329  0.46139247  1  0  0.077309  0  0.973313  0  0  0.077026  0  1.054791  0  0  0.080837  0  1.050669  0  0  0.098733  0.073565  0  1.058929  0
H  H6  1  0.17159614  0.71041298  0.75703013  1  0  0.102004  0  0.956165  0  0  0.11361  0  1.013205  0  0  0.116876  0  1.011946  0  0  0.101512  0.110737  0  1.015108  0
H  H7  1  0.32840248  0.53255541  0.75702940  1  0  0.101983  0  0.956216  0  0  0.113614  0  1.013216  0  0  0.116881  0  1.011956  0  0  0.101512  0.110742  0  1.01512  0
H  H8  1  0.82840280  0.28958585  0.24297090  1  0  0.101971  0  0.956205  0  0  0.113603  0  1.013223  0  0  0.116869  0  1.011964  0  0  0.101506  0.110729  0  1.015127  0
H  H9  1  0.67159747  0.46744602  0.24297021  1  0  0.101986  0  0.95617  0  0  0.113613  0  1.01318  0  0  0.11688  0  1.01192  0  0  0.101517  0.110742  0  1.015082  0
H  H10  1  0.96994824  0.74502106  0.88699186  1  0  0.091031  0  0.966278  0  0  0.100876  0  1.031383  0  0  0.103791  0  1.029014  0  0  0.095375  0.097342  0  1.036126  0
H  H11  1  0.53005169  0.36798186  0.88699586  1  0  0.09102  0  0.966268  0  0  0.100861  0  1.031377  0  0  0.103774  0  1.029009  0  0  0.095368  0.097327  0  1.036124  0
H  H12  1  0.03005072  0.25497975  0.11300719  1  0  0.091017  0  0.966268  0  0  0.100857  0  1.031376  0  0  0.10377  0  1.029006  0  0  0.095376  0.097325  0  1.036117  0
H  H13  1  0.46994828  0.63201895  0.11300320  1  0  0.091018  0  0.966267  0  0  0.100857  0  1.031385  0  0  0.10377  0  1.029016  0  0  0.095364  0.097324  0  1.03613  0
H  H14  1  0.98936022  0.24117116  0.57197117  1  0  0.081022  0  0.972822  0  0  0.080911  0  1.054151  0  0  0.084785  0  1.049811  0  0  0.1014  0.076863  0  1.059568  0
H  H15  1  0.51063671  0.18685467  0.57197119  1  0  0.081026  0  0.972767  0  0  0.080917  0  1.054089  0  0  0.084794  0  1.049742  0  0  0.101393  0.076869  0  1.059506  0
H  H16  1  0.01063975  0.75882805  0.42802832  1  0  0.080993  0  0.972815  0  0  0.080875  0  1.054151  0  0  0.084752  0  1.049806  0  0  0.101406  0.07683  0  1.059565  0
H  H17  1  0.48936325  0.81314415  0.42802984  1  0  0.081019  0  0.972802  0  0  0.080908  0  1.054129  0  0  0.084784  0  1.049786  0  0  0.101405  0.076859  0  1.059549  0
H  H18  1  0.93223824  0.85815148  0.04127307  1  0  0.10484  0  0.978258  0  0  0.114989  0  1.041029  0  0  0.118145  0  1.039775  0  0  0.094692  0.113615  0  1.040562  0
H  H19  1  0.56776684  0.10057017  0.04127885  1  0  0.104874  0  0.978236  0  0  0.114985  0  1.041054  0  0  0.118141  0  1.0398  0  0  0.094679  0.113608  0  1.040593  0
H  H20  1  0.06776275  0.14184872  0.95872544  1  0  0.104846  0  0.978255  0  0  0.114991  0  1.041037  0  0  0.118148  0  1.03978  0  0  0.094698  0.113618  0  1.040569  0
H  H21  1  0.43223413  0.89943026  0.95872176  1  0  0.10486  0  0.978267  0  0  0.114976  0  1.041076  0  0  0.118132  0  1.039821  0  0  0.094676  0.1136  0  1.040614  0
H  H22  1  0.75000464  0.90620762  0.18757662  1  0  0.100899  0  0.956032  0  0  0.110314  0  1.016937  0  0  0.112279  0  1.017534  0  0  0.101791  0.109606  0  1.016031  0
H  H23  1  0.24999735  0.09379220  0.81242344  1  0  0.100895  0  0.956049  0  0  0.110312  0  1.016952  0  0  0.112278  0  1.017545  0  0  0.101793  0.109606  0  1.016043  0
C  C24  1  0.18755875  0.95683125  0.59960898  1  0  0.125765  0  3.688761  0  0  0.092074  0  3.944176  0  0  0.100891  0  3.960482  0  0  0.038864  0.086446  0  3.934283  0
C  C25  1  0.31244006  0.44356168  0.59960747  1  0  0.125806  0  3.688586  0  0  0.092089  0  3.944021  0  0  0.100903  0  3.960323  0  0  0.038841  0.08646  0  3.934124  0
C  C26  1  0.81244020  0.04316696  0.40039149  1  0  0.12575  0  3.68858  0  0  0.092093  0  3.943978  0  0  0.100907  0  3.960286  0  0  0.038849  0.086464  0  3.934085  0
C  C27  1  0.68755888  0.55643876  0.40039312  1  0  0.12582  0  3.688554  0  0  0.092103  0  3.943977  0  0  0.100917  0  3.960283  0  0  0.038827  0.086474  0  3.934081  0
C  C28  1  0.13010778  0.82639732  0.72113557  1  0  -0.104474  0  3.740879  0  0  -0.114916  0  3.98845  0  0  -0.122324  0  4.010155  0  0  -0.085635  -0.109788  0  3.973434  0
C  C29  1  0.36988731  0.45246305  0.72113765  1  0  -0.104481  0  3.740899  0  0  -0.114921  0  3.988469  0  0  -0.12233  0  4.01017  0  0  -0.08562  -0.109795  0  3.973455  0
C  C30  1  0.86989015  0.17360151  0.27886545  1  0  -0.104481  0  3.740859  0  0  -0.114948  0  3.988415  0  0  -0.122358  0  4.010116  0  0  -0.085646  -0.109822  0  3.973402  0
C  C31  1  0.63011264  0.54753738  0.27886295  1  0  -0.10447  0  3.74087  0  0  -0.114918  0  3.988451  0  0  -0.122325  0  4.010151  0  0  -0.085613  -0.109791  0  3.973438  0
C  C32  1  0.01694718  0.84626318  0.79252257  1  0  -0.054423  0  3.716658  0  0  -0.08084  0  3.96484  0  0  -0.078623  0  3.98465  0  0  -0.07131  -0.08102  0  3.950849  0
C  C33  1  0.48304905  0.36120887  0.79252613  1  0  -0.054404  0  3.716695  0  0  -0.080831  0  3.964896  0  0  -0.078613  0  3.984711  0  0  -0.071305  -0.081013  0  3.950913  0
C  C34  1  0.98305178  0.15373602  0.20747691  1  0  -0.054352  0  3.716676  0  0  -0.080752  0  3.964879  0  0  -0.078538  0  3.984705  0  0  -0.071281  -0.080933  0  3.95089  0
C  C35  1  0.51695091  0.63879095  0.20747392  1  0  -0.054418  0  3.716703  0  0  -0.080842  0  3.964899  0  0  -0.078628  0  3.984721  0  0  -0.071309  -0.081024  0  3.950918  0
C  C36  1  0.96339068  0.99674051  0.74150729  1  0  -0.011062  0  3.771987  0  0  0.009944  0  4.004939  0  0  0.004567  0  4.027256  0  0  -0.004407  0.013284  0  3.989864  0
C  C37  1  0.53660769  0.26174918  0.74150930  1  0  -0.011005  0  3.771996  0  0  0.009996  0  4.00496  0  0  0.004619  0  4.027276  0  0  -0.004396  0.013337  0  3.989884  0
C  C38  1  0.03660929  0.00326030  0.25849177  1  0  -0.011102  0  3.772049  0  0  0.009876  0  4.005048  0  0  0.004494  0  4.027365  0  0  -0.004414  0.013215  0  3.989974  0
C  C39  1  0.46339228  0.73825163  0.25848976  1  0  -0.011028  0  3.772066  0  0  0.009974  0  4.005031  0  0  0.004597  0  4.027346  0  0  -0.004406  0.013315  0  3.989957  0
C  C40  1  0.02674756  0.12175080  0.61724494  1  0  0.097521  0  3.662851  0  0  0.058104  0  3.914146  0  0  0.066921  0  3.929311  0  0  0.045304  0.052672  0  3.905334  0
C  C41  1  0.47324963  0.26100003  0.61724663  1  0  0.097509  0  3.662734  0  0  0.05807  0  3.91405  0  0  0.066886  0  3.929213  0  0  0.045284  0.052637  0  3.90524  0
C  C42  1  0.97325342  0.87824840  0.38275456  1  0  0.097757  0  3.66279  0  0  0.058351  0  3.914105  0  0  0.06717  0  3.929269  0  0  0.045396  0.052918  0  3.905292  0
C  C43  1  0.52674932  0.73899979  0.38275340  1  0  0.09755  0  3.662766  0  0  0.058108  0  3.914066  0  0  0.066924  0  3.929232  0  0  0.04527  0.052674  0  3.905259  0
C  C44  1  0.85191965  0.02049899  0.82530959  1  0  0.091446  0  3.696885  0  0  0.077823  0  3.94804  0  0  0.083941  0  3.966984  0  0  0.098823  0.074827  0  3.933414  0
C  C45  1  0.64808063  0.15418893  0.82531196  1  0  0.091439  0  3.696895  0  0  0.077831  0  3.948027  0  0  0.08395  0  3.966969  0  0  0.098839  0.074833  0  3.933401  0
C  C46  1  0.14808033  0.97950121  0.17468891  1  0  0.09143  0  3.696894  0  0  0.077828  0  3.94805  0  0  0.083946  0  3.966992  0  0  0.098836  0.07483  0  3.933426  0
C  C47  1  0.35192035  0.84581188  0.17468711  1  0  0.091437  0  3.697012  0  0  0.077835  0  3.948136  0  0  0.083952  0  3.96708  0  0  0.098842  0.074836  0  3.933513  0
C  C48  1  0.85009091  0.94028544  0.98315074  1  0  -0.127863  0  3.756259  0  0  -0.146399  0  4.01028  0  0  -0.151052  0  4.029457  0  0  -0.08554  -0.14358  0  3.997029  0
C  C49  1  0.64991288  0.07656072  0.98315310  1  0  -0.127934  0  3.756334  0  0  -0.146446  0  4.010366  0  0  -0.151099  0  4.029542  0  0  -0.085558  -0.14363  0  3.997122  0
C  C50  1  0.14991006  0.05971438  0.01684932  1  0  -0.127894  0  3.75632  0  0  -0.146436  0  4.010347  0  0  -0.15109  0  4.029522  0  0  -0.085566  -0.143617  0  3.997096  0
C  C51  1  0.35008809  0.92343909  0.01684695  1  0  -0.127906  0  3.756335  0  0  -0.146423  0  4.010362  0  0  -0.151077  0  4.029539  0  0  -0.085551  -0.143608  0  3.997118  0
C  C52  1  0.75000203  0.96782531  0.06434701  1  0  -0.033153  0  3.761148  0  0  -0.058594  0  4.025157  0  0  -0.056196  0  4.044645  0  0  -0.093318  -0.061005  0  4.013653  0
C  C53  1  0.24999895  0.03217650  0.93565107  1  0  -0.033155  0  3.761164  0  0  -0.058605  0  4.025185  0  0  -0.056202  0  4.044668  0  0  -0.093322  -0.061013  0  4.013678  0
I  I54  1  0.44584350  0.20626956  0.24311999  1  0  -0.356077  0  1.099349  0  0  -0.311517  0  1.423785  0  0  -0.327638  0  1.406764  0  0  -0.17078  -0.298964  0  1.43949  0
I  I55  1  0.05415145  0.55060940  0.24313442  1  0  -0.356041  0  1.099353  0  0  -0.311508  0  1.423842  0  0  -0.327628  0  1.406819  0  0  -0.170762  -0.298964  0  1.43956  0
I  I56  1  0.55415447  0.79374082  0.75687070  1  0  -0.356062  0  1.09935  0  0  -0.311513  0  1.423802  0  0  -0.327633  0  1.406783  0  0  -0.170764  -0.298961  0  1.43951  0
I  I57  1  0.94584844  0.44939013  0.75687290  1  0  -0.356058  0  1.099326  0  0  -0.311516  0  1.423795  0  0  -0.327638  0  1.406776  0  0  -0.170774  -0.298975  0  1.439515  0
N  N58  1  0.13585846  0.10112904  0.54946201  1  0  -0.285007  0  3.265761  0  0  -0.204498  0  3.529095  0  0  -0.22559  0  3.551627  0  0  -0.315271  -0.192584  0  3.514397  0
N  N59  1  0.36413914  0.34940812  0.54946061  1  0  -0.285061  0  3.265678  0  0  -0.204491  0  3.528957  0  0  -0.225585  0  3.551498  0  0  -0.315256  -0.192563  0  3.514236  0
N  N60  1  0.86414152  0.89886793  0.45053736  1  0  -0.285182  0  3.265755  0  0  -0.204686  0  3.529102  0  0  -0.225776  0  3.551633  0  0  -0.315366  -0.192769  0  3.514403  0
N  N61  1  0.63585981  0.65059169  0.45053943  1  0  -0.285095  0  3.265668  0  0  -0.204522  0  3.52895  0  0  -0.225615  0  3.551488  0  0  -0.315244  -0.192596  0  3.514237  0
N  N62  1  0.74999826  0.12694787  0.74610131  1  0  0.202359  0  3.711838  0  0  0.24968  0  3.976197  0  0  0.25142  0  3.997509  0  0  -0.094781  0.247748  0  3.959407  0
N  N63  1  0.25000170  0.87305194  0.25389873  1  0  0.202383  0  3.711809  0  0  0.249695  0  3.976171  0  0  0.251436  0  3.997481  0  0  -0.09478  0.247763  0  3.959382  0
O  O64  1  0.74999600  0.20014315  0.59970439  1  0  -0.476969  0  1.770273  0  0  -0.44133  0  1.997642  0  0  -0.467721  0  2.004017  0  0  -0.205385  -0.42202  0  1.9924  0
O  O65  1  0.25000295  0.79985667  0.40029565  1  0  -0.476979  0  1.770273  0  0  -0.441335  0  1.997644  0  0  -0.467726  0  2.004014  0  0  -0.205378  -0.422024  0  1.992399  0
