# generated using pymatgen
data_EuH14C17NO7
_symmetry_space_group_name_H-M   'P 1'
_cell_length_a   6.42763415
_cell_length_b   16.53516919
_cell_length_c   24.28497707
_cell_angle_alpha   90.00125004
_cell_angle_beta   91.15007009
_cell_angle_gamma   89.99616755
_symmetry_Int_Tables_number   1
_chemical_formula_structural   EuH14C17NO7
_chemical_formula_sum   'Eu4 H56 C68 N4 O28'
_cell_volume   2580.53642234
_cell_formula_units_Z   4
loop_
 _symmetry_equiv_pos_site_id
 _symmetry_equiv_pos_as_xyz
  1  'x, y, z'
loop_
 _atom_site_type_symbol
 _atom_site_label
 _atom_site_symmetry_multiplicity
 _atom_site_fract_x
 _atom_site_fract_y
 _atom_site_fract_z
 _atom_site_occupancy
 _atom_site_pbe_bader_charge
 _atom_site_pbe_bader_spin_density
 _atom_site_pbe_cm5_charge
 _atom_site_pbe_ddec_charge
 _atom_site_pbe_ddec_spin_density
 _atom_site_pbe_ddec_sum_bond_order
 _atom_site_pbe_magmom
Eu  Eu0  1  0.26273151  0.06381079  0.02203353  1  2.181745  0  1.527662  2.092159  0  2.241616  0
Eu  Eu1  1  0.73726580  0.56380952  0.47796589  1  2.181739  0  1.527623  2.092044  0  2.241846  0
Eu  Eu2  1  0.73726399  0.93618683  0.97796621  1  2.18174  0  1.527707  2.092167  0  2.241615  0
Eu  Eu3  1  0.26274061  0.43618871  0.52203473  1  2.181721  0  1.527603  2.092042  0  2.241906  0
H  H4  1  0.63900723  0.77883605  0.81945457  1  0.03566  0  0.101694  0.121489  0  1.005991  0
H  H5  1  0.36101948  0.27883996  0.68054538  1  0.035656  0  0.10161  0.121356  0  1.006044  0
H  H6  1  0.36099134  0.22116520  0.18054313  1  0.0356  0  0.101685  0.121508  0  1.005981  0
H  H7  1  0.63898539  0.72116069  0.31945687  1  0.035716  0  0.101624  0.12136  0  1.006071  0
H  H8  1  0.01573031  0.83950505  0.76313310  1  0.02566  0  0.091806  0.09232  0  1.036627  0
H  H9  1  0.98427624  0.33950930  0.73687302  1  0.025436  0  0.091745  0.092293  0  1.036658  0
H  H10  1  0.98426983  0.16049741  0.23686543  1  0.025697  0  0.091782  0.092291  0  1.036633  0
H  H11  1  0.01572707  0.66049437  0.26312882  1  0.025512  0  0.091759  0.092292  0  1.036648  0
H  H12  1  0.96630538  0.91896833  0.84829535  1  0.065212  0  0.111129  0.107988  0  1.009517  0
H  H13  1  0.03369461  0.41896668  0.65170944  1  0.065336  0  0.111096  0.107878  0  1.009463  0
H  H14  1  0.03369479  0.08103111  0.15170442  1  0.065218  0  0.111117  0.107973  0  1.009535  0
H  H15  1  0.96631180  0.58103578  0.34829159  1  0.065394  0  0.111115  0.107875  0  1.009475  0
H  H16  1  0.05709818  0.69860748  0.73782544  1  0.079206  0  0.107003  0.128201  0  0.997341  0
H  H17  1  0.94292761  0.19861235  0.76218403  1  0.079039  0  0.107047  0.12827  0  0.997444  0
H  H18  1  0.94290355  0.30139135  0.26217433  1  0.07919  0  0.107008  0.128192  0  0.997354  0
H  H19  1  0.05707728  0.80139132  0.23781863  1  0.079014  0  0.107036  0.128237  0  0.997414  0
H  H20  1  0.73150367  0.70594864  0.64195188  1  0.057032  0  0.097039  0.093861  0  1.048257  0
H  H21  1  0.26848317  0.20596049  0.85804190  1  0.057351  0  0.097012  0.093745  0  1.048117  0
H  H22  1  0.26849492  0.29405503  0.35804664  1  0.057024  0  0.097056  0.093872  0  1.0482  0
H  H23  1  0.73151388  0.79403835  0.14195745  1  0.057086  0  0.097034  0.093814  0  1.048164  0
H  H24  1  0.67722789  0.79573015  0.72286693  1  0.046605  0  0.095073  0.097729  0  1.033517  0
H  H25  1  0.32276771  0.29574171  0.77712944  1  0.046278  0  0.095001  0.097583  0  1.033445  0
H  H26  1  0.32276601  0.20427292  0.27713075  1  0.046431  0  0.095057  0.097728  0  1.033547  0
H  H27  1  0.67723402  0.70425834  0.22287074  1  0.046254  0  0.094999  0.097585  0  1.033465  0
H  H28  1  0.11618029  0.22012422  0.92854328  1  0.103122  0  0.125702  0.041755  0  1.045076  0
H  H29  1  0.88379786  0.72012028  0.57145561  1  0.103016  0  0.125635  0.041564  0  1.045097  0
H  H30  1  0.88380586  0.77987280  0.07145602  1  0.103061  0  0.125707  0.041667  0  1.045015  0
H  H31  1  0.11620857  0.27987856  0.42854624  1  0.103018  0  0.125638  0.041562  0  1.045168  0
H  H32  1  0.97150639  0.31634843  0.88268647  1  0.069012  0  0.112383  0.125926  0  0.994131  0
H  H33  1  0.02846532  0.81634224  0.61731299  1  0.068852  0  0.112398  0.125966  0  0.99423  0
H  H34  1  0.02847978  0.68365162  0.11731365  1  0.068975  0  0.112392  0.12603  0  0.994145  0
H  H35  1  0.97153794  0.18365962  0.38268597  1  0.068798  0  0.112403  0.125955  0  0.994293  0
H  H36  1  0.84363777  0.39041280  0.92366665  1  0.04126  0  0.105394  0.115996  0  0.976901  0
H  H37  1  0.15631281  0.89040517  0.57633217  1  0.041444  0  0.105306  0.115867  0  0.976972  0
H  H38  1  0.15635312  0.60958483  0.07633596  1  0.041274  0  0.10541  0.116006  0  0.976912  0
H  H39  1  0.84368889  0.10959669  0.42366596  1  0.04148  0  0.105316  0.115884  0  0.976964  0
H  H40  1  0.69462354  0.31844982  0.88430268  1  0.089113  0  0.103786  0.121378  0  1.019463  0
H  H41  1  0.30534776  0.81843856  0.61569475  1  0.089234  0  0.103667  0.121161  0  1.019223  0
H  H42  1  0.30536578  0.68155023  0.11569952  1  0.089195  0  0.10379  0.121411  0  1.019478  0
H  H43  1  0.69465705  0.18156450  0.38430380  1  0.089223  0  0.103687  0.121218  0  1.019261  0
H  H44  1  0.70426250  0.23178255  0.02726782  1  0.102561  0  0.122845  0.147829  0  0.996631  0
H  H45  1  0.29569824  0.73177445  0.47272775  1  0.102294  0  0.122831  0.147734  0  0.996599  0
H  H46  1  0.29573145  0.76821145  0.97273234  1  0.102858  0  0.122869  0.147791  0  0.996622  0
H  H47  1  0.70430190  0.26822922  0.52727037  1  0.10032  0  0.122817  0.147678  0  0.996627  0
H  H48  1  0.52763268  0.26326971  0.97367600  1  0.078714  0  0.111275  0.121433  0  0.998818  0
H  H49  1  0.47233136  0.76325875  0.52631647  1  0.079195  0  0.111284  0.121378  0  0.998765  0
H  H50  1  0.47235974  0.73672549  0.02632538  1  0.078776  0  0.111241  0.121417  0  0.998755  0
H  H51  1  0.52767032  0.23674492  0.47368125  1  0.079157  0  0.111267  0.12135  0  0.998794  0
H  H52  1  0.67136809  0.33740124  0.01271150  1  0.049772  0  0.107236  0.11495  0  0.974513  0
H  H53  1  0.32857362  0.83739159  0.48728430  1  0.049907  0  0.107242  0.114875  0  0.974413  0
H  H54  1  0.32862588  0.66259336  0.98729030  1  0.049703  0  0.107238  0.114902  0  0.974455  0
H  H55  1  0.67142499  0.16261209  0.51271504  1  0.049994  0  0.107215  0.114818  0  0.974484  0
H  H56  1  0.13299847  0.56735058  0.62555277  1  0.64018  0  0.308654  0.357653  0  0.970206  0
H  H57  1  0.86700731  0.06735062  0.87445182  1  0.640015  0  0.308609  0.357533  0  0.970311  0
H  H58  1  0.86700636  0.43264886  0.37444702  1  0.640165  0  0.30854  0.357434  0  0.970294  0
H  H59  1  0.13299288  0.93264942  0.12554960  1  0.640025  0  0.308607  0.357508  0  0.970385  0
C  C60  1  0.23197867  0.94050495  0.93190555  1  1.444989  0  0.221944  0.661227  0  4.148172  0
C  C61  1  0.76803297  0.44050431  0.56809754  1  1.445042  0  0.222006  0.661379  0  4.148008  0
C  C62  1  0.76801838  0.05949328  0.06809420  1  1.445013  0  0.221979  0.66123  0  4.148023  0
C  C63  1  0.23197345  0.55949573  0.43190390  1  1.445013  0  0.22201  0.661318  0  4.147764  0
C  C64  1  0.27190586  0.89414672  0.88237088  1  0.004904  0  -0.036172  -0.206521  0  3.934978  0
C  C65  1  0.72810166  0.39414864  0.61763110  1  0.004827  0  -0.036175  -0.206644  0  3.934906  0
C  C66  1  0.72808963  0.10585151  0.11762845  1  0.004941  0  -0.036186  -0.206519  0  3.935102  0
C  C67  1  0.27190162  0.60585261  0.38236868  1  0.004809  0  -0.03621  -0.206644  0  3.934872  0
C  C68  1  0.46880204  0.85468645  0.87421454  1  0.681652  0  0.101534  0.389319  0  4.100444  0
C  C69  1  0.53121570  0.35469046  0.62578691  1  0.681566  0  0.101478  0.389233  0  4.100501  0
C  C70  1  0.53119657  0.14531178  0.12578481  1  0.681626  0  0.101526  0.389321  0  4.100342  0
C  C71  1  0.46879070  0.64531140  0.37421371  1  0.681546  0  0.101499  0.389236  0  4.100722  0
C  C72  1  0.49125214  0.81003994  0.82484070  1  0.00788  0  -0.10988  -0.266888  0  3.901788  0
C  C73  1  0.50876896  0.31004366  0.67515969  1  0.008077  0  -0.109775  -0.266707  0  3.901437  0
C  C74  1  0.50874644  0.18996071  0.17515783  1  0.008102  0  -0.109866  -0.266914  0  3.901751  0
C  C75  1  0.49123903  0.68995699  0.32484216  1  0.008161  0  -0.109788  -0.26666  0  3.901749  0
C  C76  1  0.33156378  0.80346076  0.78553529  1  -0.039809  0  -0.005835  0.098447  0  4.036022  0
C  C77  1  0.66844767  0.30346603  0.71446826  1  -0.039913  0  -0.005737  0.098531  0  4.035904  0
C  C78  1  0.66843482  0.19654050  0.21446365  1  -0.039962  0  -0.005881  0.098376  0  4.036012  0
C  C79  1  0.33155722  0.69653522  0.28553441  1  -0.040106  0  -0.005827  0.098342  0  4.036064  0
C  C80  1  0.13975969  0.84302923  0.79428030  1  0.01379  0  -0.114575  -0.184781  0  4.03056  0
C  C81  1  0.86024467  0.34303071  0.70572545  1  0.014136  0  -0.114604  -0.184922  0  4.030438  0
C  C82  1  0.86023891  0.15697263  0.20571864  1  0.013293  0  -0.11456  -0.184753  0  4.030418  0
C  C83  1  0.13975709  0.65697115  0.29427679  1  0.014023  0  -0.114614  -0.184877  0  4.030558  0
C  C84  1  0.11279779  0.88765944  0.84163815  1  -0.049557  0  -0.076935  -0.043316  0  3.999318  0
C  C85  1  0.88720629  0.38765813  0.65836661  1  -0.050052  0  -0.076818  -0.042964  0  3.998796  0
C  C86  1  0.88719926  0.11234000  0.15836120  1  -0.049083  0  -0.076868  -0.043263  0  3.999231  0
C  C87  1  0.11279701  0.61234312  0.34163399  1  -0.049929  0  -0.076833  -0.042989  0  3.998956  0
C  C88  1  0.36263042  0.75388162  0.73575643  1  0.007421  0  -0.001769  0.10315  0  4.020765  0
C  C89  1  0.63738060  0.25389166  0.76424556  1  0.008229  0  -0.001876  0.103073  0  4.020838  0
C  C90  1  0.63736661  0.24611963  0.26424208  1  0.007389  0  -0.001754  0.103245  0  4.020791  0
C  C91  1  0.36262425  0.74611140  0.23575505  1  0.007983  0  -0.001814  0.103154  0  4.020647  0
C  C92  1  0.20451432  0.70256658  0.71653889  1  0.006286  0  -0.107871  -0.266105  0  3.931917  0
C  C93  1  0.79549980  0.20257334  0.78346771  1  0.006147  0  -0.107952  -0.266273  0  3.932111  0
C  C94  1  0.79548583  0.29743407  0.28346005  1  0.006319  0  -0.107914  -0.266179  0  3.931886  0
C  C95  1  0.20450195  0.79742973  0.21653412  1  0.006464  0  -0.107913  -0.266203  0  3.931872  0
C  C96  1  0.23481253  0.65141572  0.67129966  1  0.473127  0  0.089656  0.316148  0  4.068058  0
C  C97  1  0.76519525  0.15142225  0.82870658  1  0.472924  0  0.089707  0.316178  0  4.068055  0
C  C98  1  0.76518764  0.34858493  0.32870011  1  0.473136  0  0.089703  0.316213  0  4.068032  0
C  C99  1  0.23480340  0.84857900  0.17129565  1  0.473026  0  0.089779  0.316365  0  4.067918  0
C  C100  1  0.42644258  0.65397291  0.64304239  1  0.025636  0  -0.042436  -0.202795  0  3.974577  0
C  C101  1  0.57355845  0.15397902  0.85696057  1  0.025711  0  -0.042487  -0.202911  0  3.974618  0
C  C102  1  0.57355914  0.34602835  0.35695738  1  0.025427  0  -0.042452  -0.202841  0  3.974535  0
C  C103  1  0.42644020  0.84601982  0.14304166  1  0.025678  0  -0.042531  -0.20303  0  3.974655  0
C  C104  1  0.58298904  0.70642313  0.66272954  1  -0.066574  0  -0.089765  -0.067898  0  4.045774  0
C  C105  1  0.41701023  0.20643126  0.83726841  1  -0.066778  0  -0.08973  -0.067786  0  4.04516  0
C  C106  1  0.41701266  0.29357994  0.33726899  1  -0.066198  0  -0.089756  -0.067805  0  4.045541  0
C  C107  1  0.58299151  0.79356758  0.16273219  1  -0.066552  0  -0.089778  -0.067905  0  4.045252  0
C  C108  1  0.55402912  0.75538954  0.70823283  1  -0.058469  0  -0.112618  -0.185806  0  4.030914  0
C  C109  1  0.44597536  0.25540034  0.79176669  1  -0.058786  0  -0.112478  -0.185521  0  4.030371  0
C  C110  1  0.44596791  0.24461292  0.29176569  1  -0.058404  0  -0.112637  -0.185915  0  4.030892  0
C  C111  1  0.55402948  0.74459970  0.20823351  1  -0.058827  0  -0.112485  -0.185529  0  4.03036  0
C  C112  1  0.45959217  0.60301003  0.59376206  1  1.517234  0  0.2312  0.658518  0  4.117884  0
C  C113  1  0.54040708  0.10301430  0.90623685  1  1.517352  0  0.231186  0.658419  0  4.118112  0
C  C114  1  0.54041265  0.39699001  0.40623732  1  1.517931  0  0.231262  0.658582  0  4.117768  0
C  C115  1  0.45959153  0.89698393  0.09376291  1  1.517346  0  0.231253  0.65858  0  4.117708  0
C  C116  1  0.99992817  0.21864486  0.96126896  1  1.378898  0  0.193011  0.329218  0  4.090027  0
C  C117  1  0.00004864  0.71863867  0.53872702  1  1.378812  0  0.19315  0.329779  0  4.089911  0
C  C118  1  0.00006261  0.78135277  0.03872830  1  1.378948  0  0.193019  0.329378  0  4.090023  0
C  C119  1  0.99995619  0.28135895  0.46127235  1  1.378555  0  0.193118  0.329711  0  4.089815  0
C  C120  1  0.83793105  0.32748615  0.90896861  1  0.263014  0  -0.12617  -0.279495  0  3.926613  0
C  C121  1  0.16203246  0.82748067  0.59103221  1  0.262739  0  -0.125905  -0.278997  0  3.926342  0
C  C122  1  0.16205984  0.67251026  0.09103441  1  0.26288  0  -0.126261  -0.279686  0  3.926713  0
C  C123  1  0.83796926  0.17252180  0.40896715  1  0.262762  0  -0.125909  -0.27904  0  3.926362  0
C  C124  1  0.67686920  0.27643166  0.99467252  1  0.260866  0  -0.12191  -0.26195  0  3.863302  0
C  C125  1  0.32308941  0.77642311  0.50532301  1  0.260461  0  -0.121877  -0.261592  0  3.863235  0
C  C126  1  0.32312631  0.72356294  0.00532805  1  0.260601  0  -0.121876  -0.261764  0  3.863059  0
C  C127  1  0.67691073  0.22357936  0.49467511  1  0.262472  0  -0.121767  -0.26141  0  3.863253  0
N  N128  1  0.84465771  0.27186657  0.95538248  1  -1.216541  0  -0.275418  0.03265  0  3.715013  0
N  N129  1  0.15531267  0.77185977  0.54461632  1  -1.216072  0  -0.275603  0.032066  0  3.715273  0
N  N130  1  0.15533470  0.72812803  0.04461849  1  -1.216482  0  -0.275408  0.032519  0  3.714789  0
N  N131  1  0.84469372  0.22814208  0.45538389  1  -1.216119  0  -0.275643  0.032104  0  3.71534  0
O  O132  1  0.05721297  0.97676933  0.93968619  1  -1.22262  0  -0.421174  -0.748754  0  2.350722  0
O  O133  1  0.94278910  0.47676958  0.56032110  1  -1.222598  0  -0.421131  -0.748654  0  2.350497  0
O  O134  1  0.94278566  0.02322830  0.06031439  1  -1.222609  0  -0.421145  -0.748733  0  2.350657  0
O  O135  1  0.05721265  0.52323047  0.43967990  1  -1.222527  0  -0.421193  -0.748637  0  2.350347  0
O  O136  1  0.37341347  0.94823763  0.97003155  1  -1.210532  0  -0.473303  -0.76199  0  2.538388  0
O  O137  1  0.62661073  0.44823503  0.52996841  1  -1.210435  0  -0.473352  -0.762084  0  2.538502  0
O  O138  1  0.62658515  0.05175939  0.02996821  1  -1.210598  0  -0.473379  -0.761988  0  2.538282  0
O  O139  1  0.37339880  0.55176441  0.47003263  1  -1.210566  0  -0.473266  -0.762028  0  2.538461  0
O  O140  1  0.61178511  0.61811183  0.56248182  1  -1.193117  0  -0.38694  -0.660654  0  2.270677  0
O  O141  1  0.38820830  0.11811721  0.93751605  1  -1.193278  0  -0.38689  -0.660576  0  2.270646  0
O  O142  1  0.38821973  0.38188882  0.43751838  1  -1.19377  0  -0.386964  -0.660717  0  2.270628  0
O  O143  1  0.61179186  0.88187920  0.06248330  1  -1.193275  0  -0.386901  -0.660631  0  2.270524  0
O  O144  1  0.32643197  0.54592836  0.58508184  1  -1.179433  0  -0.374892  -0.651251  0  2.328322  0
O  O145  1  0.67357134  0.04592962  0.91491666  1  -1.179321  0  -0.374857  -0.651145  0  2.328349  0
O  O146  1  0.67357131  0.45407108  0.41491835  1  -1.179436  0  -0.374944  -0.651256  0  2.328277  0
O  O147  1  0.32642416  0.95406922  0.08508350  1  -1.179294  0  -0.374901  -0.651212  0  2.328177  0
O  O148  1  0.62582073  0.85712533  0.90951760  1  -1.19001  0  -0.480165  -0.691647  0  2.299355  0
O  O149  1  0.37419811  0.35712906  0.59048265  1  -1.18991  0  -0.480144  -0.691633  0  2.299513  0
O  O150  1  0.37417787  0.14287290  0.09048134  1  -1.190029  0  -0.480118  -0.691614  0  2.299164  0
O  O151  1  0.62580674  0.64287098  0.40951796  1  -1.189991  0  -0.480132  -0.691609  0  2.299571  0
O  O152  1  0.07684475  0.60213640  0.65594525  1  -1.15697  0  -0.34784  -0.442994  0  2.283586  0
O  O153  1  0.92316882  0.10213832  0.84406235  1  -1.15666  0  -0.347856  -0.442898  0  2.283651  0
O  O154  1  0.92316008  0.39786304  0.34405413  1  -1.15698  0  -0.347699  -0.442765  0  2.28354  0
O  O155  1  0.07683604  0.89786293  0.15593908  1  -1.156671  0  -0.347901  -0.442966  0  2.283656  0
O  O156  1  0.01781051  0.16959346  0.00039152  1  -1.166923  0  -0.360399  -0.546514  0  2.367256  0
O  O157  1  0.98216299  0.66958865  0.49960400  1  -1.166964  0  -0.360367  -0.546618  0  2.367373  0
O  O158  1  0.98218185  0.83040115  0.99960698  1  -1.166934  0  -0.360387  -0.546472  0  2.367455  0
O  O159  1  0.01784654  0.33041079  0.50039745  1  -1.166768  0  -0.360381  -0.546655  0  2.367123  0
