# generated using pymatgen
data_Cd2H32C37S4N6O11
_symmetry_space_group_name_H-M   'P 1'
_cell_length_a   12.73302788
_cell_length_b   15.99282660
_cell_length_c   22.46247955
_cell_angle_alpha   107.66948531
_cell_angle_beta   89.99946232
_cell_angle_gamma   90.00006253
_symmetry_Int_Tables_number   1
_chemical_formula_structural   Cd2H32C37S4N6O11
_chemical_formula_sum   'Cd8 H128 C148 S16 N24 O44'
_cell_volume   4358.39881231
_cell_formula_units_Z   4
loop_
 _symmetry_equiv_pos_site_id
 _symmetry_equiv_pos_as_xyz
  1  'x, y, z'
loop_
 _atom_site_type_symbol
 _atom_site_label
 _atom_site_symmetry_multiplicity
 _atom_site_fract_x
 _atom_site_fract_y
 _atom_site_fract_z
 _atom_site_occupancy
 _atom_site_pbe_bader_charge
 _atom_site_pbe_bader_spin_density
 _atom_site_pbe_cm5_charge
 _atom_site_pbe_ddec_charge
 _atom_site_pbe_ddec_spin_density
 _atom_site_pbe_ddec_sum_bond_order
 _atom_site_pbe_magmom
Cd  Cd0  1  0.62928760  0.21443763  0.14575156  1  1.324595  0  0.783916  0.997264  0  2.220571  0
Cd  Cd1  1  0.12929128  0.78556300  0.35424998  1  1.324627  0  0.783916  0.997309  0  2.220449  0
Cd  Cd2  1  0.37070734  0.78556128  0.85424584  1  1.324547  0  0.783949  0.997368  0  2.220425  0
Cd  Cd3  1  0.87070444  0.21443729  0.64575216  1  1.324675  0  0.783885  0.997294  0  2.220454  0
Cd  Cd4  1  0.56979924  0.44249181  0.23002854  1  1.32645  0  0.776909  1.040389  0  2.020374  0
Cd  Cd5  1  0.06980323  0.55750951  0.26996946  1  1.326411  0  0.776876  1.040358  0  2.020502  0
Cd  Cd6  1  0.43019727  0.55750711  0.76996930  1  1.326358  0  0.776932  1.040415  0  2.020409  0
Cd  Cd7  1  0.93020036  0.44249006  0.73002808  1  1.326497  0  0.776853  1.040321  0  2.020445  0
H  H8  1  0.69114296  0.34200420  0.09908090  1  0.637419  0  0.282386  0.385547  0  0.957446  0
H  H9  1  0.19114177  0.65799170  0.40091665  1  0.637437  0  0.282358  0.385495  0  0.957538  0
H  H10  1  0.30885670  0.65798749  0.90091454  1  0.637515  0  0.282324  0.385398  0  0.957646  0
H  H11  1  0.80885945  0.34200529  0.59908391  1  0.637433  0  0.282319  0.38546  0  0.95758  0
H  H12  1  0.76011188  0.35329936  0.16390565  1  0.648844  0  0.288886  0.371971  0  0.974892  0
H  H13  1  0.26011176  0.64669909  0.33609429  1  0.648829  0  0.288878  0.371946  0  0.974932  0
H  H14  1  0.23988698  0.64669696  0.83609343  1  0.648799  0  0.288896  0.371938  0  0.974947  0
H  H15  1  0.73988476  0.35329921  0.66390654  1  0.648808  0  0.288878  0.371908  0  0.974974  0
H  H16  1  0.44593269  0.59057686  0.30144716  1  0.640552  0  0.280306  0.370143  0  0.984895  0
H  H17  1  0.94592761  0.40942462  0.19855509  1  0.640501  0  0.280284  0.370163  0  0.98488  0
H  H18  1  0.55406618  0.40942273  0.69855216  1  0.640548  0  0.280293  0.370117  0  0.98494  0
H  H19  1  0.05406733  0.59057633  0.80144807  1  0.640557  0  0.280333  0.370205  0  0.984818  0
H  H20  1  0.53468025  0.58966221  0.34824712  1  0.617978  0  0.282349  0.355539  0  0.993024  0
H  H21  1  0.03467656  0.41034050  0.15175314  1  0.618088  0  0.282356  0.355634  0  0.992905  0
H  H22  1  0.46532019  0.41033671  0.65175117  1  0.617982  0  0.282336  0.355525  0  0.99305  0
H  H23  1  0.96531838  0.58965911  0.84824708  1  0.617962  0  0.28236  0.355568  0  0.992988  0
H  H24  1  0.79599885  0.53795174  0.27671312  1  0.629031  0  0.291736  0.390117  0  0.939102  0
H  H25  1  0.29599798  0.46204727  0.22328318  1  0.629073  0  0.291717  0.390152  0  0.939067  0
H  H26  1  0.20399923  0.46204061  0.72328290  1  0.628946  0  0.291698  0.390147  0  0.939057  0
H  H27  1  0.70399853  0.53795427  0.77671477  1  0.628988  0  0.291739  0.39016  0  0.939046  0
H  H28  1  0.78795610  0.43379384  0.25471109  1  0.65306  0  0.290214  0.384269  0  0.956215  0
H  H29  1  0.28795815  0.56620587  0.24528853  1  0.653061  0  0.290241  0.384255  0  0.956227  0
H  H30  1  0.21204120  0.56620182  0.74528830  1  0.653054  0  0.290249  0.384344  0  0.956113  0
H  H31  1  0.71203837  0.43379504  0.75471152  1  0.653018  0  0.290248  0.384301  0  0.956166  0
H  H32  1  0.33447509  0.14350762  0.10086331  1  0.103471  0  0.11456  0.117201  0  0.988798  0
H  H33  1  0.83447987  0.85648934  0.39913103  1  0.103515  0  0.114578  0.117255  0  0.988708  0
H  H34  1  0.66551828  0.85649057  0.89912949  1  0.103461  0  0.114566  0.117283  0  0.988698  0
H  H35  1  0.16552450  0.14350563  0.60086510  1  0.103495  0  0.114594  0.11723  0  0.988757  0
H  H36  1  0.15088976  0.09190412  0.06974609  1  0.069206  0  0.104528  0.118577  0  1.01674  0
H  H37  1  0.65089566  0.90809833  0.43024771  1  0.069488  0  0.104494  0.118574  0  1.016632  0
H  H38  1  0.84910126  0.90809802  0.93024798  1  0.069506  0  0.1045  0.118569  0  1.016647  0
H  H39  1  0.34911106  0.09190185  0.56974684  1  0.06919  0  0.104569  0.118617  0  1.01661  0
H  H40  1  0.22158429  0.40876663  0.13899509  1  0.12407  0  0.11684  0.092463  0  1.023762  0
H  H41  1  0.72158462  0.59123584  0.36100679  1  0.124023  0  0.116802  0.092418  0  1.023765  0
H  H42  1  0.77840751  0.59123434  0.86100897  1  0.123977  0  0.116843  0.092461  0  1.023832  0
H  H43  1  0.27841424  0.40876376  0.63899298  1  0.124087  0  0.116825  0.092482  0  1.0237  0
H  H44  1  0.96174436  0.29765022  0.99656409  1  0.124756  0  0.100187  0.11438  0  1.032387  0
H  H45  1  0.46174980  0.70235092  0.50344019  1  0.124701  0  0.100198  0.114348  0  1.032426  0
H  H46  1  0.03825843  0.70235071  0.00343774  1  0.124735  0  0.100173  0.114343  0  1.032429  0
H  H47  1  0.53825299  0.29765196  0.49656027  1  0.124789  0  0.100208  0.114377  0  1.032431  0
H  H48  1  0.95120247  0.36765326  0.90967038  1  0.103843  0  0.114341  0.11944  0  0.969796  0
H  H49  1  0.45121030  0.63234263  0.59033197  1  0.103788  0  0.114329  0.119409  0  0.96966  0
H  H50  1  0.04879797  0.63234504  0.09033001  1  0.103788  0  0.114358  0.119427  0  0.969708  0
H  H51  1  0.54878778  0.36765763  0.40966839  1  0.10366  0  0.114312  0.119387  0  0.969558  0
H  H52  1  0.97654849  0.10973516  0.77792560  1  0.115778  0  0.107686  0.07594  0  1.025295  0
H  H53  1  0.47655607  0.89026262  0.72207389  1  0.115829  0  0.107747  0.075981  0  1.025305  0
H  H54  1  0.02344331  0.89026180  0.22207273  1  0.115818  0  0.107696  0.07597  0  1.025147  0
H  H55  1  0.52344437  0.10973831  0.27792749  1  0.115867  0  0.107722  0.075989  0  1.025277  0
H  H56  1  0.04751079  0.34880016  0.25436540  1  0.133791  0  0.106113  0.061983  0  1.075666  0
H  H57  1  0.54751783  0.65120188  0.24563509  1  0.133834  0  0.106089  0.061913  0  1.07575  0
H  H58  1  0.95249671  0.65120471  0.74563680  1  0.133891  0  0.106131  0.061976  0  1.075659  0
H  H59  1  0.45248497  0.34879574  0.75436382  1  0.133912  0  0.106112  0.061937  0  1.075719  0
H  H60  1  0.09082590  0.02973937  0.20439868  1  0.080736  0  0.097858  0.110713  0  1.066265  0
H  H61  1  0.59082469  0.97026454  0.29559931  1  0.080627  0  0.097887  0.110784  0  1.066237  0
H  H62  1  0.90918160  0.97026489  0.79560652  1  0.08067  0  0.09788  0.110828  0  1.066262  0
H  H63  1  0.40917653  0.02973505  0.70439957  1  0.080643  0  0.09788  0.110758  0  1.066252  0
H  H64  1  0.91448482  0.08931593  0.19133615  1  0.104573  0  0.099233  0.096953  0  1.045432  0
H  H65  1  0.41448471  0.91068361  0.30866453  1  0.104529  0  0.099242  0.096986  0  1.045395  0
H  H66  1  0.08552269  0.91068504  0.80866880  1  0.10432  0  0.099237  0.096932  0  1.04539  0
H  H67  1  0.58551494  0.08931665  0.69133582  1  0.104521  0  0.099245  0.097008  0  1.045425  0
H  H68  1  0.28175038  0.82320261  0.20577607  1  0.134052  0  0.103351  0.133097  0  1.027553  0
H  H69  1  0.78174655  0.17680042  0.29422560  1  0.134587  0  0.103372  0.133134  0  1.027481  0
H  H70  1  0.71825241  0.17679696  0.79422146  1  0.134059  0  0.103352  0.133096  0  1.027517  0
H  H71  1  0.21825546  0.82320246  0.70577441  1  0.134137  0  0.103387  0.133148  0  1.027466  0
H  H72  1  0.28929068  0.72408384  0.09418355  1  0.097673  0  0.108635  0.107576  0  0.998009  0
H  H73  1  0.78929142  0.27591594  0.40582052  1  0.097775  0  0.108632  0.107532  0  0.998054  0
H  H74  1  0.71071054  0.27591185  0.90581718  1  0.09779  0  0.108685  0.107638  0  0.997996  0
H  H75  1  0.21071765  0.72408498  0.59418042  1  0.097737  0  0.108642  0.107624  0  0.997956  0
H  H76  1  0.29919628  0.95506436  0.03480838  1  0.0864  0  0.110091  0.085395  0  1.003755  0
H  H77  1  0.79919259  0.04492614  0.46518791  1  0.086174  0  0.110109  0.085385  0  1.003835  0
H  H78  1  0.70080337  0.04492339  0.96518623  1  0.086149  0  0.110104  0.085414  0  1.003734  0
H  H79  1  0.20080393  0.95507408  0.53480932  1  0.086072  0  0.11009  0.085414  0  1.003642  0
H  H80  1  0.78009266  0.06197892  0.08559787  1  0.115701  0  0.111379  0.084452  0  1.0226  0
H  H81  1  0.28008613  0.93802284  0.41440667  1  0.115762  0  0.111352  0.084383  0  1.022774  0
H  H82  1  0.21990621  0.93802402  0.91440706  1  0.115676  0  0.111341  0.084399  0  1.022664  0
H  H83  1  0.71991117  0.06197549  0.58559550  1  0.115811  0  0.111277  0.084272  0  1.022785  0
H  H84  1  0.80224057  0.90006180  0.05953957  1  0.094072  0  0.095802  0.103337  0  1.044368  0
H  H85  1  0.30223640  0.09993790  0.44046085  1  0.0941  0  0.095727  0.103162  0  1.044506  0
H  H86  1  0.19776144  0.09994109  0.94046223  1  0.094225  0  0.095778  0.103358  0  1.044365  0
H  H87  1  0.69777110  0.90005845  0.55954046  1  0.094348  0  0.095785  0.103279  0  1.044433  0
H  H88  1  0.49793990  0.89198517  0.14310150  1  0.093683  0  0.101974  0.114062  0  1.020838  0
H  H89  1  0.99794515  0.10801483  0.35689349  1  0.09419  0  0.101973  0.114044  0  1.020884  0
H  H90  1  0.50205347  0.10801305  0.85689309  1  0.094023  0  0.101978  0.114058  0  1.020894  0
H  H91  1  0.00205843  0.89199077  0.64311421  1  0.094543  0  0.101987  0.114055  0  1.020961  0
H  H92  1  0.48788027  0.05394099  0.16496557  1  0.099754  0  0.111507  0.084181  0  1.022709  0
H  H93  1  0.98788230  0.94605777  0.33503367  1  0.099012  0  0.111499  0.084146  0  1.022681  0
H  H94  1  0.51211074  0.94605595  0.83503142  1  0.099102  0  0.111517  0.084187  0  1.022625  0
H  H95  1  0.01211028  0.05394918  0.66497699  1  0.098936  0  0.111476  0.084082  0  1.02285  0
H  H96  1  0.65517282  0.76185264  0.12204511  1  0.075218  0  0.091433  0.097652  0  1.014597  0
H  H97  1  0.15517694  0.23814854  0.37795196  1  0.075035  0  0.09141  0.097602  0  1.014576  0
H  H98  1  0.34482762  0.23814890  0.87795284  1  0.075215  0  0.091408  0.097612  0  1.014569  0
H  H99  1  0.84483057  0.76185374  0.62205238  1  0.07507  0  0.091342  0.097551  0  1.014653  0
H  H100  1  0.73277312  0.76162684  0.05665101  1  0.050329  0  0.091629  0.095435  0  0.976805  0
H  H101  1  0.23277303  0.23837425  0.44334785  1  0.050278  0  0.091653  0.095457  0  0.976776  0
H  H102  1  0.26722653  0.23837605  0.94335034  1  0.050209  0  0.091636  0.095424  0  0.976788  0
H  H103  1  0.76723291  0.76162998  0.55665601  1  0.050511  0  0.091613  0.095414  0  0.976884  0
H  H104  1  0.56251599  0.76828779  0.99661911  1  0.071248  0  0.092034  0.101273  0  0.999774  0
H  H105  1  0.06251294  0.23171185  0.50337675  1  0.071089  0  0.092003  0.101271  0  0.999667  0
H  H106  1  0.43748837  0.23171305  0.00337602  1  0.071247  0  0.091999  0.10124  0  0.999786  0
H  H107  1  0.93749142  0.76829171  0.49662608  1  0.070846  0  0.091995  0.101274  0  0.999668  0
H  H108  1  0.49118247  0.75873204  0.06139554  1  0.034384  0  0.086307  0.08032  0  1.023798  0
H  H109  1  0.99118184  0.24126797  0.43859949  1  0.034542  0  0.086279  0.080261  0  1.023924  0
H  H110  1  0.50881640  0.24127080  0.93860224  1  0.034385  0  0.086302  0.080306  0  1.023833  0
H  H111  1  0.00882253  0.75873296  0.56140189  1  0.034459  0  0.086274  0.080206  0  1.023972  0
H  H112  1  0.50616810  0.61882928  0.97792503  1  0.065461  0  0.099263  0.112084  0  0.992444  0
H  H113  1  0.00616573  0.38116916  0.52207221  1  0.065477  0  0.099248  0.112071  0  0.992428  0
H  H114  1  0.49383391  0.38117033  0.02207519  1  0.065422  0  0.099244  0.112058  0  0.992427  0
H  H115  1  0.99383628  0.61883375  0.47793048  1  0.065491  0  0.099256  0.112153  0  0.992395  0
H  H116  1  0.64572796  0.62322836  0.98219647  1  0.014985  0  0.091248  0.088355  0  0.994101  0
H  H117  1  0.14572330  0.37677054  0.51780191  1  0.015061  0  0.091294  0.088363  0  0.994062  0
H  H118  1  0.35427641  0.37677194  0.01780656  1  0.014955  0  0.091277  0.088392  0  0.994083  0
H  H119  1  0.85428028  0.62323037  0.48219814  1  0.015149  0  0.091314  0.088395  0  0.994008  0
H  H120  1  0.73985761  0.59498443  0.07219708  1  0.07001  0  0.112941  0.121797  0  0.980557  0
H  H121  1  0.23985564  0.40502057  0.42780123  1  0.070113  0  0.112898  0.121734  0  0.980518  0
H  H122  1  0.26014205  0.40501911  0.92780441  1  0.069851  0  0.112932  0.121798  0  0.980539  0
H  H123  1  0.76014716  0.59498035  0.57219926  1  0.07013  0  0.1129  0.121738  0  0.980547  0
H  H124  1  0.72840474  0.52878255  0.15887557  1  0.092637  0  0.120042  0.092836  0  0.986945  0
H  H125  1  0.22840193  0.47122051  0.34112328  1  0.092584  0  0.120036  0.092815  0  0.986979  0
H  H126  1  0.27159727  0.47121575  0.84112526  1  0.092644  0  0.120032  0.092831  0  0.987055  0
H  H127  1  0.77159851  0.52877973  0.65887573  1  0.092588  0  0.120016  0.092772  0  0.987111  0
H  H128  1  0.40317738  0.52015481  0.14954983  1  0.095177  0  0.114339  0.08358  0  1.017954  0
H  H129  1  0.90317224  0.47984998  0.35045023  1  0.095247  0  0.114321  0.083607  0  1.017853  0
H  H130  1  0.59682463  0.47985005  0.85045149  1  0.095149  0  0.114304  0.083564  0  1.017943  0
H  H131  1  0.09682427  0.52014765  0.64954957  1  0.095161  0  0.114314  0.083641  0  1.01791  0
H  H132  1  0.40116762  0.58841750  0.06313613  1  0.099059  0  0.112319  0.125126  0  0.988885  0
H  H133  1  0.90116253  0.41158602  0.43686634  1  0.099411  0  0.112312  0.125104  0  0.988784  0
H  H134  1  0.59883675  0.41159002  0.93686886  1  0.099383  0  0.112324  0.125095  0  0.988763  0
H  H135  1  0.09883948  0.58841097  0.56313377  1  0.099332  0  0.112308  0.125078  0  0.98881  0
C  C136  1  0.40017093  0.31422527  0.14369681  1  1.606409  0  0.214945  0.600642  0  4.203948  0
C  C137  1  0.90017540  0.68577293  0.35629966  1  1.606574  0  0.215003  0.600788  0  4.203917  0
C  C138  1  0.59982637  0.68577098  0.85629736  1  1.606438  0  0.215099  0.60093  0  4.204023  0
C  C139  1  0.09983054  0.31422865  0.64370141  1  1.606395  0  0.214994  0.600809  0  4.204064  0
C  C140  1  0.29222111  0.28059475  0.12253994  1  0.011581  0  -0.009692  -0.068059  0  3.94688  0
C  C141  1  0.79222606  0.71940363  0.37745759  1  0.011492  0  -0.009787  -0.06821  0  3.946933  0
C  C142  1  0.70777148  0.71940610  0.87745519  1  0.011418  0  -0.00989  -0.068343  0  3.947021  0
C  C143  1  0.20777674  0.28059529  0.62254025  1  0.011583  0  -0.009759  -0.068184  0  3.946877  0
C  C144  1  0.27194953  0.19025371  0.10142933  1  0.0401  0  -0.056434  -0.025557  0  3.910131  0
C  C145  1  0.77195269  0.80974534  0.39856801  1  0.04022  0  -0.056458  -0.025618  0  3.910054  0
C  C146  1  0.72804541  0.80974650  0.89856745  1  0.040278  0  -0.056411  -0.025605  0  3.910013  0
C  C147  1  0.22804697  0.19025225  0.60142912  1  0.039985  0  -0.056447  -0.025576  0  3.909994  0
C  C148  1  0.17029826  0.16150883  0.08418861  1  -0.011357  0  -0.084078  -0.162037  0  3.969772  0
C  C149  1  0.67030196  0.83848968  0.41580603  1  -0.011268  0  -0.08396  -0.161906  0  3.969541  0
C  C150  1  0.82969746  0.83848940  0.91580642  1  -0.01123  0  -0.08394  -0.161888  0  3.969526  0
C  C151  1  0.32970005  0.16150921  0.58418958  1  -0.010913  0  -0.084101  -0.162038  0  3.969642  0
C  C152  1  0.09216761  0.22443513  0.08729922  1  0.393638  0  0.113101  0.18263  0  4.036493  0
C  C153  1  0.59216970  0.77556683  0.41269969  1  0.39362  0  0.113089  0.18256  0  4.036577  0
C  C154  1  0.90782890  0.77556379  0.91269863  1  0.393235  0  0.113135  0.182635  0  4.036611  0
C  C155  1  0.40783074  0.22443342  0.58729933  1  0.393367  0  0.113166  0.182693  0  4.03641  0
C  C156  1  0.20932884  0.33790983  0.12339066  1  0.453594  0  0.045076  0.072336  0  3.938631  0
C  C157  1  0.70932823  0.66208868  0.37660823  1  0.453671  0  0.04515  0.072437  0  3.938531  0
C  C158  1  0.79066375  0.66208780  0.87660915  1  0.45371  0  0.045128  0.072408  0  3.938553  0
C  C159  1  0.29066985  0.33790825  0.62338786  1  0.453632  0  0.045132  0.072378  0  3.938517  0
C  C160  1  0.97249560  0.16691473  0.93033698  1  0.415349  0  0.113225  0.192982  0  4.057249  0
C  C161  1  0.47250013  0.83308439  0.56966459  1  0.415247  0  0.113197  0.192856  0  4.057424  0
C  C162  1  0.02750484  0.83308420  0.06966221  1  0.415411  0  0.113218  0.192933  0  4.057278  0
C  C163  1  0.52750345  0.16691589  0.43033710  1  0.415429  0  0.113284  0.192992  0  4.057209  0
C  C164  1  0.96554824  0.25857840  0.94754765  1  -0.056819  0  -0.094979  -0.180841  0  3.979834  0
C  C165  1  0.46555763  0.74142077  0.55245664  1  -0.056598  0  -0.094989  -0.180837  0  3.979909  0
C  C166  1  0.03445535  0.74141729  0.05245352  1  -0.05659  0  -0.095074  -0.180908  0  3.979858  0
C  C167  1  0.53444673  0.25858343  0.44754499  1  -0.056671  0  -0.095089  -0.180979  0  3.979874  0
C  C168  1  0.95982653  0.29687074  0.89966257  1  -0.047635  0  -0.061315  -0.027486  0  3.935304  0
C  C169  1  0.45983587  0.70312711  0.60034014  1  -0.04768  0  -0.06137  -0.027502  0  3.935127  0
C  C170  1  0.04017391  0.70312692  0.10033901  1  -0.047933  0  -0.061303  -0.027453  0  3.935152  0
C  C171  1  0.54016536  0.29687181  0.39965816  1  -0.048271  0  -0.061348  -0.027455  0  3.935187  0
C  C172  1  0.96305405  0.24365364  0.83743379  1  -0.011355  0  -0.021732  -0.093622  0  3.964207  0
C  C173  1  0.46306322  0.75634682  0.66256856  1  -0.011356  0  -0.021625  -0.093313  0  3.963884  0
C  C174  1  0.03694011  0.75634730  0.16256849  1  -0.01158  0  -0.02168  -0.093362  0  3.964024  0
C  C175  1  0.53693408  0.24365410  0.33743193  1  -0.011163  0  -0.021696  -0.093387  0  3.963997  0
C  C176  1  0.97363051  0.15287741  0.82599833  1  0.518653  0  0.049045  0.088237  0  3.974704  0
C  C177  1  0.47363412  0.84712038  0.67400162  1  0.518508  0  0.048964  0.088123  0  3.974859  0
C  C178  1  0.02636364  0.84712149  0.17399862  1  0.519133  0  0.049043  0.088111  0  3.974798  0
C  C179  1  0.52636397  0.15287663  0.32599983  1  0.518798  0  0.049073  0.088156  0  3.97466  0
C  C180  1  0.95070475  0.27924523  0.78337854  1  1.595276  0  0.20756  0.592869  0  4.22184  0
C  C181  1  0.45071219  0.72075658  0.71662594  1  1.594793  0  0.207552  0.59275  0  4.221735  0
C  C182  1  0.04929098  0.72075768  0.21662415  1  1.595349  0  0.207521  0.592707  0  4.221885  0
C  C183  1  0.54928747  0.27924105  0.28337342  1  1.594755  0  0.20747  0.592566  0  4.221683  0
C  C184  1  0.86250732  0.26162647  0.21378854  1  1.563425  0  0.210016  0.588506  0  4.205479  0
C  C185  1  0.36251207  0.73837715  0.28621683  1  1.563287  0  0.210052  0.588541  0  4.205443  0
C  C186  1  0.13749626  0.73837255  0.78621645  1  1.563693  0  0.210121  0.58855  0  4.205555  0
C  C187  1  0.63748602  0.26162245  0.71378293  1  1.563213  0  0.210073  0.588579  0  4.205348  0
C  C188  1  0.96617227  0.22443709  0.22365607  1  -0.03851  0  -0.033858  -0.126678  0  4.013714  0
C  C189  1  0.46617723  0.77556574  0.27635082  1  -0.038569  0  -0.033898  -0.126651  0  4.013862  0
C  C190  1  0.03383131  0.77556456  0.77634992  1  -0.038779  0  -0.033881  -0.126633  0  4.013648  0
C  C191  1  0.53382400  0.22443453  0.72364998  1  -0.038462  0  -0.033859  -0.126565  0  4.013666  0
C  C192  1  0.05384868  0.27810020  0.24450759  1  0.456891  0  0.042539  0.093926  0  3.968539  0
C  C193  1  0.55385093  0.72190053  0.25549304  1  0.456705  0  0.042528  0.093948  0  3.968604  0
C  C194  1  0.94615491  0.72190403  0.75549537  1  0.456914  0  0.04251  0.093841  0  3.968615  0
C  C195  1  0.44614951  0.27809710  0.74450587  1  0.456695  0  0.042512  0.093911  0  3.968575  0
C  C196  1  0.15889513  0.16054643  0.24071380  1  0.366914  0  0.117978  0.19537  0  4.050439  0
C  C197  1  0.65889591  0.83945605  0.25928308  1  0.366752  0  0.117953  0.195408  0  4.050348  0
C  C198  1  0.84111395  0.83945841  0.75928663  1  0.367158  0  0.117981  0.195451  0  4.050563  0
C  C199  1  0.34110689  0.16054289  0.74071611  1  0.366641  0  0.117978  0.195442  0  4.050226  0
C  C200  1  0.07779124  0.10019986  0.21742024  1  -0.024076  0  -0.09461  -0.174804  0  3.96664  0
C  C201  1  0.57779093  0.89980534  0.28257542  1  -0.023855  0  -0.094628  -0.174825  0  3.966481  0
C  C202  1  0.92221863  0.89980566  0.78258256  1  -0.02397  0  -0.09466  -0.175037  0  3.966775  0
C  C203  1  0.42220951  0.10019556  0.71742329  1  -0.023776  0  -0.094634  -0.174858  0  3.966699  0
C  C204  1  0.97993339  0.13346399  0.20962917  1  0.070752  0  -0.068329  -0.037117  0  3.969803  0
C  C205  1  0.47993745  0.86653547  0.29037203  1  0.070863  0  -0.068409  -0.037295  0  3.969928  0
C  C206  1  0.02007412  0.86653765  0.79037592  1  0.070686  0  -0.068348  -0.037092  0  3.969552  0
C  C207  1  0.52006456  0.13346280  0.70962612  1  0.070674  0  -0.068367  -0.037265  0  3.96987  0
C  C208  1  0.28758042  0.94066146  0.17642763  1  0.343185  0  0.114773  0.190347  0  4.060119  0
C  C209  1  0.78758459  0.05934088  0.32357253  1  0.34255  0  0.11472  0.190297  0  4.060099  0
C  C210  1  0.71241687  0.05933810  0.82356946  1  0.342349  0  0.114737  0.190315  0  4.059979  0
C  C211  1  0.21241664  0.94066199  0.67642748  1  0.342795  0  0.11479  0.190319  0  4.060081  0
C  C212  1  0.28691053  0.84947018  0.16634496  1  0.015463  0  -0.097285  -0.180848  0  3.947255  0
C  C213  1  0.78690994  0.15053283  0.33365668  1  0.015119  0  -0.097298  -0.180897  0  3.947235  0
C  C214  1  0.71308755  0.15052810  0.83365453  1  0.016079  0  -0.09727  -0.180856  0  3.94727  0
C  C215  1  0.21309207  0.84946938  0.66634319  1  0.015869  0  -0.097374  -0.180916  0  3.947212  0
C  C216  1  0.29067287  0.79526517  0.10497171  1  -0.060743  0  -0.066479  -0.040343  0  3.971459  0
C  C217  1  0.79067370  0.20473526  0.39503204  1  -0.060721  0  -0.066482  -0.040191  0  3.971288  0
C  C218  1  0.70932285  0.20473116  0.89502826  1  -0.060966  0  -0.06657  -0.040373  0  3.971375  0
C  C219  1  0.20932517  0.79526764  0.60496931  1  -0.060938  0  -0.06652  -0.040385  0  3.971329  0
C  C220  1  0.29523545  0.83263028  0.05613753  1  0.021161  0  -0.025871  -0.104995  0  3.98768  0
C  C221  1  0.79524406  0.16736682  0.44386328  1  0.021094  0  -0.025872  -0.105127  0  3.987764  0
C  C222  1  0.70475320  0.16736013  0.94386031  1  0.021395  0  -0.025914  -0.105172  0  3.98775  0
C  C223  1  0.20475952  0.83263475  0.55613691  1  0.02129  0  -0.025844  -0.105017  0  3.98749  0
C  C224  1  0.29555267  0.92436369  0.07200671  1  0.491388  0  0.047951  0.088166  0  3.961527  0
C  C225  1  0.79555042  0.07563342  0.42799409  1  0.491511  0  0.047992  0.088293  0  3.961643  0
C  C226  1  0.70444070  0.07563063  0.92798972  1  0.491516  0  0.048066  0.088294  0  3.961813  0
C  C227  1  0.20444531  0.92437143  0.57200678  1  0.49156  0  0.048039  0.088272  0  3.961203  0
C  C228  1  0.29957389  0.77856150  0.98866142  1  1.550049  0  0.20254  0.578568  0  4.226042  0
C  C229  1  0.79958186  0.22143131  0.51133842  1  1.549959  0  0.202686  0.578798  0  4.225564  0
C  C230  1  0.70041476  0.22142829  0.01133852  1  1.550086  0  0.202742  0.578827  0  4.22573  0
C  C231  1  0.20041936  0.77856959  0.48866073  1  1.549916  0  0.202631  0.578625  0  4.225757  0
C  C232  1  0.71952642  0.02160687  0.09747721  1  0.512355  0  0.041989  0.102283  0  3.964902  0
C  C233  1  0.21952564  0.97839294  0.40252234  1  0.512241  0  0.041915  0.102199  0  3.965183  0
C  C234  1  0.28047009  0.97839470  0.90252342  1  0.512449  0  0.041946  0.1023  0  3.964925  0
C  C235  1  0.78047715  0.02160471  0.59747880  1  0.512357  0  0.042075  0.102469  0  3.965087  0
C  C236  1  0.73095963  0.93127430  0.08297372  1  -0.095129  0  -0.092088  -0.191954  0  3.949709  0
C  C237  1  0.23095659  0.06872482  0.41702429  1  -0.095007  0  -0.091987  -0.191652  0  3.949856  0
C  C238  1  0.26903924  0.06872857  0.91702584  1  -0.095259  0  -0.092047  -0.192019  0  3.949741  0
C  C239  1  0.76904699  0.93127353  0.58298011  1  -0.095215  0  -0.092061  -0.191876  0  3.949835  0
C  C240  1  0.65084969  0.88146885  0.09827611  1  -0.016969  0  0.013844  0.173535  0  3.944272  0
C  C241  1  0.15085169  0.11853232  0.40171920  1  -0.017163  0  0.013941  0.173496  0  3.944476  0
C  C242  1  0.34914761  0.11853596  0.90172208  1  -0.017437  0  0.013921  0.173557  0  3.944331  0
C  C243  1  0.84915268  0.88146731  0.59828236  1  -0.017125  0  0.013899  0.173536  0  3.9446  0
C  C244  1  0.56257353  0.92676807  0.12928029  1  -0.01577  0  -0.088497  -0.181177  0  3.930594  0
C  C245  1  0.06257676  0.07323257  0.37071538  1  -0.016235  0  -0.088584  -0.181192  0  3.930791  0
C  C246  1  0.43742142  0.07323279  0.87071618  1  -0.015735  0  -0.088585  -0.181193  0  3.930729  0
C  C247  1  0.93742682  0.92677035  0.62928821  1  -0.016667  0  -0.088624  -0.18134  0  3.931031  0
C  C248  1  0.55647763  0.01723027  0.14190057  1  0.47487  0  0.04163  0.091233  0  3.970858  0
C  C249  1  0.05647838  0.98277171  0.35809630  1  0.47555  0  0.041667  0.091333  0  3.970793  0
C  C250  1  0.44351338  0.98277125  0.85809604  1  0.475545  0  0.041795  0.091369  0  3.970807  0
C  C251  1  0.94351892  0.01723385  0.64190872  1  0.475678  0  0.041802  0.091516  0  3.971035  0
C  C252  1  0.65698579  0.78330589  0.07983070  1  -0.075481  0  -0.163087  -0.209191  0  3.951782  0
C  C253  1  0.15698683  0.21669399  0.42016653  1  -0.075325  0  -0.163056  -0.209068  0  3.951707  0
C  C254  1  0.34301151  0.21669763  0.92016855  1  -0.075474  0  -0.163038  -0.209072  0  3.951744  0
C  C255  1  0.84301832  0.78330764  0.57983767  1  -0.075599  0  -0.162857  -0.208883  0  3.951875  0
C  C256  1  0.56595750  0.74149284  0.03621390  1  -0.048241  0  -0.162442  -0.127748  0  3.895016  0
C  C257  1  0.06595473  0.25850781  0.46378220  1  -0.048193  0  -0.162547  -0.127996  0  3.8951  0
C  C258  1  0.43404137  0.25850804  0.96378347  1  -0.048174  0  -0.162495  -0.127828  0  3.895172  0
C  C259  1  0.93404806  0.74149642  0.53622076  1  -0.047374  0  -0.16257  -0.127958  0  3.895194  0
C  C260  1  0.57302117  0.64114891  0.00963487  1  0.021204  0  -0.161641  -0.212878  0  3.957939  0
C  C261  1  0.07301967  0.35885240  0.49036266  1  0.021188  0  -0.161573  -0.212613  0  3.957641  0
C  C262  1  0.42697849  0.35885136  0.99036593  1  0.021209  0  -0.161601  -0.212793  0  3.957877  0
C  C263  1  0.92698391  0.64115442  0.50963907  1  0.020575  0  -0.161576  -0.212711  0  3.957761  0
C  C264  1  0.57084371  0.59767418  0.06009412  1  -0.061189  0  0.01845  0.177289  0  3.936025  0
C  C265  1  0.07083604  0.40232779  0.43990356  1  -0.060894  0  0.018402  0.177186  0  3.93599  0
C  C266  1  0.42915987  0.40233068  0.93990764  1  -0.060759  0  0.018408  0.17711  0  3.936015  0
C  C267  1  0.92916362  0.59767179  0.56009442  1  -0.060994  0  0.018372  0.177126  0  3.935951  0
C  C268  1  0.66314987  0.57979299  0.08792835  1  -0.00332  0  -0.079488  -0.180922  0  3.926512  0
C  C269  1  0.16314425  0.42021281  0.41207231  1  -0.004124  0  -0.079455  -0.180949  0  3.926311  0
C  C270  1  0.33685371  0.42021386  0.91207516  1  -0.003853  0  -0.079467  -0.180866  0  3.92642  0
C  C271  1  0.83685619  0.57978745  0.58792759  1  -0.003978  0  -0.079437  -0.180917  0  3.92631  0
C  C272  1  0.65758674  0.54275921  0.13635609  1  0.491536  0  0.052787  0.11776  0  3.951419  0
C  C273  1  0.15758669  0.45724460  0.36364196  1  0.491998  0  0.052836  0.117915  0  3.951034  0
C  C274  1  0.34241370  0.45723906  0.86364206  1  0.49161  0  0.052692  0.117669  0  3.951178  0
C  C275  1  0.84241218  0.54275500  0.63635825  1  0.49193  0  0.052847  0.117974  0  3.951107  0
C  C276  1  0.47614997  0.53867158  0.13146891  1  0.503524  0  0.042789  0.094682  0  3.975985  0
C  C277  1  0.97614451  0.46132983  0.36853094  1  0.503257  0  0.042846  0.094685  0  3.976033  0
C  C278  1  0.52385518  0.46132802  0.86853041  1  0.503399  0  0.042871  0.094732  0  3.97603  0
C  C279  1  0.02385593  0.53866847  0.63146945  1  0.50335  0  0.042869  0.094703  0  3.976105  0
C  C280  1  0.47553703  0.57658600  0.08341508  1  -0.042557  0  -0.082565  -0.186033  0  3.928174  0
C  C281  1  0.97552993  0.42342066  0.41658588  1  -0.042761  0  -0.08266  -0.18608  0  3.92819  0
C  C282  1  0.52446498  0.42342280  0.91658795  1  -0.042874  0  -0.082649  -0.185985  0  3.928098  0
C  C283  1  0.02446815  0.57657828  0.58341331  1  -0.042617  0  -0.082646  -0.186047  0  3.9282  0
S  S284  1  0.97214014  0.10323561  0.98295639  1  0.084015  0  0.047336  -0.016626  0  2.81565  0
S  S285  1  0.47214955  0.89676488  0.51704859  1  0.084045  0  0.047337  -0.01661  0  2.815837  0
S  S286  1  0.02785716  0.89676467  0.01704531  1  0.084151  0  0.047391  -0.016555  0  2.815715  0
S  S287  1  0.52786267  0.10323608  0.48295458  1  0.084057  0  0.047327  -0.016616  0  2.8157  0
S  S288  1  0.95834899  0.19322701  0.06899175  1  0.067912  0  0.04929  0.010261  0  2.825128  0
S  S289  1  0.45834830  0.80677969  0.43101064  1  0.068074  0  0.04929  0.010277  0  2.825052  0
S  S290  1  0.04165145  0.80677456  0.93100843  1  0.067953  0  0.049269  0.010212  0  2.825071  0
S  S291  1  0.54165528  0.19322844  0.56899092  1  0.067879  0  0.049296  0.010244  0  2.824975  0
S  S292  1  0.27968235  0.00685371  0.25600879  1  0.050876  0  0.055751  0.001087  0  2.851692  0
S  S293  1  0.77968045  0.99315319  0.24398926  1  0.051146  0  0.055757  0.001115  0  2.851719  0
S  S294  1  0.72031809  0.99314453  0.74398713  1  0.05107  0  0.055698  0.001035  0  2.851611  0
S  S295  1  0.22031371  0.00684967  0.75600986  1  0.050896  0  0.055742  0.001098  0  2.85175  0
S  S296  1  0.28935572  0.13248033  0.25409988  1  0.120041  0  0.066858  0.026941  0  2.849759  0
S  S297  1  0.78935440  0.86752718  0.24589601  1  0.120216  0  0.066854  0.026916  0  2.849869  0
S  S298  1  0.71065415  0.86751729  0.74589858  1  0.119964  0  0.066868  0.026944  0  2.84983  0
S  S299  1  0.21064447  0.13247699  0.75410338  1  0.120201  0  0.066841  0.026886  0  2.849763  0
N  N300  1  0.11096587  0.31115385  0.10590054  1  -1.214131  0  -0.315315  -0.298607  0  3.393274  0
N  N301  1  0.61096737  0.68884944  0.39410210  1  -1.214459  0  -0.315324  -0.29857  0  3.393346  0
N  N302  1  0.88902436  0.68884714  0.89410530  1  -1.214033  0  -0.315366  -0.298585  0  3.393391  0
N  N303  1  0.38903386  0.31115277  0.60589688  1  -1.21419  0  -0.315395  -0.29864  0  3.393266  0
N  N304  1  0.97787969  0.11463574  0.87121256  1  -1.212485  0  -0.323268  -0.292554  0  3.340343  0
N  N305  1  0.47788567  0.88536337  0.62878854  1  -1.212431  0  -0.323296  -0.292596  0  3.340535  0
N  N306  1  0.02211682  0.88536384  0.12878632  1  -1.212795  0  -0.323322  -0.292608  0  3.34058  0
N  N307  1  0.52211791  0.11463430  0.37121394  1  -1.212289  0  -0.323328  -0.292594  0  3.340497  0
N  N308  1  0.14822676  0.24774406  0.25397521  1  -1.187629  0  -0.329902  -0.304714  0  3.327104  0
N  N309  1  0.64822686  0.75225974  0.24602111  1  -1.187374  0  -0.329849  -0.304705  0  3.327117  0
N  N310  1  0.85178075  0.75226079  0.74602611  1  -1.187384  0  -0.329863  -0.304658  0  3.327148  0
N  N311  1  0.35177201  0.24773982  0.75397553  1  -1.18735  0  -0.329913  -0.304751  0  3.326982  0
N  N312  1  0.29160029  0.97807184  0.13085963  1  -1.192965  0  -0.325299  -0.314534  0  3.388762  0
N  N313  1  0.79159423  0.02192588  0.36913821  1  -1.192855  0  -0.325258  -0.314569  0  3.388614  0
N  N314  1  0.70839779  0.02192380  0.86913752  1  -1.192972  0  -0.325306  -0.314552  0  3.388661  0
N  N315  1  0.20839914  0.97807503  0.63086228  1  -1.192969  0  -0.325291  -0.314515  0  3.388605  0
N  N316  1  0.63321367  0.06405593  0.12583574  1  -1.236259  0  -0.337557  -0.255228  0  3.520854  0
N  N317  1  0.13320781  0.93594533  0.37416458  1  -1.236107  0  -0.337459  -0.255153  0  3.52063  0
N  N318  1  0.36678598  0.93594498  0.87416386  1  -1.236187  0  -0.337622  -0.255295  0  3.520823  0
N  N319  1  0.86678635  0.06405695  0.62583976  1  -1.236372  0  -0.337604  -0.255284  0  3.520877  0
N  N320  1  0.56565869  0.52185807  0.15782903  1  -1.22902  0  -0.335537  -0.276115  0  3.527858  0
N  N321  1  0.06565274  0.47814195  0.34216916  1  -1.229107  0  -0.335454  -0.276076  0  3.527622  0
N  N322  1  0.43434724  0.47814083  0.84216747  1  -1.228766  0  -0.335368  -0.275971  0  3.52738  0
N  N323  1  0.93434613  0.52185700  0.65783136  1  -1.229174  0  -0.335491  -0.276159  0  3.527746  0
O  O324  1  0.40593357  0.38590387  0.18923566  1  -1.170875  0  -0.319142  -0.584522  0  2.260617  0
O  O325  1  0.90593791  0.61410022  0.31076157  1  -1.171096  0  -0.319139  -0.584578  0  2.260876  0
O  O326  1  0.59406295  0.61410091  0.81075985  1  -1.170985  0  -0.319188  -0.584655  0  2.261005  0
O  O327  1  0.09406960  0.38590005  0.68923968  1  -1.170974  0  -0.319142  -0.584603  0  2.260934  0
O  O328  1  0.47591510  0.26955146  0.11438470  1  -1.17871  0  -0.320855  -0.554233  0  2.278056  0
O  O329  1  0.97591837  0.73044666  0.38561402  1  -1.178705  0  -0.320888  -0.554296  0  2.277914  0
O  O330  1  0.52407591  0.73044220  0.88561159  1  -1.178727  0  -0.320938  -0.554394  0  2.278023  0
O  O331  1  0.02408443  0.26955168  0.61438905  1  -1.178641  0  -0.320867  -0.5543  0  2.278008  0
O  O332  1  0.91896441  0.35817319  0.79484970  1  -1.155547  0  -0.332886  -0.559377  0  2.230135  0
O  O333  1  0.41896644  0.64183061  0.70515314  1  -1.155338  0  -0.332881  -0.559385  0  2.230109  0
O  O334  1  0.08103288  0.64182971  0.20515209  1  -1.155432  0  -0.332859  -0.559347  0  2.230104  0
O  O335  1  0.58102693  0.35816766  0.29484546  1  -1.155455  0  -0.332838  -0.559317  0  2.2301  0
O  O336  1  0.97102318  0.22575712  0.72992311  1  -1.178034  0  -0.334897  -0.580879  0  2.34284  0
O  O337  1  0.47102510  0.77424465  0.77008037  1  -1.17778  0  -0.334888  -0.580794  0  2.342844  0
O  O338  1  0.02897569  0.77424316  0.27007859  1  -1.178226  0  -0.334884  -0.580797  0  2.342956  0
O  O339  1  0.52897613  0.22575428  0.22991882  1  -1.177714  0  -0.33485  -0.580663  0  2.342733  0
O  O340  1  0.78335886  0.21182246  0.20525754  1  -1.179821  0  -0.316003  -0.55019  0  2.279722  0
O  O341  1  0.28336118  0.78818120  0.29474293  1  -1.179769  0  -0.316004  -0.550204  0  2.279614  0
O  O342  1  0.21664158  0.78817647  0.79474164  1  -1.179872  0  -0.316056  -0.550238  0  2.279925  0
O  O343  1  0.71664083  0.21181845  0.70525997  1  -1.179711  0  -0.316032  -0.550213  0  2.27949  0
O  O344  1  0.85955286  0.34228525  0.21347112  1  -1.212151  0  -0.319549  -0.585759  0  2.295555  0
O  O345  1  0.35955592  0.65771962  0.28653008  1  -1.212059  0  -0.319491  -0.585629  0  2.295574  0
O  O346  1  0.14045151  0.65771505  0.78653191  1  -1.212227  0  -0.319598  -0.585731  0  2.295495  0
O  O347  1  0.64044373  0.34227930  0.71346821  1  -1.212037  0  -0.319476  -0.585665  0  2.295597  0
O  O348  1  0.29447255  0.82283614  0.94993640  1  -1.179162  0  -0.341178  -0.597014  0  2.347981  0
O  O349  1  0.79447668  0.17716391  0.55006587  1  -1.17933  0  -0.341264  -0.597095  0  2.347869  0
O  O350  1  0.70551375  0.17715826  0.05006539  1  -1.179391  0  -0.341296  -0.597114  0  2.347894  0
O  O351  1  0.20552455  0.82283962  0.44993427  1  -1.179404  0  -0.341241  -0.59705  0  2.348017  0
O  O352  1  0.30775661  0.69567422  0.97458275  1  -1.130599  0  -0.327032  -0.545599  0  2.121253  0
O  O353  1  0.80775818  0.30432317  0.52541800  1  -1.130369  0  -0.32709  -0.545704  0  2.120976  0
O  O354  1  0.69224697  0.30431224  0.02541337  1  -1.130352  0  -0.327044  -0.54563  0  2.121191  0
O  O355  1  0.19224540  0.69567775  0.47458294  1  -1.13032  0  -0.327051  -0.545621  0  2.121003  0
O  O356  1  0.68816763  0.35537521  0.14707516  1  -1.272722  0  -0.582907  -0.800757  0  2.264241  0
O  O357  1  0.18816486  0.64462137  0.35292388  1  -1.272756  0  -0.582876  -0.800675  0  2.2642  0
O  O358  1  0.31183438  0.64461846  0.85292203  1  -1.272655  0  -0.582854  -0.800555  0  2.264207  0
O  O359  1  0.81183322  0.35537759  0.64707709  1  -1.272716  0  -0.582841  -0.80059  0  2.264228  0
O  O360  1  0.49326694  0.54899406  0.31406601  1  -1.253  0  -0.600232  -0.762579  0  2.064789  0
O  O361  1  0.99326527  0.45100408  0.18593573  1  -1.253009  0  -0.60022  -0.762681  0  2.064742  0
O  O362  1  0.50673350  0.45100357  0.68593290  1  -1.252947  0  -0.600217  -0.762555  0  2.064802  0
O  O363  1  0.00673282  0.54899359  0.81406630  1  -1.253003  0  -0.600269  -0.762659  0  2.064706  0
O  O364  1  0.74607516  0.48833789  0.26977124  1  -1.276021  0  -0.595808  -0.781624  0  2.054589  0
O  O365  1  0.24607581  0.51166189  0.23022906  1  -1.276047  0  -0.595815  -0.781677  0  2.054551  0
O  O366  1  0.25392214  0.51165908  0.73022753  1  -1.275992  0  -0.595801  -0.78175  0  2.054494  0
O  O367  1  0.75392148  0.48833770  0.76977071  1  -1.275921  0  -0.595849  -0.781717  0  2.054466  0
