# generated using pymatgen
data_Zn2H14C24Br4N4O9
_symmetry_space_group_name_H-M   'P 1'
_cell_length_a   11.35980379
_cell_length_b   11.35980214
_cell_length_c   14.66912599
_cell_angle_alpha   109.49899873
_cell_angle_beta   109.49914750
_cell_angle_gamma   97.76945377
_symmetry_Int_Tables_number   1
_chemical_formula_structural   Zn2H14C24Br4N4O9
_chemical_formula_sum   'Zn4 H28 C48 Br8 N8 O18'
_cell_volume   1615.99498378
_cell_formula_units_Z   2
loop_
 _symmetry_equiv_pos_site_id
 _symmetry_equiv_pos_as_xyz
  1  'x, y, z'
loop_
 _atom_site_type_symbol
 _atom_site_label
 _atom_site_symmetry_multiplicity
 _atom_site_fract_x
 _atom_site_fract_y
 _atom_site_fract_z
 _atom_site_occupancy
 _atom_site_pbe_bader_charge
 _atom_site_pbe_bader_spin_density
 _atom_site_pbe_cm5_charge
 _atom_site_pbe_ddec_charge
 _atom_site_pbe_ddec_spin_density
 _atom_site_pbe_ddec_sum_bond_order
 _atom_site_pbe_magmom
Zn  Zn0  1  0.73586490  0.99892112  0.71350776  1  1.329175  0  0.684844  0.857983  0  2.248507  0
Zn  Zn1  1  0.00107698  0.26413328  0.78649084  1  1.329268  0  0.684859  0.858043  0  2.248521  0
Zn  Zn2  1  0.26413300  0.00107692  0.28649144  1  1.329252  0  0.684851  0.858022  0  2.248497  0
Zn  Zn3  1  0.99892171  0.73586531  0.21350623  1  1.329294  0  0.684884  0.8581  0  2.248447  0
H  H4  1  0.94425221  0.99900626  0.68284441  1  0.652891  0  0.28345  0.374448  0  0.98186  0
H  H5  1  0.00099241  0.05574359  0.81715273  1  0.652893  0  0.283447  0.374467  0  0.98184  0
H  H6  1  0.05574861  0.00099307  0.31715676  1  0.652887  0  0.28349  0.374542  0  0.981732  0
H  H7  1  0.99900924  0.94425703  0.18284731  1  0.652896  0  0.283438  0.374463  0  0.981844  0
H  H8  1  0.83786635  0.96279882  0.91709825  1  0.172595  0  0.119047  0.099316  0  1.040773  0
H  H9  1  0.03720437  0.16213724  0.58290344  1  0.172753  0  0.11903  0.099297  0  1.040709  0
H  H10  1  0.16213604  0.03720045  0.08290352  1  0.172699  0  0.119053  0.099322  0  1.040752  0
H  H11  1  0.96279884  0.83786680  0.41709816  1  0.172611  0  0.119045  0.099304  0  1.040787  0
H  H12  1  0.65209367  0.69556181  0.60495340  1  0.145065  0  0.111833  0.096868  0  1.02551  0
H  H13  1  0.30443487  0.34790959  0.89505069  1  0.144938  0  0.111797  0.096791  0  1.025494  0
H  H14  1  0.34790897  0.30443677  0.39504861  1  0.145032  0  0.111823  0.096861  0  1.025478  0
H  H15  1  0.69556882  0.65209306  0.10495140  1  0.145157  0  0.111826  0.096809  0  1.025504  0
H  H16  1  0.75068010  0.55517271  0.85431765  1  0.138401  0  0.107151  0.124795  0  1.017084  0
H  H17  1  0.44483313  0.24932639  0.64569291  1  0.138599  0  0.107106  0.124783  0  1.01692  0
H  H18  1  0.24931990  0.44482534  0.14568464  1  0.138437  0  0.107142  0.124778  0  1.017038  0
H  H19  1  0.55516831  0.75067564  0.35430789  1  0.138618  0  0.10712  0.124764  0  1.016945  0
H  H20  1  0.15640809  0.87836407  0.57541057  1  0.118846  0  0.113202  0.134496  0  0.998992  0
H  H21  1  0.12163589  0.84359049  0.92459022  1  0.118819  0  0.113213  0.134535  0  0.998951  0
H  H22  1  0.84358949  0.12163668  0.42458734  1  0.118884  0  0.113191  0.134502  0  0.998991  0
H  H23  1  0.87836114  0.15640902  0.07541006  1  0.118819  0  0.113203  0.134495  0  0.998974  0
H  H24  1  0.54683932  0.01677959  0.82170465  1  0.163613  0  0.118458  0.105245  0  1.006367  0
H  H25  1  0.98321993  0.45316037  0.67829383  1  0.16358  0  0.118449  0.105249  0  1.006375  0
H  H26  1  0.45315735  0.98322118  0.17829234  1  0.163551  0  0.118455  0.105241  0  1.006386  0
H  H27  1  0.01677526  0.54683917  0.32170461  1  0.163606  0  0.118459  0.105244  0  1.006409  0
H  H28  1  0.49999655  0.88746900  0.50902643  1  0.151017  0  0.118082  0.099384  0  1.03095  0
H  H29  1  0.11253042  0.50000010  0.99097207  1  0.150983  0  0.118091  0.099419  0  1.030959  0
H  H30  1  0.50000060  0.11253038  0.49097105  1  0.151022  0  0.118091  0.099395  0  1.030994  0
H  H31  1  0.88746922  0.49999920  0.00902693  1  0.150996  0  0.118085  0.099397  0  1.030963  0
C  C32  1  0.79928209  0.76340284  0.90034229  1  0.000928  0  -0.012148  -0.059607  0  3.94833  0
C  C33  1  0.23660037  0.20072182  0.59966233  1  0.001624  0  -0.012163  -0.059587  0  3.94836  0
C  C34  1  0.20072075  0.23659780  0.09965992  1  0.001278  0  -0.012195  -0.059651  0  3.948332  0
C  C35  1  0.76340113  0.79927819  0.40033952  1  0.001476  0  -0.012177  -0.059581  0  3.948324  0
C  C36  1  0.79663291  0.86115252  0.86261801  1  0.456833  0  0.053822  0.083632  0  3.88136  0
C  C37  1  0.13885026  0.20337035  0.63738560  1  0.456768  0  0.053805  0.083612  0  3.881429  0
C  C38  1  0.20336992  0.13884812  0.13738421  1  0.456815  0  0.053814  0.08365  0  3.881368  0
C  C39  1  0.86115299  0.79663093  0.36261604  1  0.456843  0  0.053781  0.083588  0  3.881447  0
C  C40  1  0.69281838  0.71184857  0.68820326  1  0.53355  0  0.038646  0.029896  0  3.956432  0
C  C41  1  0.28814998  0.30718620  0.81180198  1  0.534095  0  0.03873  0.030087  0  3.956193  0
C  C42  1  0.30718377  0.28815139  0.31179827  1  0.533542  0  0.038607  0.029834  0  3.956426  0
C  C43  1  0.71185371  0.69281646  0.18820010  1  0.533954  0  0.038698  0.03011  0  3.956157  0
C  C44  1  0.69442385  0.60925668  0.72032800  1  -0.145536  0  -0.015213  0.057812  0  3.977428  0
C  C45  1  0.39074391  0.30558037  0.77967794  1  -0.146178  0  -0.015283  0.05764  0  3.977658  0
C  C46  1  0.30557766  0.39074333  0.27967385  1  -0.145566  0  -0.015165  0.057863  0  3.97753  0
C  C47  1  0.60926067  0.69442154  0.22032406  1  -0.146156  0  -0.015291  0.057589  0  3.977561  0
C  C48  1  0.74782023  0.63371779  0.82747396  1  0.052101  0  -0.067817  -0.101648  0  3.923334  0
C  C49  1  0.36628581  0.25218447  0.67253440  1  0.052166  0  -0.067767  -0.101643  0  3.923291  0
C  C50  1  0.25218038  0.36628297  0.17252797  1  0.052118  0  -0.067818  -0.101643  0  3.923387  0
C  C51  1  0.63371812  0.74781750  0.32746793  1  0.052043  0  -0.067758  -0.101587  0  3.92324  0
C  C52  1  0.86176176  0.80213321  0.01811228  1  1.597001  0  0.206624  0.571763  0  4.202588  0
C  C53  1  0.19787407  0.13824177  0.48189310  1  1.596209  0  0.2066  0.571725  0  4.202883  0
C  C54  1  0.13824168  0.19786592  0.98188760  1  1.596498  0  0.206701  0.571905  0  4.202355  0
C  C55  1  0.80212744  0.86175825  0.51810875  1  1.596425  0  0.206542  0.571695  0  4.202731  0
C  C56  1  0.31749178  0.87478596  0.52712085  1  -0.030579  0  -0.011668  -0.058076  0  3.939904  0
C  C57  1  0.12521212  0.68250641  0.97287723  1  -0.030585  0  -0.011647  -0.057933  0  3.939895  0
C  C58  1  0.68250718  0.12521267  0.47287746  1  -0.030557  0  -0.011666  -0.058013  0  3.939946  0
C  C59  1  0.87478396  0.31749238  0.02712113  1  -0.030565  0  -0.011668  -0.05807  0  3.939961  0
C  C60  1  0.26149982  0.89739014  0.60089523  1  0.015462  0  -0.066294  -0.1029  0  3.90158  0
C  C61  1  0.10260943  0.73849858  0.89910461  1  0.015596  0  -0.066328  -0.103049  0  3.901615  0
C  C62  1  0.73849777  0.10261062  0.39910268  1  0.015551  0  -0.066279  -0.102948  0  3.901517  0
C  C63  1  0.89738736  0.26150162  0.10089543  1  0.015538  0  -0.066304  -0.102935  0  3.901537  0
C  C64  1  0.34505477  0.95051475  0.70814350  1  -0.094138  0  -0.016676  0.055154  0  3.984657  0
C  C65  1  0.04948397  0.65494451  0.79185638  1  -0.094146  0  -0.016638  0.055236  0  3.984592  0
C  C66  1  0.65494325  0.04948738  0.29185485  1  -0.094601  0  -0.016633  0.055282  0  3.984509  0
C  C67  1  0.95051190  0.34505570  0.20814273  1  -0.094111  0  -0.016624  0.055292  0  3.984456  0
C  C68  1  0.47906330  0.97424730  0.73875967  1  0.504011  0  0.040452  0.028531  0  3.92686  0
C  C69  1  0.02575035  0.52093573  0.76123831  1  0.504269  0  0.040449  0.028465  0  3.926918  0
C  C70  1  0.52093425  0.02575273  0.26123725  1  0.504444  0  0.040427  0.02844  0  3.926903  0
C  C71  1  0.97424443  0.47906317  0.23876069  1  0.504096  0  0.040449  0.028476  0  3.926906  0
C  C72  1  0.45269757  0.90211269  0.56375107  1  0.502618  0  0.04994  0.072818  0  3.889136  0
C  C73  1  0.09788588  0.54729899  0.93624782  1  0.502636  0  0.049913  0.0727  0  3.889205  0
C  C74  1  0.54729916  0.09788606  0.43624697  1  0.502654  0  0.049907  0.072759  0  3.889158  0
C  C75  1  0.90211177  0.45269974  0.06375114  1  0.502623  0  0.04993  0.072765  0  3.889245  0
C  C76  1  0.24021628  0.83511709  0.41037545  1  1.636037  0  0.209824  0.585612  0  4.209126  0
C  C77  1  0.16488182  0.75978359  0.08962391  1  1.636182  0  0.209815  0.585509  0  4.209198  0
C  C78  1  0.75978292  0.16488085  0.58962311  1  1.636152  0  0.209827  0.585528  0  4.209202  0
C  C79  1  0.83511714  0.24021504  0.91037441  1  1.636053  0  0.20984  0.585603  0  4.209111  0
Br  Br80  1  0.28104063  0.99874799  0.81534921  1  -0.019439  0  0.053343  -0.029602  0  1.589157  0
Br  Br81  1  0.00125472  0.71896536  0.68465320  1  -0.020147  0  0.053366  -0.029567  0  1.589134  0
Br  Br82  1  0.71895733  0.00125617  0.18464810  1  -0.019738  0  0.053351  -0.029604  0  1.589075  0
Br  Br83  1  0.99874745  0.28103882  0.31535028  1  -0.019881  0  0.053348  -0.029627  0  1.589097  0
Br  Br84  1  0.62667384  0.43615098  0.61525660  1  -0.045709  0  0.056059  -0.035708  0  1.508996  0
Br  Br85  1  0.56385050  0.37332801  0.88474751  1  -0.045696  0  0.056076  -0.035648  0  1.50906  0
Br  Br86  1  0.37332725  0.56384839  0.38474582  1  -0.045661  0  0.05607  -0.035694  0  1.508993  0
Br  Br87  1  0.43615187  0.62667053  0.11525326  1  -0.045735  0  0.056071  -0.03566  0  1.508994  0
N  N88  1  0.74410628  0.83603995  0.75923434  1  -1.232932  0  -0.316883  -0.221448  0  3.540865  0
N  N89  1  0.16395879  0.25589594  0.74076630  1  -1.233039  0  -0.316887  -0.22147  0  3.540973  0
N  N90  1  0.25589546  0.16395937  0.24076776  1  -1.233068  0  -0.31688  -0.221479  0  3.540943  0
N  N91  1  0.83604238  0.74410606  0.25923326  1  -1.233093  0  -0.31687  -0.221494  0  3.540947  0
N  N92  1  0.53093967  0.94857195  0.66670816  1  -1.238076  0  -0.315968  -0.19476  0  3.536393  0
N  N93  1  0.05142540  0.46905952  0.83329004  1  -1.238361  0  -0.315985  -0.194735  0  3.536419  0
N  N94  1  0.46905813  0.05142738  0.33328900  1  -1.238124  0  -0.315948  -0.194725  0  3.536376  0
N  N95  1  0.94857027  0.53093864  0.16670889  1  -1.238193  0  -0.315989  -0.194751  0  3.536448  0
O  O96  1  0.90775924  0.92393480  0.07494256  1  -1.180648  0  -0.318019  -0.534361  0  2.20791  0
O  O97  1  0.07607410  0.09224441  0.42506175  1  -1.180591  0  -0.317973  -0.534314  0  2.208191  0
O  O98  1  0.09224999  0.07606123  0.92505729  1  -1.180561  0  -0.318064  -0.534441  0  2.207784  0
O  O99  1  0.92392901  0.90775278  0.57494075  1  -1.180559  0  -0.317951  -0.534338  0  2.208026  0
O  O100  1  0.86573551  0.71201494  0.05120555  1  -1.177352  0  -0.313608  -0.554132  0  2.280134  0
O  O101  1  0.28799428  0.13426997  0.44880073  1  -1.177311  0  -0.313572  -0.554086  0  2.280001  0
O  O102  1  0.13426307  0.28798377  0.94879434  1  -1.177261  0  -0.313605  -0.554154  0  2.280084  0
O  O103  1  0.71200735  0.86573414  0.55120027  1  -1.177291  0  -0.313547  -0.554013  0  2.280009  0
O  O104  1  0.30217516  0.87084695  0.36241913  1  -1.178039  0  -0.318166  -0.556291  0  2.347368  0
O  O105  1  0.12914965  0.69782550  0.13757968  1  -1.17779  0  -0.318157  -0.556266  0  2.347387  0
O  O106  1  0.69782450  0.12915309  0.63758087  1  -1.177777  0  -0.318178  -0.556255  0  2.347341  0
O  O107  1  0.87084706  0.30217252  0.86241735  1  -1.178038  0  -0.318166  -0.556281  0  2.347369  0
O  O108  1  0.12045215  0.77348376  0.37105607  1  -1.184606  0  -0.311164  -0.544258  0  2.31679  0
O  O109  1  0.22651349  0.87954684  0.12894172  1  -1.184774  0  -0.311152  -0.544178  0  2.316816  0
O  O110  1  0.87954750  0.22651205  0.62894197  1  -1.184706  0  -0.311163  -0.544233  0  2.316833  0
O  O111  1  0.77348639  0.12045177  0.87105752  1  -1.184625  0  -0.311176  -0.544237  0  2.316813  0
O  O112  1  0.93791551  0.06208263  0.74999962  1  -1.285929  0  -0.562361  -0.770081  0  2.353007  0
O  O113  1  0.06208551  0.93791877  0.25000174  1  -1.285918  0  -0.562387  -0.770161  0  2.352825  0
