# generated using pymatgen
data_BaDy2H32(C10O7)4
_symmetry_space_group_name_H-M   'P 1'
_cell_length_a   10.52860138
_cell_length_b   11.18281060
_cell_length_c   22.87697324
_cell_angle_alpha   89.99997222
_cell_angle_beta   90.00003182
_cell_angle_gamma   115.93253860
_symmetry_Int_Tables_number   1
_chemical_formula_structural   BaDy2H32(C10O7)4
_chemical_formula_sum   'Ba2 Dy4 H64 C80 O56'
_cell_volume   2422.30838407
_cell_formula_units_Z   2
loop_
 _symmetry_equiv_pos_site_id
 _symmetry_equiv_pos_as_xyz
  1  'x, y, z'
loop_
 _atom_site_type_symbol
 _atom_site_label
 _atom_site_symmetry_multiplicity
 _atom_site_fract_x
 _atom_site_fract_y
 _atom_site_fract_z
 _atom_site_occupancy
 _atom_site_pbe_bader_charge
 _atom_site_pbe_bader_spin_density
 _atom_site_pbe_cm5_charge
 _atom_site_pbe_ddec_charge
 _atom_site_pbe_ddec_spin_density
 _atom_site_pbe_ddec_sum_bond_order
 _atom_site_pbe_magmom
Ba  Ba0  1  0.99999933  0.00000115  0.00000056  1  1.698541  0  0.978074  1.365813  0  1.852967  0
Ba  Ba1  1  0.50000042  0.99999939  0.49999922  1  1.698531  0  0.978098  1.365848  0  1.852881  0
Dy  Dy2  1  0.28623980  0.85742335  0.96624489  1  2.20461  0  1.503355  2.136434  0  2.095678  0
Dy  Dy3  1  0.21376009  0.14257776  0.46624482  1  2.204577  0  1.503374  2.136482  0  2.095594  0
Dy  Dy4  1  0.71375981  0.14257597  0.03375498  1  2.20459  0  1.503397  2.136524  0  2.095541  0
Dy  Dy5  1  0.78624140  0.85742355  0.53375548  1  2.204611  0  1.503386  2.136446  0  2.095669  0
H  H6  1  0.13550751  0.60596593  0.01740478  1  0.647557  0  0.290558  0.377549  0  0.975516  0
H  H7  1  0.36449103  0.39403346  0.51740455  1  0.647803  0  0.290556  0.37756  0  0.97549  0
H  H8  1  0.86449210  0.39403339  0.98259465  1  0.647799  0  0.290546  0.377513  0  0.97557  0
H  H9  1  0.63550904  0.60596686  0.48259532  1  0.647831  0  0.290557  0.377555  0  0.975513  0
H  H10  1  0.13645319  0.56293554  0.95206995  1  0.645315  0  0.299616  0.396492  0  0.9347  0
H  H11  1  0.36354622  0.43706458  0.45206941  1  0.645315  0  0.299619  0.396516  0  0.934658  0
H  H12  1  0.86354501  0.43706279  0.04792991  1  0.645335  0  0.299632  0.396524  0  0.934658  0
H  H13  1  0.63645526  0.56293672  0.54793002  1  0.645329  0  0.299629  0.396519  0  0.934667  0
H  H14  1  0.37485442  0.78938055  0.85752598  1  0.624869  0  0.322654  0.405261  0  0.886961  0
H  H15  1  0.12514347  0.21062063  0.35752587  1  0.624842  0  0.322675  0.405272  0  0.886905  0
H  H16  1  0.62514515  0.21062276  0.14247214  1  0.624866  0  0.32269  0.405313  0  0.886895  0
H  H17  1  0.87485427  0.78937670  0.64247225  1  0.624867  0  0.322708  0.405336  0  0.886862  0
H  H18  1  0.21693143  0.77588674  0.84570840  1  0.642676  0  0.286028  0.383342  0  0.966138  0
H  H19  1  0.28306550  0.22411445  0.34570833  1  0.642741  0  0.286068  0.38342  0  0.966037  0
H  H20  1  0.78306675  0.22411358  0.15429146  1  0.642693  0  0.286046  0.383375  0  0.966104  0
H  H21  1  0.71693409  0.77588686  0.65429110  1  0.642691  0  0.286065  0.383405  0  0.96606  0
H  H22  1  0.18897439  0.63225881  0.13350799  1  0.145085  0  0.111999  0.145736  0  1.028444  0
H  H23  1  0.31102564  0.36774349  0.63350600  1  0.14503  0  0.111996  0.145758  0  1.028446  0
H  H24  1  0.81102808  0.36773851  0.86649318  1  0.145043  0  0.111985  0.145729  0  1.02847  0
H  H25  1  0.68897534  0.63226081  0.36649342  1  0.145048  0  0.111992  0.145725  0  1.028487  0
H  H26  1  0.77757372  0.50198919  0.14381321  1  0.136801  0  0.116338  0.145057  0  0.999134  0
H  H27  1  0.72242523  0.49800928  0.64381247  1  0.136966  0  0.116341  0.145051  0  0.999157  0
H  H28  1  0.22242682  0.49801212  0.85618797  1  0.136937  0  0.116375  0.1451  0  0.999117  0
H  H29  1  0.27757581  0.50198905  0.35618695  1  0.136923  0  0.116352  0.145074  0  0.999121  0
H  H30  1  0.22939204  0.53281091  0.23808784  1  0.106361  0  0.113557  0.140694  0  0.988382  0
H  H31  1  0.27060902  0.46719332  0.73808669  1  0.106332  0  0.113552  0.140714  0  0.988403  0
H  H32  1  0.77061229  0.46719039  0.76191333  1  0.106267  0  0.113602  0.140748  0  0.988348  0
H  H33  1  0.72939242  0.53281197  0.26191274  1  0.106369  0  0.113568  0.140708  0  0.988382  0
H  H34  1  0.59479606  0.60515450  0.17827796  1  0.08388  0  0.108847  0.126362  0  1.01996  0
H  H35  1  0.90520388  0.39484394  0.67827817  1  0.083874  0  0.108836  0.126355  0  1.02  0
H  H36  1  0.40520636  0.39484880  0.82172191  1  0.08386  0  0.108828  0.126336  0  1.019965  0
H  H37  1  0.09479812  0.60515438  0.32172301  1  0.083897  0  0.108822  0.126306  0  1.020072  0
H  H38  1  0.13468967  0.38318067  0.06324435  1  0.165511  0  0.135085  0.119247  0  0.989393  0
H  H39  1  0.36531129  0.61681769  0.56324537  1  0.165464  0  0.135086  0.11925  0  0.989367  0
H  H40  1  0.86531276  0.61682064  0.93675726  1  0.165481  0  0.13511  0.119266  0  0.989365  0
H  H41  1  0.63468739  0.38317964  0.43675668  1  0.165488  0  0.135113  0.119275  0  0.989347  0
H  H42  1  0.92608729  0.88210887  0.74337064  1  0.105268  0  0.114132  0.134152  0  0.998513  0
H  H43  1  0.57390981  0.11789352  0.24336967  1  0.105168  0  0.114108  0.134145  0  0.998481  0
H  H44  1  0.07391088  0.11789145  0.25663010  1  0.105235  0  0.114101  0.134119  0  0.998517  0
H  H45  1  0.42609165  0.88210977  0.75662889  1  0.105203  0  0.114104  0.13413  0  0.998517  0
H  H46  1  0.77439887  0.06623482  0.87676861  1  0.181023  0  0.127043  0.114925  0  1.04452  0
H  H47  1  0.72559789  0.93376650  0.37676748  1  0.181069  0  0.127044  0.114928  0  1.044618  0
H  H48  1  0.22559928  0.93376749  0.12323169  1  0.181002  0  0.127038  0.114924  0  1.044617  0
H  H49  1  0.27440077  0.06623282  0.62323107  1  0.180986  0  0.12704  0.114901  0  1.044589  0
H  H50  1  0.56821727  0.43115917  0.06495835  1  0.179665  0  0.11494  0.143421  0  1.011676  0
H  H51  1  0.93178441  0.56884331  0.56495591  1  0.179722  0  0.114953  0.143466  0  1.011624  0
H  H52  1  0.43178331  0.56883816  0.93504283  1  0.17963  0  0.114947  0.143433  0  1.011628  0
H  H53  1  0.06821564  0.43115899  0.43504265  1  0.179707  0  0.114951  0.143408  0  1.011675  0
H  H54  1  0.74871030  0.99859410  0.75837040  1  0.124423  0  0.112095  0.14003  0  1.009019  0
H  H55  1  0.75128679  0.00141028  0.25836950  1  0.124451  0  0.112093  0.14009  0  1.009032  0
H  H56  1  0.25129019  0.00141119  0.24162946  1  0.124444  0  0.112085  0.140067  0  1.008987  0
H  H57  1  0.24871282  0.99858905  0.74162905  1  0.124467  0  0.112081  0.14007  0  1.009039  0
H  H58  1  0.68606090  0.84348554  0.11836835  1  0.193065  0  0.128925  0.114405  0  1.056761  0
H  H59  1  0.81393473  0.15650996  0.61836729  1  0.193088  0  0.128915  0.114402  0  1.056726  0
H  H60  1  0.31393729  0.15651279  0.88163064  1  0.193077  0  0.128924  0.114396  0  1.05673  0
H  H61  1  0.18606443  0.84348637  0.38163258  1  0.193094  0  0.128911  0.114397  0  1.056799  0
H  H62  1  0.40898410  0.56822750  0.08384499  1  0.111162  0  0.107385  0.127367  0  1.031934  0
H  H63  1  0.09101450  0.43177185  0.58384293  1  0.111173  0  0.107349  0.127297  0  1.03194  0
H  H64  1  0.59101833  0.43177381  0.91615706  1  0.111178  0  0.107351  0.127294  0  1.031984  0
H  H65  1  0.90898182  0.56822449  0.41615781  1  0.111187  0  0.107354  0.127331  0  1.031977  0
H  H66  1  0.49558002  0.71348859  0.27379975  1  0.1535  0  0.121236  0.100234  0  1.018545  0
H  H67  1  0.00442299  0.28651362  0.77379945  1  0.153525  0  0.121236  0.100246  0  1.018573  0
H  H68  1  0.50442526  0.28651271  0.72620056  1  0.153552  0  0.121255  0.100277  0  1.018584  0
H  H69  1  0.99557801  0.71348868  0.22620042  1  0.153532  0  0.121231  0.100235  0  1.018582  0
C  C70  1  0.99328083  0.68770398  0.05977674  1  1.580349  0  0.219897  0.560761  0  4.265068  0
C  C71  1  0.50672085  0.31229851  0.55977556  1  1.58026  0  0.219871  0.560709  0  4.26515  0
C  C72  1  0.00671925  0.31229633  0.94022312  1  1.580344  0  0.219855  0.560683  0  4.265245  0
C  C73  1  0.49328159  0.68770280  0.44022430  1  1.580127  0  0.219873  0.560712  0  4.265351  0
C  C74  1  0.38451379  0.15141145  0.02948601  1  1.596832  0  0.233695  0.62508  0  4.227738  0
C  C75  1  0.11548902  0.84858892  0.52948517  1  1.596652  0  0.233694  0.625037  0  4.227622  0
C  C76  1  0.61548441  0.84858688  0.97051473  1  1.59685  0  0.233744  0.625109  0  4.227669  0
C  C77  1  0.88451344  0.15141040  0.47051514  1  1.59684  0  0.233759  0.62505  0  4.227613  0
C  C78  1  0.28118533  0.67340725  0.16174251  1  0.026721  0  -0.102913  -0.163679  0  3.978629  0
C  C79  1  0.21881522  0.32659404  0.66174138  1  0.026697  0  -0.102865  -0.163659  0  3.978843  0
C  C80  1  0.71881713  0.32659207  0.83825867  1  0.02656  0  -0.10282  -0.163541  0  3.978675  0
C  C81  1  0.78118483  0.67340827  0.33825805  1  0.026729  0  -0.102899  -0.163644  0  3.978701  0
C  C82  1  0.77785539  0.59550663  0.13067422  1  -0.039903  0  -0.096721  -0.163881  0  3.97847  0
C  C83  1  0.72214401  0.40449284  0.63067395  1  -0.04058  0  -0.0967  -0.163809  0  3.978424  0
C  C84  1  0.22214609  0.40449468  0.86932608  1  -0.040383  0  -0.096721  -0.163898  0  3.978484  0
C  C85  1  0.27785749  0.59550648  0.36932679  1  -0.040465  0  -0.096712  -0.16389  0  3.978477  0
C  C86  1  0.30241485  0.62229339  0.21595379  1  0.024966  0  -0.119227  -0.189786  0  4.055319  0
C  C87  1  0.19758762  0.37770985  0.71595221  1  0.02495  0  -0.119268  -0.189887  0  4.055423  0
C  C88  1  0.69758902  0.37770692  0.78404738  1  0.025063  0  -0.119352  -0.189962  0  4.055454  0
C  C89  1  0.80241289  0.62229345  0.28404634  1  0.024957  0  -0.119254  -0.189809  0  4.055316  0
C  C90  1  0.87176673  0.68508824  0.09218530  1  0.355224  0  0.056738  0.037264  0  3.956317  0
C  C91  1  0.62823405  0.31491224  0.59218459  1  0.355743  0  0.056753  0.037268  0  3.956315  0
C  C92  1  0.12823429  0.31491207  0.90781500  1  0.355538  0  0.056729  0.037236  0  3.956326  0
C  C93  1  0.37176794  0.68508608  0.40781571  1  0.355569  0  0.05668  0.037216  0  3.956393  0
C  C94  1  0.36263915  0.26719583  0.04623034  1  0.322215  0  0.058744  0.040827  0  3.929032  0
C  C95  1  0.13736367  0.73280453  0.54622909  1  0.32222  0  0.05875  0.040895  0  3.928973  0
C  C96  1  0.63736048  0.73280150  0.95377127  1  0.322074  0  0.058745  0.040901  0  3.929063  0
C  C97  1  0.86263690  0.26719280  0.45376946  1  0.322076  0  0.05872  0.040903  0  3.928992  0
C  C98  1  0.44597933  0.87722380  0.09986675  1  1.632808  0  0.223509  0.608253  0  4.245867  0
C  C99  1  0.05401974  0.12277653  0.59986606  1  1.632843  0  0.223489  0.608242  0  4.245785  0
C  C100  1  0.55402171  0.12277452  0.90013356  1  1.63283  0  0.223505  0.608299  0  4.245809  0
C  C101  1  0.94597702  0.87722280  0.40013424  1  1.63282  0  0.223466  0.608181  0  4.245876  0
C  C102  1  0.68285844  0.64874157  0.14817652  1  0.057819  0  -0.115064  -0.181092  0  4.044917  0
C  C103  1  0.81713959  0.35125490  0.64817628  1  0.057858  0  -0.115048  -0.181128  0  4.045132  0
C  C104  1  0.31714022  0.35125775  0.85182422  1  0.057855  0  -0.115042  -0.181077  0  4.045053  0
C  C105  1  0.18285911  0.64874044  0.35182402  1  0.057865  0  -0.114997  -0.180987  0  4.044834  0
C  C106  1  0.40276607  0.78710825  0.15056926  1  0.3087  0  0.05287  0.036924  0  3.927369  0
C  C107  1  0.09723540  0.21289503  0.65056900  1  0.308707  0  0.052901  0.036924  0  3.92736  0
C  C108  1  0.59723685  0.21289206  0.84943104  1  0.30879  0  0.052805  0.036748  0  3.927363  0
C  C109  1  0.90276607  0.78710827  0.34943130  1  0.308682  0  0.052851  0.036883  0  3.927417  0
C  C110  1  0.23450763  0.37705997  0.06110684  1  0.312372  0  0.012185  0.066458  0  3.828408  0
C  C111  1  0.26549521  0.62294038  0.56110740  1  0.312425  0  0.012166  0.066365  0  3.828273  0
C  C112  1  0.76549622  0.62294233  0.93889477  1  0.312432  0  0.012076  0.066226  0  3.828473  0
C  C113  1  0.73450537  0.37705695  0.43889421  1  0.312406  0  0.012131  0.066306  0  3.828501  0
C  C114  1  0.06693324  0.87122235  0.85629806  1  1.585447  0  0.21799  0.567168  0  4.265417  0
C  C115  1  0.43306131  0.12877983  0.35629717  1  1.585383  0  0.218065  0.567331  0  4.265054  0
C  C116  1  0.93306114  0.12877798  0.14370268  1  1.585642  0  0.21801  0.567259  0  4.26521  0
C  C117  1  0.56694062  0.87122446  0.64370225  1  1.58558  0  0.218074  0.567305  0  4.265038  0
C  C118  1  0.90523332  0.92128078  0.78364432  1  0.01719  0  -0.097155  -0.151453  0  3.976153  0
C  C119  1  0.59476146  0.07872059  0.28364336  1  0.017209  0  -0.097142  -0.151333  0  3.976148  0
C  C120  1  0.09476391  0.07871954  0.21635598  1  0.0172  0  -0.097123  -0.151328  0  3.976216  0
C  C121  1  0.40523907  0.92128072  0.71635520  1  0.017292  0  -0.097111  -0.151326  0  3.976141  0
C  C122  1  0.82196123  0.01735914  0.84945426  1  0.295299  0  0.000137  0.041853  0  3.839791  0
C  C123  1  0.67803269  0.98264021  0.34945266  1  0.295404  0  0.000177  0.041956  0  3.839922  0
C  C124  1  0.17803598  0.98264317  0.15054648  1  0.295433  0  0.00016  0.041925  0  3.840017  0
C  C125  1  0.32196317  0.01735514  0.65054545  1  0.295414  0  0.000219  0.042034  0  3.839918  0
C  C126  1  0.96496810  0.92071906  0.83696650  1  0.334076  0  0.057722  0.043181  0  3.94196  0
C  C127  1  0.53502626  0.07928130  0.33696553  1  0.334053  0  0.057649  0.04294  0  3.942107  0
C  C128  1  0.03502676  0.07928028  0.16303424  1  0.334063  0  0.057686  0.043048  0  3.942091  0
C  C129  1  0.46497520  0.92072200  0.66303346  1  0.334039  0  0.057661  0.043041  0  3.94209  0
C  C130  1  0.45455401  0.39420628  0.06201827  1  -0.028954  0  -0.093884  -0.146271  0  3.956677  0
C  C131  1  0.04544929  0.60579506  0.56201703  1  -0.028931  0  -0.093907  -0.146436  0  3.956772  0
C  C132  1  0.54544891  0.60579403  0.93798291  1  -0.02886  0  -0.093892  -0.146401  0  3.956813  0
C  C133  1  0.95455175  0.39420326  0.43798153  1  -0.028939  0  -0.09386  -0.14629  0  3.956674  0
C  C134  1  0.81325081  0.98309493  0.79166503  1  0.049686  0  -0.114689  -0.171937  0  4.037225  0
C  C135  1  0.68674303  0.01690644  0.29166411  1  0.049684  0  -0.11471  -0.17214  0  4.037353  0
C  C136  1  0.18674686  0.01690838  0.20833484  1  0.049685  0  -0.1147  -0.172107  0  4.037376  0
C  C137  1  0.31325232  0.98309189  0.70833445  1  0.049704  0  -0.114774  -0.172193  0  4.037399  0
C  C138  1  0.72350314  0.76714759  0.11941309  1  0.331301  0  0.009158  0.061092  0  3.813104  0
C  C139  1  0.77649530  0.23285189  0.61941331  1  0.331112  0  0.009141  0.061079  0  3.81326  0
C  C140  1  0.27649645  0.23285372  0.88058590  1  0.331266  0  0.009126  0.06109  0  3.813227  0
C  C141  1  0.22350618  0.76714942  0.38058743  1  0.331185  0  0.009157  0.061074  0  3.81304  0
C  C142  1  0.37195418  0.46498020  0.07140716  1  0.049145  0  -0.11366  -0.17392  0  4.032619  0
C  C143  1  0.12804582  0.53502015  0.57140640  1  0.049088  0  -0.113621  -0.173702  0  4.032512  0
C  C144  1  0.62804733  0.53501912  0.92859445  1  0.049098  0  -0.113565  -0.173603  0  4.032405  0
C  C145  1  0.87195235  0.46498017  0.42859303  1  0.049162  0  -0.113595  -0.173757  0  4.032449  0
C  C146  1  0.43464118  0.70853893  0.23489905  1  0.297789  0  0.000495  0.046298  0  3.894052  0
C  C147  1  0.06536132  0.29146430  0.73489833  1  0.297856  0  0.000483  0.046283  0  3.894006  0
C  C148  1  0.56536315  0.29146238  0.76510125  1  0.297817  0  0.0005  0.046311  0  3.894113  0
C  C149  1  0.93463871  0.70853999  0.26510154  1  0.297828  0  0.00054  0.046294  0  3.894104  0
O  O150  1  0.28079676  0.05180200  0.00637718  1  -1.206931  0  -0.430075  -0.697696  0  2.37742  0
O  O151  1  0.21920459  0.94819938  0.50637590  1  -1.206987  0  -0.430068  -0.697654  0  2.377296  0
O  O152  1  0.71920142  0.94819832  0.99362355  1  -1.206915  0  -0.430109  -0.697689  0  2.377347  0
O  O153  1  0.78079502  0.05179994  0.49362483  1  -1.207007  0  -0.430106  -0.697597  0  2.377146  0
O  O154  1  0.22631811  0.25591169  0.04517468  1  -1.065212  0  -0.137417  -0.12685  0  2.717148  0
O  O155  1  0.27368471  0.74408866  0.54517478  1  -1.065111  0  -0.137389  -0.126816  0  2.716966  0
O  O156  1  0.77368291  0.74408862  0.95482737  1  -1.065142  0  -0.13739  -0.126802  0  2.717199  0
O  O157  1  0.72631587  0.25590867  0.45482465  1  -1.065149  0  -0.137429  -0.126864  0  2.717214  0
O  O158  1  0.10518512  0.88644807  0.91065490  1  -1.215276  0  -0.417393  -0.705151  0  2.304554  0
O  O159  1  0.39480904  0.11355109  0.41065357  1  -1.215208  0  -0.417437  -0.705193  0  2.304393  0
O  O160  1  0.89481115  0.11355225  0.08934627  1  -1.215222  0  -0.417474  -0.705231  0  2.304446  0
O  O161  1  0.60519057  0.88644823  0.58934585  1  -1.215256  0  -0.417477  -0.705236  0  2.304481  0
O  O162  1  0.06269859  0.78687038  0.02634212  1  -1.211218  0  -0.394981  -0.674842  0  2.347123  0
O  O163  1  0.43730183  0.21313099  0.52634064  1  -1.211221  0  -0.395002  -0.674865  0  2.347057  0
O  O164  1  0.93730148  0.21312994  0.97365774  1  -1.211183  0  -0.394979  -0.674835  0  2.347169  0
O  O165  1  0.56269921  0.78686734  0.47365879  1  -1.211188  0  -0.394968  -0.674813  0  2.347195  0
O  O166  1  0.02013086  0.58780798  0.06722430  1  -1.180828  0  -0.30501  -0.540685  0  2.198829  0
O  O167  1  0.47987009  0.41219237  0.56722365  1  -1.180691  0  -0.304982  -0.540645  0  2.198932  0
O  O168  1  0.97986970  0.41219134  0.93277513  1  -1.18082  0  -0.304979  -0.540631  0  2.19891  0
O  O169  1  0.52013285  0.58780595  0.43277578  1  -1.180629  0  -0.304973  -0.54067  0  2.198941  0
O  O170  1  0.91364074  0.97983645  0.87779619  1  -1.087712  0  -0.149054  -0.132669  0  2.744226  0
O  O171  1  0.58635461  0.02016387  0.37779524  1  -1.08766  0  -0.149006  -0.132594  0  2.744352  0
O  O172  1  0.08635600  0.02016486  0.12220411  1  -1.087686  0  -0.148991  -0.132572  0  2.744311  0
O  O173  1  0.41364405  0.97983545  0.62220331  1  -1.087738  0  -0.149012  -0.132637  0  2.74431  0
O  O174  1  0.19690695  0.62799613  0.98130372  1  -1.289638  0  -0.66503  -0.868466  0  2.113474  0
O  O175  1  0.30309153  0.37200398  0.48130318  1  -1.289888  0  -0.665038  -0.868503  0  2.113398  0
O  O176  1  0.80309171  0.37200320  0.01869571  1  -1.289891  0  -0.665036  -0.868498  0  2.113491  0
O  O177  1  0.69690949  0.62799633  0.51869625  1  -1.289905  0  -0.665052  -0.868522  0  2.113456  0
O  O178  1  0.34941016  0.85576531  0.06212092  1  -1.195844  0  -0.404844  -0.668064  0  2.362125  0
O  O179  1  0.15059078  0.14423504  0.56212157  1  -1.1958  0  -0.404826  -0.668075  0  2.362096  0
O  O180  1  0.65058947  0.14423202  0.93787851  1  -1.195845  0  -0.404835  -0.668053  0  2.362112  0
O  O181  1  0.84940929  0.85576528  0.43787874  1  -1.195866  0  -0.404843  -0.668056  0  2.362128  0
O  O182  1  0.83808322  0.79050039  0.08487007  1  -1.083514  0  -0.141605  -0.122904  0  2.730954  0
O  O183  1  0.66191614  0.20949910  0.58486939  1  -1.083393  0  -0.141584  -0.122876  0  2.730932  0
O  O184  1  0.16191734  0.20949893  0.91512936  1  -1.083485  0  -0.141586  -0.122845  0  2.730975  0
O  O185  1  0.33808632  0.79050022  0.41513048  1  -1.083378  0  -0.141607  -0.12288  0  2.730973  0
O  O186  1  0.27903834  0.74948130  0.87276488  1  -1.266307  0  -0.63009  -0.838239  0  2.044762  0
O  O187  1  0.22095720  0.25051888  0.37276478  1  -1.266324  0  -0.630138  -0.838314  0  2.044672  0
O  O188  1  0.72096125  0.25052002  0.12723455  1  -1.266329  0  -0.630134  -0.838328  0  2.0447  0
O  O189  1  0.77903910  0.74947945  0.62723465  1  -1.266336  0  -0.630166  -0.838365  0  2.044681  0
O  O190  1  0.10974106  0.81645613  0.81772916  1  -1.152732  0  -0.309115  -0.519897  0  2.143229  0
O  O191  1  0.39025440  0.18354607  0.31772869  1  -1.152817  0  -0.309146  -0.519936  0  2.143102  0
O  O192  1  0.89025475  0.18354320  0.18227158  1  -1.153009  0  -0.309071  -0.519865  0  2.143105  0
O  O193  1  0.60974894  0.81645922  0.68227205  1  -1.152926  0  -0.309106  -0.519899  0  2.14301  0
O  O194  1  0.49770735  0.80913924  0.19565347  1  -1.060513  0  -0.119195  -0.086009  0  2.649379  0
O  O195  1  0.00229464  0.19086302  0.69565319  1  -1.060494  0  -0.119196  -0.08596  0  2.64933  0
O  O196  1  0.50229557  0.19086107  0.80434639  1  -1.060436  0  -0.119144  -0.085933  0  2.6494  0
O  O197  1  0.99770682  0.80914028  0.30434667  1  -1.06052  0  -0.1192  -0.085963  0  2.649378  0
O  O198  1  0.50546966  0.15724198  0.03868436  1  -1.195293  0  -0.402761  -0.677296  0  2.392252  0
O  O199  1  0.99453250  0.84275753  0.53868361  1  -1.195227  0  -0.402774  -0.677297  0  2.392147  0
O  O200  1  0.49452997  0.84275535  0.96131551  1  -1.195267  0  -0.402768  -0.677317  0  2.392255  0
O  O201  1  0.00546808  0.15723980  0.46131756  1  -1.195266  0  -0.402812  -0.677337  0  2.392307  0
O  O202  1  0.57287848  0.96683489  0.09715442  1  -1.198215  0  -0.386136  -0.668083  0  2.322518  0
O  O203  1  0.92712323  0.03316758  0.59715429  1  -1.198229  0  -0.386125  -0.668057  0  2.322537  0
O  O204  1  0.42712254  0.03316542  0.90284545  1  -1.198232  0  -0.386138  -0.668079  0  2.322463  0
O  O205  1  0.07287824  0.96683572  0.40284602  1  -1.198183  0  -0.386098  -0.668027  0  2.322519  0
