# generated using pymatgen
data_ZnH10C12(NO)4
_symmetry_space_group_name_H-M   'P 1'
_cell_length_a   8.42887453
_cell_length_b   14.37456680
_cell_length_c   15.52304377
_cell_angle_alpha   90.00006855
_cell_angle_beta   90.00029616
_cell_angle_gamma   89.99991265
_symmetry_Int_Tables_number   1
_chemical_formula_structural   ZnH10C12(NO)4
_chemical_formula_sum   'Zn4 H40 C48 N16 O16'
_cell_volume   1880.79402547
_cell_formula_units_Z   4
loop_
 _symmetry_equiv_pos_site_id
 _symmetry_equiv_pos_as_xyz
  1  'x, y, z'
loop_
 _atom_site_type_symbol
 _atom_site_label
 _atom_site_symmetry_multiplicity
 _atom_site_fract_x
 _atom_site_fract_y
 _atom_site_fract_z
 _atom_site_occupancy
 _atom_site_pbe_bader_charge
 _atom_site_pbe_bader_spin_density
 _atom_site_pbe_cm5_charge
 _atom_site_pbe_ddec_charge
 _atom_site_pbe_ddec_spin_density
 _atom_site_pbe_ddec_sum_bond_order
 _atom_site_pbe_magmom
Zn  Zn0  1  0.21486315  0.24612987  0.17995419  1  1.246833  0  0.707795  0.790263  0  2.400962  0
Zn  Zn1  1  0.21486198  0.75386942  0.82004736  1  1.246849  0  0.707816  0.790292  0  2.400919  0
Zn  Zn2  1  0.78513620  0.25386861  0.67995294  1  1.24685  0  0.707765  0.790209  0  2.400963  0
Zn  Zn3  1  0.78513978  0.74613017  0.32004571  1  1.246874  0  0.70779  0.790263  0  2.400945  0
H  H4  1  0.60548638  0.07960089  0.23956409  1  0.112108  0  0.108775  0.13863  0  1.035126  0
H  H5  1  0.60548539  0.92039805  0.76043405  1  0.112101  0  0.108794  0.138621  0  1.035107  0
H  H6  1  0.39451116  0.42039697  0.73956644  1  0.112079  0  0.108787  0.138616  0  1.03509  0
H  H7  1  0.39451223  0.57960146  0.26043304  1  0.112097  0  0.108774  0.138587  0  1.035194  0
H  H8  1  0.23312264  0.87772322  0.27589773  1  0.101916  0  0.10229  0.120984  0  1.034791  0
H  H9  1  0.23312219  0.12227605  0.72410001  1  0.101892  0  0.1023  0.120966  0  1.034762  0
H  H10  1  0.76687632  0.62227491  0.77589951  1  0.101919  0  0.102284  0.120951  0  1.034791  0
H  H11  1  0.76687757  0.37772388  0.22410102  1  0.101896  0  0.102298  0.120983  0  1.03474  0
H  H12  1  0.44517377  0.75840755  0.30336552  1  0.103002  0  0.114564  0.09353  0  1.014335  0
H  H13  1  0.44517157  0.24159014  0.69663153  1  0.103022  0  0.114556  0.093532  0  1.014311  0
H  H14  1  0.55482901  0.74158993  0.80336747  1  0.103029  0  0.114552  0.093547  0  1.014284  0
H  H15  1  0.55482912  0.25840906  0.19663246  1  0.103007  0  0.114572  0.093565  0  1.014308  0
H  H16  1  0.93721339  0.16224644  0.89323731  1  0.087577  0  0.112324  0.13423  0  0.999999  0
H  H17  1  0.93722419  0.83775637  0.10676563  1  0.087496  0  0.11233  0.134249  0  1.000017  0
H  H18  1  0.06278680  0.33775371  0.39323823  1  0.087598  0  0.112323  0.134229  0  1.000015  0
H  H19  1  0.06278621  0.66224850  0.60676419  1  0.087611  0  0.112333  0.134241  0  0.999996  0
H  H20  1  0.29757012  0.37430946  0.88088006  1  0.105467  0  0.107671  0.121192  0  1.028453  0
H  H21  1  0.29757804  0.62569045  0.11912109  1  0.105383  0  0.107714  0.12128  0  1.028415  0
H  H22  1  0.70242520  0.12569346  0.38087739  1  0.105423  0  0.107648  0.121176  0  1.028449  0
H  H23  1  0.70242418  0.87430818  0.61912167  1  0.105409  0  0.10767  0.121195  0  1.028408  0
H  H24  1  0.32883011  0.35817276  0.04083865  1  0.098209  0  0.116463  0.085296  0  1.000848  0
H  H25  1  0.32883530  0.64182851  0.95916322  1  0.098208  0  0.116441  0.085295  0  1.000853  0
H  H26  1  0.67116317  0.14183041  0.54083567  1  0.09823  0  0.116414  0.085257  0  1.000808  0
H  H27  1  0.67116304  0.85816986  0.45916330  1  0.098205  0  0.116438  0.085291  0  1.000894  0
H  H28  1  0.91889029  0.91008911  0.27234722  1  0.513339  0  0.30195  0.314517  0  0.98581  0
H  H29  1  0.91888522  0.08990955  0.72765116  1  0.513392  0  0.301971  0.314594  0  0.985761  0
H  H30  1  0.08111220  0.58991042  0.77234961  1  0.513341  0  0.301955  0.314569  0  0.985744  0
H  H31  1  0.08111340  0.41008969  0.22765028  1  0.513351  0  0.30197  0.314594  0  0.985704  0
H  H32  1  0.87154580  0.02699885  0.26083926  1  0.517446  0  0.302609  0.326393  0  0.97022  0
H  H33  1  0.87154328  0.97299985  0.73915963  1  0.51747  0  0.302612  0.32639  0  0.970198  0
H  H34  1  0.12845313  0.47300043  0.76084220  1  0.517466  0  0.302622  0.326403  0  0.970183  0
H  H35  1  0.12845651  0.52699824  0.23915911  1  0.517505  0  0.302612  0.326407  0  0.970235  0
H  H36  1  0.94143571  0.15138927  0.12820435  1  0.541554  0  0.292584  0.305694  0  1.01545  0
H  H37  1  0.94143716  0.84861215  0.87179795  1  0.541596  0  0.29255  0.305632  0  1.015501  0
H  H38  1  0.05856077  0.34861193  0.62820375  1  0.541573  0  0.292552  0.305624  0  1.015527  0
H  H39  1  0.05856746  0.65139098  0.37179673  1  0.54157  0  0.292554  0.305623  0  1.015499  0
H  H40  1  0.87212238  0.10719451  0.03236478  1  0.449057  0  0.318864  0.31372  0  0.919425  0
H  H41  1  0.87212818  0.89280767  0.96763733  1  0.449127  0  0.318869  0.31371  0  0.919484  0
H  H42  1  0.12787319  0.39280656  0.53236442  1  0.449072  0  0.318866  0.313662  0  0.919453  0
H  H43  1  0.12787972  0.60719837  0.46763689  1  0.449025  0  0.318865  0.313707  0  0.919427  0
C  C44  1  0.67955107  0.94023203  0.27373129  1  1.013244  0  0.225567  0.448727  0  4.08986  0
C  C45  1  0.67954843  0.05976614  0.72626641  1  1.013456  0  0.225581  0.448784  0  4.089859  0
C  C46  1  0.32045024  0.55976610  0.77373432  1  1.013457  0  0.225609  0.4488  0  4.089803  0
C  C47  1  0.32045135  0.44023310  0.22626560  1  1.015216  0  0.225547  0.448669  0  4.089787  0
C  C48  1  0.56537206  0.00972403  0.25523618  1  -0.076207  0  -0.098815  -0.263258  0  3.901587  0
C  C49  1  0.56536837  0.99027425  0.74476121  1  -0.076227  0  -0.098837  -0.263277  0  3.901632  0
C  C50  1  0.43462919  0.49027385  0.75524001  1  -0.076203  0  -0.098871  -0.263312  0  3.901617  0
C  C51  1  0.43463148  0.50972524  0.24476023  1  -0.077918  0  -0.098825  -0.26322  0  3.901598  0
C  C52  1  0.40582161  0.98789271  0.25569710  1  -0.016369  0  -0.002596  0.039664  0  3.984232  0
C  C53  1  0.40581927  0.01210501  0.74429984  1  -0.016382  0  -0.002633  0.039726  0  3.984118  0
C  C54  1  0.59418072  0.51210401  0.75569956  1  -0.016355  0  -0.002622  0.039682  0  3.984193  0
C  C55  1  0.59418306  0.48789494  0.24429984  1  -0.016374  0  -0.002597  0.039737  0  3.984054  0
C  C56  1  0.35811082  0.89613415  0.27466169  1  0.086822  0  -0.109701  -0.201297  0  4.009832  0
C  C57  1  0.35810807  0.10386431  0.72533640  1  0.086985  0  -0.109705  -0.201251  0  4.009671  0
C  C58  1  0.64189050  0.60386259  0.77466374  1  0.086795  0  -0.109678  -0.201207  0  4.009744  0
C  C59  1  0.64189171  0.39613632  0.22533579  1  0.086778  0  -0.109713  -0.201289  0  4.009692  0
C  C60  1  0.47444443  0.83102189  0.29078881  1  0.387372  0  0.030751  0.091423  0  3.995708  0
C  C61  1  0.47444016  0.16897647  0.70920961  1  0.387178  0  0.030781  0.09139  0  3.995798  0
C  C62  1  0.52555823  0.66897626  0.79079125  1  0.387392  0  0.030808  0.091385  0  3.99574  0
C  C63  1  0.52555946  0.33102275  0.20920925  1  0.387381  0  0.030769  0.091335  0  3.995747  0
C  C64  1  0.28400099  0.06167771  0.23464900  1  1.6072  0  0.203667  0.571304  0  4.219751  0
C  C65  1  0.28400001  0.93831873  0.76534759  1  1.607497  0  0.203624  0.571293  0  4.219543  0
C  C66  1  0.71600006  0.43831737  0.73465356  1  1.607731  0  0.203672  0.571381  0  4.219763  0
C  C67  1  0.71600004  0.56168078  0.26534747  1  1.607499  0  0.203648  0.57141  0  4.219539  0
C  C68  1  0.04744505  0.20081508  0.01472925  1  1.012398  0  0.233562  0.457569  0  4.072391  0
C  C69  1  0.04745245  0.79918714  0.98527248  1  1.012558  0  0.233631  0.457634  0  4.072346  0
C  C70  1  0.95255153  0.29918597  0.51472852  1  1.012406  0  0.233582  0.457585  0  4.072449  0
C  C71  1  0.95255206  0.70081544  0.48527189  1  1.01239  0  0.233595  0.457621  0  4.072387  0
C  C72  1  0.02573710  0.20594349  0.92449603  1  -0.007475  0  -0.086222  -0.241685  0  3.880968  0
C  C73  1  0.02575010  0.79406084  0.07550693  1  -0.006867  0  -0.086218  -0.24172  0  3.880843  0
C  C74  1  0.97425864  0.29405809  0.42449495  1  -0.007033  0  -0.086208  -0.241698  0  3.880936  0
C  C75  1  0.97425882  0.70594330  0.57550487  1  -0.007429  0  -0.086195  -0.241672  0  3.880925  0
C  C76  1  0.11367973  0.26793485  0.87597284  1  0.009116  0  0.001718  0.031751  0  3.980303  0
C  C77  1  0.11369216  0.73206870  0.12402907  1  0.00872  0  0.001799  0.031848  0  3.980134  0
C  C78  1  0.88631555  0.23206667  0.37597145  1  0.0087  0  0.001734  0.03181  0  3.9802  0
C  C79  1  0.88631484  0.76793480  0.62402684  1  0.009088  0  0.00172  0.031735  0  3.980232  0
C  C80  1  0.22677562  0.32473793  0.91718145  1  0.071942  0  -0.099347  -0.183678  0  3.991331  0
C  C81  1  0.22678662  0.67526343  0.08282079  1  0.071885  0  -0.099453  -0.183845  0  3.991281  0
C  C82  1  0.77321768  0.17526503  0.41717903  1  0.071886  0  -0.099368  -0.183743  0  3.991336  0
C  C83  1  0.77321644  0.82473723  0.58281958  1  0.071839  0  -0.099364  -0.183696  0  3.991265  0
C  C84  1  0.24384237  0.31592037  0.00510003  1  0.361233  0  0.037354  0.097235  0  3.999093  0
C  C85  1  0.24384898  0.68408237  0.99490225  1  0.36125  0  0.037452  0.097334  0  3.998883  0
C  C86  1  0.75615175  0.18408206  0.50509669  1  0.361225  0  0.037452  0.097347  0  3.998836  0
C  C87  1  0.75615088  0.81591814  0.49490187  1  0.361252  0  0.03746  0.097313  0  3.999126  0
C  C88  1  0.08060130  0.27708291  0.78086903  1  1.61869  0  0.224995  0.586644  0  4.190161  0
C  C89  1  0.08060873  0.72291720  0.21913279  1  1.618593  0  0.224985  0.586657  0  4.190121  0
C  C90  1  0.91939307  0.22291362  0.28086708  1  1.618591  0  0.225051  0.586675  0  4.189941  0
C  C91  1  0.91939325  0.77708504  0.71913195  1  1.618672  0  0.225021  0.586684  0  4.19003  0
N  N92  1  0.63217246  0.85151148  0.29136689  1  -1.267064  0  -0.354757  -0.364311  0  3.500411  0
N  N93  1  0.63216943  0.14848743  0.70863197  1  -1.26724  0  -0.354758  -0.364336  0  3.500578  0
N  N94  1  0.36782902  0.64848807  0.79136887  1  -1.267255  0  -0.354774  -0.364324  0  3.500511  0
N  N95  1  0.36782900  0.35151109  0.20863119  1  -1.267261  0  -0.354763  -0.364261  0  3.500367  0
N  N96  1  0.83547815  0.96109033  0.27493812  1  -1.34629  0  -0.582635  -0.63541  0  3.348257  0
N  N97  1  0.83547437  0.03890770  0.72506067  1  -1.346302  0  -0.582633  -0.635493  0  3.348193  0
N  N98  1  0.16452317  0.53890850  0.77494004  1  -1.34629  0  -0.582634  -0.635475  0  3.34815  0
N  N99  1  0.16452422  0.46109153  0.22505944  1  -1.346301  0  -0.582608  -0.635454  0  3.348136  0
N  N100  1  0.15795340  0.25552975  0.05363160  1  -1.267445  0  -0.345811  -0.345686  0  3.500904  0
N  N101  1  0.15795820  0.74447237  0.94636980  1  -1.267433  0  -0.345912  -0.345777  0  3.500834  0
N  N102  1  0.84204237  0.24447205  0.55363050  1  -1.267403  0  -0.345889  -0.34574  0  3.50085  0
N  N103  1  0.84204239  0.75552877  0.44636960  1  -1.267419  0  -0.345914  -0.345754  0  3.500942  0
N  N104  1  0.96075235  0.14110369  0.06317782  1  -1.321922  0  -0.574422  -0.623117  0  3.31611  0
N  N105  1  0.96075676  0.85889771  0.93682454  1  -1.322157  0  -0.574424  -0.623063  0  3.316389  0
N  N106  1  0.03924351  0.35889812  0.56317717  1  -1.321977  0  -0.574378  -0.622956  0  3.316286  0
N  N107  1  0.03924729  0.64110480  0.43682389  1  -1.321843  0  -0.574436  -0.623087  0  3.316227  0
O  O108  1  0.14024877  0.04516946  0.24354460  1  -1.172857  0  -0.318957  -0.535546  0  2.140347  0
O  O109  1  0.14024291  0.95482642  0.75645031  1  -1.173187  0  -0.318909  -0.535539  0  2.14007  0
O  O110  1  0.85975237  0.45482424  0.74355280  1  -1.173355  0  -0.318956  -0.535608  0  2.14034  0
O  O111  1  0.85975468  0.54517447  0.25644928  1  -1.173165  0  -0.318925  -0.535601  0  2.140154  0
O  O112  1  0.34547398  0.13956871  0.20778649  1  -1.178356  0  -0.342382  -0.567333  0  2.359415  0
O  O113  1  0.34547345  0.86043046  0.79221350  1  -1.178367  0  -0.342398  -0.5674  0  2.359463  0
O  O114  1  0.65452445  0.36042981  0.70778628  1  -1.178435  0  -0.342406  -0.567389  0  2.35947  0
O  O115  1  0.65452685  0.63957048  0.29221329  1  -1.178434  0  -0.342419  -0.567452  0  2.359453  0
O  O116  1  0.96975672  0.22301338  0.75223025  1  -1.209018  0  -0.336565  -0.586925  0  2.425159  0
O  O117  1  0.96975716  0.77698314  0.24777150  1  -1.208997  0  -0.336646  -0.587023  0  2.425202  0
O  O118  1  0.03024213  0.27698380  0.25222908  1  -1.208969  0  -0.336609  -0.586993  0  2.424974  0
O  O119  1  0.03024509  0.72301774  0.74777067  1  -1.208974  0  -0.336644  -0.586997  0  2.425089  0
O  O120  1  0.15720911  0.33398334  0.73632249  1  -1.181492  0  -0.291297  -0.520499  0  2.196047  0
O  O121  1  0.15721948  0.66601809  0.26367955  1  -1.181548  0  -0.291262  -0.520497  0  2.196053  0
O  O122  1  0.84278602  0.16601452  0.23632091  1  -1.181489  0  -0.291289  -0.520496  0  2.196132  0
O  O123  1  0.84278411  0.83398282  0.76367919  1  -1.181523  0  -0.291243  -0.520477  0  2.196027  0
