# generated using pymatgen
data_NaCuH19C11NO9
_symmetry_space_group_name_H-M   'P 1'
_cell_length_a   9.16148970
_cell_length_b   10.25679898
_cell_length_c   10.83317180
_cell_angle_alpha   65.06294085
_cell_angle_beta   74.56181972
_cell_angle_gamma   86.14708346
_symmetry_Int_Tables_number   1
_chemical_formula_structural   NaCuH19C11NO9
_chemical_formula_sum   'Na2 Cu2 H38 C22 N2 O18'
_cell_volume   888.57535432
_cell_formula_units_Z   2
loop_
 _symmetry_equiv_pos_site_id
 _symmetry_equiv_pos_as_xyz
  1  'x, y, z'
loop_
 _atom_site_type_symbol
 _atom_site_label
 _atom_site_symmetry_multiplicity
 _atom_site_fract_x
 _atom_site_fract_y
 _atom_site_fract_z
 _atom_site_occupancy
 _atom_site_hle17_ddec_charge
 _atom_site_hle17_ddec_spin_density
 _atom_site_hle17_ddec_sum_bond_order
 _atom_site_hle17_magmom
 _atom_site_hse06_10hf_ddec_charge
 _atom_site_hse06_10hf_ddec_spin_density
 _atom_site_hse06_10hf_ddec_sum_bond_order
 _atom_site_hse06_10hf_magmom
 _atom_site_hse06_ddec_charge
 _atom_site_hse06_ddec_spin_density
 _atom_site_hse06_ddec_sum_bond_order
 _atom_site_hse06_magmom
 _atom_site_pbe_cm5_charge
 _atom_site_pbe_ddec_charge
 _atom_site_pbe_ddec_spin_density
 _atom_site_pbe_ddec_sum_bond_order
 _atom_site_pbe_magmom
Na  Na0  1  0.06245986  0.18353296  0.40143601  1  0.893902  0.000136  0.385756  0.0  0.847367  0.000131  0.542375  0.0  0.857666  7.9e-05  0.521547  0.0  0.661866  0.839721  0.000164  0.557446  0.0
Na  Na1  1  0.93753712  0.81645134  0.59856098  1  0.893958  -0.000136  0.385669  0.0  0.847398  -0.000132  0.542283  0.0  0.857687  -8.2e-05  0.52145  0.0  0.661869  0.839757  -0.000165  0.55735  0.0
Cu  Cu2  1  0.45849822  0.14481141  0.40422515  1  0.865177  0.671882  1.76926  0.482  0.847896  0.775319  2.143641  0.613  0.941068  0.853884  2.07969  0.7  0.710714  0.786339  0.704263  2.191992  0.545
Cu  Cu3  1  0.54151028  0.85518096  0.59578072  1  0.865167  -0.671877  1.769239  -0.482  0.847922  -0.775317  2.143518  -0.613  0.941007  -0.853877  2.079624  -0.7  0.710718  0.786433  -0.704264  2.191773  -0.545
H  H4  1  0.55517725  0.35823139  0.43503609  1  0.381053  -2.8e-05  0.912617  0.0  0.353418  -1.1e-05  0.987306  0.0  0.364765  -2.7e-05  0.974978  0.0  0.294552  0.345443  9e-06  0.995883  0.0
H  H5  1  0.44482248  0.64177257  0.56496697  1  0.381026  2.8e-05  0.912667  0.0  0.353376  1.1e-05  0.987379  0.0  0.364723  2.8e-05  0.975052  0.0  0.2945  0.3454  -9e-06  0.995959  0.0
H  H6  1  0.66936519  0.43580494  0.04686914  1  0.107755  0.004498  0.951175  0.006  0.119632  0.002463  1.013695  0.003  0.121481  0.001593  1.012392  0.002  0.110977  0.117923  0.002983  1.015044  0.004
H  H7  1  0.33063451  0.56419795  0.95313438  1  0.107711  -0.00449  0.951244  -0.006  0.119599  -0.002463  1.013759  -0.003  0.121446  -0.001593  1.012451  -0.002  0.110966  0.117889  -0.002982  1.015102  -0.004
H  H8  1  0.50724644  0.44819317  0.17659561  1  0.091336  0.000248  0.939588  0.001  0.103309  0.000177  1.004899  0.0  0.103577  0.000121  1.006096  0.0  0.109617  0.102584  0.000236  1.004679  0.0
H  H9  1  0.49274872  0.55180959  0.82340805  1  0.091304  -0.00025  0.939761  -0.001  0.103271  -0.000177  1.005062  0.0  0.103538  -0.000121  1.006257  0.0  0.109589  0.10256  -0.000236  1.004832  0.0
H  H10  1  0.81681184  0.33213764  0.22454140  1  0.063797  -3.6e-05  0.933193  0.0  0.077132  -2.1e-05  0.99967  0.0  0.07868  -1.3e-05  0.997525  0.0  0.108226  0.075806  -4.5e-05  1.001364  0.0
H  H11  1  0.18319023  0.66786962  0.77545979  1  0.063824  3.4e-05  0.933243  0.0  0.07716  2.1e-05  0.9997  0.0  0.078707  1.3e-05  0.997556  0.0  0.108252  0.075833  4.4e-05  1.001392  0.0
H  H12  1  0.74145657  0.49598986  0.21970537  1  0.056993  -0.000156  0.910369  0.0  0.077721  -4e-05  0.966005  0.0  0.078002  -3.3e-05  0.965279  0.0  0.10513  0.076854  -4.9e-05  0.967571  0.0
H  H13  1  0.25853992  0.50402044  0.78029397  1  0.057034  0.000166  0.910331  0.0  0.077739  4e-05  0.965997  0.0  0.077993  3.3e-05  0.965304  0.0  0.105146  0.076869  4.9e-05  0.967568  0.0
H  H14  1  0.47897620  0.31208776  0.00036498  1  0.09455  0.005516  0.922402  0.007  0.108648  0.003432  0.981889  0.004  0.108325  0.002379  0.982483  0.003  0.111998  0.108469  0.004009  0.981889  0.005
H  H15  1  0.52103392  0.68792408  0.99963714  1  0.094451  -0.00553  0.922381  -0.007  0.108531  -0.003434  0.981922  -0.004  0.108211  -0.00238  0.982519  -0.003  0.11198  0.108354  -0.004011  0.981917  -0.005
H  H16  1  0.34463085  0.33798374  0.14035738  1  0.103912  0.000221  0.961429  0.001  0.112319  0.000145  1.028691  0.001  0.113602  8.9e-05  1.028523  0.0  0.115971  0.110793  0.000218  1.029401  0.001
H  H17  1  0.65537228  0.66202032  0.85964489  1  0.103921  -0.00023  0.961321  -0.001  0.112317  -0.000145  1.028616  -0.001  0.113604  -8.9e-05  1.028456  0.0  0.115992  0.11079  -0.000218  1.029335  -0.001
H  H18  1  0.23580356  0.95710727  0.33292055  1  0.378671  3.6e-05  0.924036  0.0  0.357971  1e-05  0.986088  0.0  0.368315  1.3e-05  0.971064  0.0  0.294068  0.350624  9e-06  0.996808  0.0
H  H19  1  0.76420406  0.04289452  0.66706687  1  0.378716  -3.6e-05  0.923932  0.0  0.357999  -1e-05  0.986041  0.0  0.368341  -1.3e-05  0.971018  0.0  0.29407  0.350649  -9e-06  0.996764  0.0
H  H20  1  0.24995674  0.16056662  0.08665865  1  0.042268  -0.00018  0.904827  0.0  0.061208  -4.2e-05  0.961401  0.0  0.062231  -4.1e-05  0.960019  0.0  0.099998  0.060514  -4.7e-05  0.962249  0.0
H  H21  1  0.75004774  0.83944598  0.91333334  1  0.042283  0.000187  0.904823  0.0  0.061225  4.1e-05  0.961405  0.0  0.062243  4.1e-05  0.960025  0.0  0.099995  0.060532  4.7e-05  0.962253  0.0
H  H22  1  0.40509463  0.04876441  0.11956163  1  0.028829  -4.1e-05  0.939457  0.0  0.044802  -1.1e-05  1.005024  0.0  0.045399  -7e-06  1.0036  0.0  0.093005  0.044488  -1.8e-05  1.005854  0.0
H  H23  1  0.59491658  0.95124508  0.88042736  1  0.028838  4.9e-05  0.939474  0.0  0.044821  1.1e-05  1.005038  0.0  0.045413  6e-06  1.003618  0.0  0.093025  0.044508  1.8e-05  1.005868  0.0
H  H24  1  0.66646048  0.15370417  0.04703465  1  0.086766  0.00131  0.92374  0.002  0.103261  0.000858  0.982317  0.001  0.103854  0.00064  0.981833  0.001  0.107805  0.101744  0.001082  0.983509  0.001
H  H25  1  0.33354149  0.84629875  0.95296650  1  0.086775  -0.001314  0.923705  -0.002  0.103267  -0.000858  0.982279  -0.001  0.103861  -0.00064  0.981794  -0.001  0.107804  0.10176  -0.001081  0.983477  -0.001
H  H26  1  0.77196692  0.18722376  0.14618167  1  0.079733  0.000348  0.929991  0.001  0.09853  0.000123  0.985325  0.0  0.098939  6.8e-05  0.985236  0.0  0.113465  0.098082  0.000161  0.985155  0.0
H  H27  1  0.22803270  0.81277592  0.85382411  1  0.079678  -0.000348  0.930058  -0.001  0.09847  -0.000123  0.985383  0.0  0.09888  -6.8e-05  0.985295  0.0  0.113447  0.098031  -0.000161  0.985222  0.0
H  H28  1  0.53003611  0.93868161  0.26905004  1  0.052259  -3.6e-05  0.93923  0.0  0.06569  -7.1e-05  1.006091  0.0  0.06486  -4.3e-05  1.005582  0.0  0.097863  0.065491  -0.000114  1.007348  0.0
H  H29  1  0.46995682  0.06132209  0.73094912  1  0.052231  4.1e-05  0.939193  0.0  0.06566  7.2e-05  1.006069  0.0  0.064828  4.3e-05  1.005565  0.0  0.097866  0.065461  0.000114  1.007324  0.0
H  H30  1  0.72828015  0.92553242  0.24882864  1  0.047981  0.002869  0.914265  0.004  0.067092  0.001975  0.971781  0.002  0.065674  0.001317  0.972061  0.002  0.097194  0.067455  0.002391  0.972284  0.003
H  H31  1  0.27171840  0.07446936  0.75117467  1  0.047973  -0.002867  0.91417  -0.004  0.067045  -0.001977  0.971753  -0.002  0.065642  -0.001318  0.972015  -0.002  0.097185  0.067409  -0.002392  0.972256  -0.003
H  H32  1  0.75501497  0.25716444  0.50299581  1  0.425055  7.2e-05  0.880445  0.0  0.392842  4.9e-05  0.945008  0.0  0.403818  4.2e-05  0.929181  0.0  0.293595  0.385081  5.4e-05  0.956177  0.0
H  H33  1  0.24498590  0.74283945  0.49700057  1  0.42487  -7.2e-05  0.88072  0.0  0.392713  -4.9e-05  0.9452  0.0  0.403689  -4.2e-05  0.929371  0.0  0.293526  0.384953  -5.4e-05  0.956368  0.0
H  H34  1  0.82476864  0.28244767  0.61063505  1  0.416463  -2e-06  0.85105  0.0  0.391518  -1e-06  0.922003  0.0  0.398568  0.0  0.911776  0.0  0.306141  0.386352  4e-06  0.928121  0.0
H  H35  1  0.17524672  0.71754686  0.38935732  1  0.416526  2e-06  0.850921  0.0  0.391559  0.0  0.921951  0.0  0.398611  0.0  0.91172  0.0  0.30616  0.386391  -4e-06  0.928056  0.0
H  H36  1  0.11969792  0.39206804  0.69919078  1  0.102069  -3.1e-05  0.942377  0.0  0.112473  2.1e-05  1.003695  0.0  0.11654  1.6e-05  1.000841  0.0  0.105457  0.109453  6e-06  1.006256  0.0
H  H37  1  0.88029453  0.60791620  0.30081095  1  0.102058  3.2e-05  0.942479  0.0  0.112437  -2.1e-05  1.003815  0.0  0.116509  -1.5e-05  1.000954  0.0  0.105424  0.109417  -6e-06  1.006374  0.0
H  H38  1  0.20683442  0.97625486  0.60860261  1  0.42192  -0.000518  0.889829  0.0  0.391233  -0.000531  0.95448  0.0  0.402766  -0.0004  0.937894  0.0  0.288811  0.382976  -0.000597  0.966416  0.0
H  H39  1  0.79316259  0.02373073  0.39140678  1  0.421924  0.000515  0.889818  0.0  0.391228  0.000531  0.954483  0.0  0.402761  0.000402  0.937896  0.0  0.288791  0.382969  0.000598  0.966418  0.0
H  H40  1  0.04483131  0.99126946  0.69915337  1  0.409039  1.6e-05  0.847532  0.0  0.398338  8e-06  0.895738  0.0  0.405851  1e-05  0.886005  0.0  0.320678  0.393123  1.2e-05  0.901872  0.0
H  H41  1  0.95516599  0.00872779  0.30084008  1  0.408968  -2e-05  0.847551  0.0  0.398264  -8e-06  0.895769  0.0  0.405779  -1e-05  0.886089  0.0  0.32062  0.393049  -1.2e-05  0.901907  0.0
C  C42  1  0.60611802  0.38501139  0.15924690  1  -0.092887  -0.002859  3.611406  -0.006  -0.150122  -0.000334  3.879149  -0.003  -0.148043  -0.001077  3.893559  -0.003  -0.084782  -0.150822  0.00067  3.870008  -0.002
C  C43  1  0.39388276  0.61498943  0.84075999  1  -0.092865  0.002865  3.611536  0.006  -0.150088  0.000336  3.879277  0.003  -0.148003  0.001075  3.893668  0.003  -0.084781  -0.150794  -0.000669  3.870137  0.002
C  C44  1  0.71023738  0.38321291  0.24820328  1  0.13738  0.00107  3.61826  0.002  0.070213  0.000602  3.901895  0.001  0.07734  0.000358  3.908112  0.001  -0.072173  0.065538  0.000831  3.897718  0.001
C  C45  1  0.28976356  0.61679438  0.75180184  1  0.137359  -0.001097  3.618315  -0.002  0.070194  -0.000599  3.901959  -0.001  0.077335  -0.000354  3.908165  -0.001  -0.072188  0.065517  -0.000831  3.897789  -0.001
C  C46  1  0.42372585  0.26236644  0.11457693  1  -0.079369  -0.001322  3.610987  -0.005  -0.129948  0.000931  3.870889  -0.001  -0.127548  3.7e-05  3.8862  -0.002  -0.077112  -0.130859  0.001565  3.861103  -0.001
C  C47  1  0.57627288  0.73764282  0.88542049  1  -0.079145  0.001386  3.610818  0.005  -0.129757  -0.00093  3.870865  0.001  -0.127322  -3.8e-05  3.886085  0.002  -0.077079  -0.130675  -0.001564  3.86109  0.001
C  C48  1  0.33341899  0.12668405  0.15026377  1  0.142724  0.000759  3.691182  0.001  0.080218  0.000563  3.973932  0.001  0.087259  0.000393  3.980355  0.001  -0.075005  0.075492  0.000677  3.968704  0.001
C  C49  1  0.66658533  0.87332213  0.84973366  1  0.142678  -0.000806  3.690995  -0.001  0.080155  -0.000561  3.973776  -0.001  0.087202  -0.000393  3.980202  -0.001  -0.075014  0.075428  -0.000677  3.968553  -0.001
C  C50  1  0.66166024  0.14571456  0.15257847  1  -0.056636  -0.00558  3.60877  -0.008  -0.112786  -0.002024  3.868725  -0.004  -0.110011  -0.001931  3.883056  -0.004  -0.077472  -0.114034  -0.00185  3.859557  -0.004
C  C51  1  0.33833952  0.85429045  0.84742231  1  -0.056685  0.005584  3.60873  0.008  -0.112788  0.002023  3.868669  0.004  -0.110021  0.001931  3.883003  0.004  -0.077466  -0.114089  0.001849  3.859575  0.004
C  C52  1  0.63177218  0.99185741  0.26681285  1  0.102356  -0.001189  3.705518  -0.001  0.040975  -0.000142  3.992981  -0.001  0.052762  -0.000318  4.003635  -0.001  -0.091788  0.032576  0.000174  3.987321  0.0
C  C53  1  0.36822294  0.00814314  0.73318804  1  0.102515  0.001182  3.705445  0.001  0.041114  0.000143  3.992949  0.001  0.052891  0.000322  4.003604  0.001  -0.091769  0.032728  -0.00017  3.987296  0.0
C  C54  1  0.06589805  0.43895288  0.61244672  1  -0.112457  0.001703  3.758192  0.002  -0.14521  0.001118  4.01587  0.001  -0.145376  0.000905  4.031993  0.001  -0.088943  -0.145042  0.001318  4.004921  0.001
C  C55  1  0.93408989  0.56103230  0.38755471  1  -0.112512  -0.001712  3.758232  -0.002  -0.145252  -0.001119  4.015892  -0.001  -0.145426  -0.000904  4.032027  -0.001  -0.088936  -0.145082  -0.001319  4.00494  -0.001
C  C56  1  0.14052747  0.43854142  0.48202865  1  -0.091651  0.00436  3.78119  0.005  -0.079641  0.002824  4.022762  0.003  -0.083151  0.001961  4.038841  0.002  -0.021427  -0.076939  0.003087  4.011454  0.004
C  C57  1  0.85946174  0.56144920  0.51797210  1  -0.091602  -0.004351  3.781302  -0.005  -0.079583  -0.002828  4.022867  -0.003  -0.083096  -0.001962  4.038947  -0.002  -0.021481  -0.076885  -0.003087  4.011564  -0.004
C  C58  1  0.28788869  0.36610864  0.46889041  1  0.655627  -0.001846  3.886142  -0.004  0.609549  0.000459  4.187542  -0.001  0.645641  0.000162  4.178676  -0.001  0.211301  0.584895  0.000821  4.192895  -0.001
C  C59  1  0.71210505  0.63388219  0.53111478  1  0.655695  0.001828  3.885862  0.004  0.609606  -0.000451  4.187264  0.001  0.645696  -0.000159  4.178399  0.001  0.211281  0.584956  -0.000821  4.192624  0.001
C  C60  1  0.92513674  0.49943135  0.63265483  1  -0.083586  -0.001895  3.772042  -0.002  -0.071411  -0.00081  4.013805  -0.001  -0.071295  -0.000639  4.027928  -0.001  -0.022327  -0.071686  -0.00054  4.004307  0.0
C  C61  1  0.07486051  0.50056381  0.36734410  1  -0.083541  0.001904  3.771967  0.002  -0.071329  0.000808  4.013668  0.001  -0.071221  0.000639  4.027801  0.001  -0.022341  -0.071602  0.000539  4.004167  0.0
C  C62  1  0.84626691  0.49871054  0.77508054  1  0.643083  9.3e-05  4.010764  0.0  0.59748  -3.1e-05  4.316562  0.0  0.629777  -1.1e-05  4.308048  0.0  0.177211  0.575304  -2.1e-05  4.320665  0.0
C  C63  1  0.15373379  0.50128690  0.22491853  1  0.643071  -0.000103  4.010858  0.0  0.597491  3.3e-05  4.316601  0.0  0.629791  9e-06  4.308079  0.0  0.177248  0.57531  2.1e-05  4.320711  0.0
N  N64  1  0.54333558  0.24032186  0.19045983  1  -0.15928  0.11492  3.205255  0.144  -0.093247  0.071835  3.47341  0.097  -0.126515  0.057754  3.504884  0.082  -0.348756  -0.073574  0.076901  3.454097  0.1
N  N65  1  0.45666871  0.75968331  0.80954173  1  -0.159258  -0.114922  3.205272  -0.144  -0.093269  -0.071834  3.473504  -0.097  -0.126518  -0.057757  3.504972  -0.082  -0.348788  -0.073599  -0.076895  3.454214  -0.1
O  O66  1  0.64474862  0.30842313  0.39800500  1  -0.591381  -0.001134  2.168681  0.0  -0.528834  -0.000994  2.406363  0.0  -0.550526  -0.001194  2.392262  -0.001  -0.397351  -0.513196  -0.000756  2.416186  0.0
O  O67  1  0.35525224  0.69158095  0.60200239  1  -0.591344  0.001137  2.168684  0.0  -0.528781  0.000994  2.406319  0.0  -0.550458  0.001192  2.392207  0.001  -0.397312  -0.513149  0.000756  2.416143  0.0
O  O68  1  0.25867338  0.06283807  0.29746234  1  -0.616763  -0.000783  2.112458  0.0  -0.568935  -0.000842  2.359447  0.0  -0.586492  -0.000929  2.342648  -0.001  -0.458649  -0.55597  -0.000637  2.371531  0.0
O  O69  1  0.74133194  0.93716260  0.70252698  1  -0.616887  0.000784  2.112327  0.0  -0.56901  0.000842  2.359297  0.0  -0.586561  0.00093  2.342489  0.001  -0.458672  -0.556053  0.000637  2.371392  0.0
O  O70  1  0.09460028  0.97356915  0.61702341  1  -0.885476  -0.001285  1.799242  -0.002  -0.846764  -0.001023  1.977919  -0.001  -0.862998  -0.000724  1.948206  -0.001  -0.679349  -0.835215  -0.001255  1.998281  -0.002
O  O71  1  0.90540239  0.02641651  0.38298006  1  -0.885425  0.001297  1.799255  0.002  -0.84668  0.001024  1.977897  0.001  -0.862918  0.000724  1.948238  0.001  -0.679292  -0.835127  0.001256  1.998262  0.002
O  O72  1  0.61396252  0.00175756  0.39766173  1  -0.63183  0.026478  2.193403  0.034  -0.592222  0.016362  2.520016  0.023  -0.645642  0.013156  2.517675  0.019  -0.402438  -0.557622  0.016404  2.524665  0.022
O  O73  1  0.38603279  0.99825059  0.60234060  1  -0.631957  -0.026491  2.193422  -0.034  -0.592261  -0.016364  2.51995  -0.023  -0.645687  -0.013161  2.517625  -0.019  -0.402463  -0.557657  -0.01641  2.524593  -0.022
O  O74  1  0.82259123  0.21464713  0.56931641  1  -0.849409  2.5e-05  1.830344  0.0  -0.794656  2.6e-05  1.998344  0.0  -0.813049  6e-06  1.970748  0.0  -0.59774  -0.781375  9.2e-05  2.016727  0.0
O  O75  1  0.17742093  0.78535479  0.43067087  1  -0.849319  -2.4e-05  1.83038  0.0  -0.794611  -2.6e-05  1.998346  0.0  -0.812998  -7e-06  1.970754  0.0  -0.597675  -0.781331  -9.2e-05  2.016713  0.0
O  O76  1  0.29244470  0.27307920  0.41605769  1  -0.669552  0.060999  2.15563  0.082  -0.632904  0.042654  2.450318  0.062  -0.672199  0.034446  2.439825  0.053  -0.378692  -0.60599  0.046483  2.457753  0.065
O  O77  1  0.70756159  0.72691508  0.58393680  1  -0.669589  -0.060991  2.155764  -0.082  -0.632873  -0.042657  2.45032  -0.062  -0.672133  -0.034448  2.439778  -0.053  -0.378624  -0.605981  -0.046482  2.457758  -0.065
O  O78  1  0.39151765  0.39546189  0.51015055  1  -0.569277  -0.001019  1.945949  -0.001  -0.524241  -0.000489  2.159234  0.0  -0.547045  -0.00078  2.149312  -0.001  -0.303964  -0.50841  -0.00013  2.165737  0.0
O  O79  1  0.60846397  0.60454260  0.48985174  1  -0.569331  0.001024  1.945667  0.001  -0.524319  0.000486  2.158997  0.0  -0.547122  0.000777  2.149072  0.001  -0.304016  -0.508489  0.000129  2.165505  0.0
O  O80  1  0.73653444  0.40734358  0.84933461  1  -0.643339  -0.001891  1.881443  -0.003  -0.60478  -0.000173  2.103663  0.0  -0.627997  5e-06  2.094316  0.0  -0.351138  -0.585548  0.000831  2.108381  0.001
O  O81  1  0.26347307  0.59265389  0.15065369  1  -0.643389  0.001893  1.881412  0.003  -0.604845  0.000173  2.103638  0.0  -0.628062  -4e-06  2.094286  0.0  -0.351242  -0.585611  -0.000832  2.108354  -0.001
O  O82  1  0.89778437  0.59160648  0.80385544  1  -0.697788  0.000162  1.854147  0.0  -0.655135  -9e-06  2.073153  0.0  -0.678872  -1.2e-05  2.06275  0.0  -0.406457  -0.636838  0.000267  2.078832  0.0
O  O83  1  0.10220076  0.40840241  0.19614426  1  -0.69772  -0.000164  1.854242  0.0  -0.655111  8e-06  2.073273  0.0  -0.678843  1.2e-05  2.062865  0.0  -0.406397  -0.636827  -0.000267  2.07898  0.0
