# generated using pymatgen
data_Li3H17C22NO9
_symmetry_space_group_name_H-M   'P 1'
_cell_length_a   9.74612601
_cell_length_b   10.83335119
_cell_length_c   11.50239272
_cell_angle_alpha   116.12632079
_cell_angle_beta   92.87052695
_cell_angle_gamma   110.60825801
_symmetry_Int_Tables_number   1
_chemical_formula_structural   Li3H17C22NO9
_chemical_formula_sum   'Li6 H34 C44 N2 O18'
_cell_volume   989.74432643
_cell_formula_units_Z   2
loop_
 _symmetry_equiv_pos_site_id
 _symmetry_equiv_pos_as_xyz
  1  'x, y, z'
loop_
 _atom_site_type_symbol
 _atom_site_label
 _atom_site_symmetry_multiplicity
 _atom_site_fract_x
 _atom_site_fract_y
 _atom_site_fract_z
 _atom_site_occupancy
 _atom_site_hle17_bader_spin_density
 _atom_site_hle17_ddec_charge
 _atom_site_hle17_ddec_spin_density
 _atom_site_hle17_ddec_sum_bond_order
 _atom_site_hle17_magmom
 _atom_site_hse06_10hf_bader_spin_density
 _atom_site_hse06_10hf_ddec_charge
 _atom_site_hse06_10hf_ddec_spin_density
 _atom_site_hse06_10hf_ddec_sum_bond_order
 _atom_site_hse06_10hf_magmom
 _atom_site_hse06_bader_spin_density
 _atom_site_hse06_ddec_charge
 _atom_site_hse06_ddec_spin_density
 _atom_site_hse06_ddec_sum_bond_order
 _atom_site_hse06_magmom
 _atom_site_pbe_bader_spin_density
 _atom_site_pbe_cm5_charge
 _atom_site_pbe_ddec_charge
 _atom_site_pbe_ddec_spin_density
 _atom_site_pbe_ddec_sum_bond_order
 _atom_site_pbe_magmom
Li  Li0  1  0.93107303  0.45530994  0.66290449  1  0  0.854199  0  0.406249  0  0  0.819547  0  0.504046  0  0  0.8281  0  0.488217  0  0  0.505023  0.813547  0  0.515001  0
Li  Li1  1  0.06892187  0.54469688  0.33709378  1  0  0.854176  0  0.40627  0  0  0.819547  0  0.504039  0  0  0.828102  0  0.488207  0  0  0.50506  0.81357  0  0.514989  0
Li  Li2  1  0.76553899  0.22958706  0.79470607  1  0  0.856943  0  0.389244  0  0  0.810877  0  0.506046  0  0  0.821219  0  0.488179  0  0  0.506857  0.80346  0  0.518733  0
Li  Li3  1  0.23447234  0.77040736  0.20529556  1  0  0.856934  0  0.389226  0  0  0.810872  0  0.506037  0  0  0.82121  0  0.488167  0  0  0.506916  0.803484  0  0.518719  0
Li  Li4  1  0.71487842  0.17885220  0.50420549  1  0  0.859191  0  0.392571  0  0  0.821731  0  0.494678  0  0  0.830582  0  0.478727  0  0  0.49959  0.815715  0  0.505625  0
Li  Li5  1  0.28511712  0.82115121  0.49579660  1  0  0.859205  0  0.392572  0  0  0.821738  0  0.494693  0  0  0.830593  0  0.478736  0  0  0.499598  0.815729  0  0.505639  0
H  H6  1  0.79705259  0.65224156  0.61345441  1  0  0.111432  0  0.957796  0  0  0.123439  0  1.016948  0  0  0.126704  0  1.015948  0  0  0.109783  0.122353  0  1.015114  0
H  H7  1  0.20294708  0.34776189  0.38654005  1  0  0.111429  0  0.957737  0  0  0.123422  0  1.016929  0  0  0.126688  0  1.015927  0  0  0.10979  0.122337  0  1.015108  0
H  H8  1  0.64047967  0.79857558  0.67310994  1  0  0.112836  0  0.947707  0  0  0.1243  0  1.006729  0  0  0.127733  0  1.005695  0  0  0.107562  0.121956  0  1.007147  0
H  H9  1  0.35952038  0.20143127  0.32688334  1  0  0.112808  0  0.947723  0  0  0.124301  0  1.006697  0  0  0.127736  0  1.005662  0  0  0.10758  0.121963  0  1.007131  0
H  H10  1  0.50426763  0.30832834  0.06773354  1  0  0.120524  0  0.948224  0  0  0.130891  0  1.006214  0  0  0.134539  0  1.004863  0  0  0.107382  0.128194  0  1.007344  0
H  H11  1  0.49573659  0.69166379  0.93226683  1  0  0.120404  0  0.9483  0  0  0.130797  0  1.006264  0  0  0.13444  0  1.004917  0  0  0.10734  0.12809  0  1.007399  0
H  H12  1  0.31529464  0.41944454  0.12373398  1  0  0.107403  0  0.965557  0  0  0.118405  0  1.026474  0  0  0.121303  0  1.026371  0  0  0.105353  0.116061  0  1.027153  0
H  H13  1  0.68470958  0.58054758  0.87626987  1  0  0.107459  0  0.96554  0  0  0.118451  0  1.026448  0  0  0.121356  0  1.026338  0  0  0.105405  0.11608  0  1.027146  0
H  H14  1  0.99939840  0.84939156  0.25496523  1  0  0.113016  0  0.956533  0  0  0.123115  0  1.017641  0  0  0.126897  0  1.016012  0  0  0.113929  0.120264  0  1.019008  0
H  H15  1  0.00059508  0.15061185  0.74503590  1  0  0.113032  0  0.956538  0  0  0.123124  0  1.017655  0  0  0.12691  0  1.016021  0  0  0.113937  0.120274  0  1.018993  0
H  H16  1  0.85224597  0.00567319  0.31631298  1  0  0.116994  0  0.951013  0  0  0.126298  0  1.014495  0  0  0.129852  0  1.013622  0  0  0.111195  0.124053  0  1.014813  0
H  H17  1  0.14775668  0.99433250  0.68369123  1  0  0.116972  0  0.950912  0  0  0.126268  0  1.014413  0  0  0.129828  0  1.013529  0  0  0.11117  0.12401  0  1.014721  0
H  H18  1  0.47966414  0.17635821  0.59952948  1  0  0.090861  0  0.925395  0  0  0.094926  0  0.995716  0  0  0.100297  0  0.989167  0  0  0.129515  0.090586  0  1.001394  0
H  H19  1  0.52032955  0.82364071  0.40046023  1  0  0.090895  0  0.925317  0  0  0.094963  0  0.995639  0  0  0.100341  0  0.989079  0  0  0.129526  0.090633  0  1.001334  0
H  H20  1  0.18685284  0.46446981  0.72870222  1  0  0.088031  0  0.935566  0  0  0.095652  0  1.000396  0  0  0.099848  0  0.995802  0  0  0.121683  0.092261  0  1.004108  0
H  H21  1  0.81315009  0.53552912  0.27129311  1  0  0.088012  0  0.935565  0  0  0.095656  0  1.000376  0  0  0.099855  0  0.995779  0  0  0.121779  0.092341  0  1.004028  0
H  H22  1  0.81302823  0.91868843  0.01037359  1  0  0.146995  0  0.928355  0  0  0.164753  0  0.986628  0  0  0.165605  0  0.98778  0  0  0.112949  0.164076  0  0.985878  0
H  H23  1  0.18697101  0.08129914  0.98963423  1  0  0.147014  0  0.928294  0  0  0.164711  0  0.986678  0  0  0.165579  0  0.987811  0  0  0.112917  0.164032  0  0.985941  0
H  H24  1  0.73723788  0.04006700  0.12101641  1  0  0.167108  0  0.912437  0  0  0.186423  0  0.964958  0  0  0.188554  0  0.963567  0  0  0.124644  0.184855  0  0.96598  0
H  H25  1  0.26275716  0.95992283  0.87898783  1  0  0.167084  0  0.912506  0  0  0.186491  0  0.964929  0  0  0.188621  0  0.963541  0  0  0.124635  0.184913  0  0.965958  0
H  H26  1  0.93596678  0.10196371  0.14739181  1  0  0.152657  0  0.924283  0  0  0.171668  0  0.980608  0  0  0.172946  0  0.980569  0  0  0.119046  0.170847  0  0.98036  0
H  H27  1  0.06402771  0.89802727  0.85260680  1  0  0.152623  0  0.924165  0  0  0.171612  0  0.980554  0  0  0.172889  0  0.980518  0  0  0.119034  0.170801  0  0.980278  0
H  H28  1  0.18455213  0.65436492  0.69046426  1  0  0.427073  0  0.878245  0  0  0.39424  0  0.945381  0  0  0.405213  0  0.929358  0  0  0.296483  0.387074  0  0.955932  0
H  H29  1  0.81545062  0.34563853  0.30953467  1  0  0.427043  0  0.878289  0  0  0.39419  0  0.945453  0  0  0.405168  0  0.929426  0  0  0.296491  0.387027  0  0.956003  0
H  H30  1  0.06572630  0.66189729  0.60005987  1  0  0.422573  0  0.877555  0  0  0.395286  0  0.936693  0  0  0.404754  0  0.922631  0  0  0.307732  0.388483  0  0.946696  0
H  H31  1  0.93427532  0.33810841  0.39994170  1  0  0.422564  0  0.877558  0  0  0.395274  0  0.936703  0  0  0.404742  0  0.922638  0  0  0.307713  0.388468  0  0.946707  0
H  H32  1  0.88617335  0.48547675  0.89902378  1  0  0.423745  0  0.885468  0  0  0.392315  0  0.949583  0  0  0.404157  0  0.932399  0  0  0.29903  0.384026  0  0.961495  0
H  H33  1  0.11382975  0.51451764  0.10097835  1  0  0.423732  0  0.885478  0  0  0.392293  0  0.949617  0  0  0.404142  0  0.932423  0  0  0.298994  0.383999  0  0.961532  0
H  H34  1  0.02205932  0.44175179  0.86400863  1  0  0.426721  0  0.882306  0  0  0.39419  0  0.949443  0  0  0.405166  0  0.933411  0  0  0.299517  0.386562  0  0.960547  0
H  H35  1  0.97794650  0.55825166  0.13599131  1  0  0.42675  0  0.882269  0  0  0.394207  0  0.949428  0  0  0.40518  0  0.933399  0  0  0.299515  0.386584  0  0.960529  0
H  H36  1  0.59568159  0.14522291  0.29828037  1  0  0.422067  0  0.888152  0  0  0.389845  0  0.953922  0  0  0.401505  0  0.936849  0  0  0.289674  0.381005  0  0.966885  0
H  H37  1  0.40431299  0.85477822  0.70172769  1  0  0.422072  0  0.888153  0  0  0.389931  0  0.953794  0  0  0.401588  0  0.936725  0  0  0.28971  0.381083  0  0.966765  0
H  H38  1  0.52726167  0.97161792  0.26856543  1  0  0.42787  0  0.877831  0  0  0.401029  0  0.934954  0  0  0.410246  0  0.921522  0  0  0.299548  0.394498  0  0.94452  0
H  H39  1  0.47272993  0.02838095  0.73143634  1  0  0.42775  0  0.877901  0  0  0.400912  0  0.935035  0  0  0.410126  0  0.921608  0  0  0.299499  0.39437  0  0.944617  0
C  C40  1  0.48436395  0.39395713  0.63115756  1  0  -0.066566  0  3.662219  0  0  -0.054986  0  3.892981  0  0  -0.058669  0  3.915447  0  0  -0.003415  -0.053004  0  3.878286  0
C  C41  1  0.51563899  0.60605424  0.36883947  1  0  -0.066499  0  3.662443  0  0  -0.054798  0  3.892989  0  0  -0.058474  0  3.915437  0  0  -0.003351  -0.052814  0  3.878188  0
C  C42  1  0.63226971  0.45294451  0.60966094  1  0  0.387367  0  3.85312  0  0  0.372284  0  4.120872  0  0  0.390858  0  4.130662  0  0  0.123233  0.360471  0  4.113567  0
C  C43  1  0.36772875  0.54706347  0.39033187  1  0  0.387448  0  3.853141  0  0  0.372383  0  4.120819  0  0  0.390949  0  4.130606  0  0  0.123224  0.360585  0  4.113348  0
C  C44  1  0.68452463  0.60374411  0.62706163  1  0  -0.182136  0  3.746422  0  0  -0.205097  0  4.007764  0  0  -0.211753  0  4.030534  0  0  -0.09581  -0.200888  0  3.990712  0
C  C45  1  0.31547896  0.39626386  0.37293749  1  0  -0.182079  0  3.746317  0  0  -0.205045  0  4.007668  0  0  -0.211706  0  4.030443  0  0  -0.095761  -0.20083  0  3.990549  0
C  C46  1  0.59802536  0.68454188  0.65997709  1  0  -0.171056  0  3.737406  0  0  -0.194576  0  4.001702  0  0  -0.200989  0  4.024479  0  0  -0.098063  -0.190596  0  3.986174  0
C  C47  1  0.40197504  0.31546833  0.34002717  1  0  -0.171059  0  3.737318  0  0  -0.194597  0  4.001592  0  0  -0.201015  0  4.02437  0  0  -0.098063  -0.190627  0  3.986012  0
C  C48  1  0.44972416  0.62521877  0.68203326  1  0  0.360749  0  3.852222  0  0  0.338417  0  4.12747  0  0  0.357634  0  4.138337  0  0  0.113165  0.326058  0  4.11907  0
C  C49  1  0.55028083  0.37479259  0.31797081  1  0  0.360884  0  3.852183  0  0  0.338569  0  4.127389  0  0  0.357781  0  4.138263  0  0  0.113183  0.326227  0  4.118832  0
C  C50  1  0.39927895  0.47644363  0.66814505  1  0  -0.070483  0  3.662145  0  0  -0.063419  0  3.90243  0  0  -0.067993  0  3.92506  0  0  -0.009621  -0.060234  0  3.886869  0
C  C51  1  0.60072801  0.52356999  0.33186004  1  0  -0.070708  0  3.662403  0  0  -0.063614  0  3.90257  0  0  -0.068199  0  3.925205  0  0  -0.009612  -0.060434  0  3.886922  0
C  C52  1  0.39443019  0.28923918  0.77061541  1  0  -0.067147  0  3.652658  0  0  -0.059544  0  3.888809  0  0  -0.063885  0  3.910665  0  0  -0.006265  -0.056836  0  3.873818  0
C  C53  1  0.60558312  0.71076995  0.22938548  1  0  -0.067057  0  3.652823  0  0  -0.059354  0  3.888789  0  0  -0.063698  0  3.910648  0  0  -0.006261  -0.056659  0  3.873721  0
C  C54  1  0.47999326  0.27562215  0.86679616  1  0  0.386619  0  3.838543  0  0  0.370562  0  4.105486  0  0  0.38981  0  4.114944  0  0  0.121187  0.35765  0  4.098639  0
C  C55  1  0.52001884  0.72437907  0.13320052  1  0  0.386495  0  3.838626  0  0  0.370429  0  4.105573  0  0  0.389665  0  4.115034  0  0  0.121119  0.357539  0  4.098547  0
C  C56  1  0.44611973  0.32519212  0.99630908  1  0  -0.173925  0  3.73636  0  0  -0.195783  0  3.99615  0  0  -0.20257  0  4.019425  0  0  -0.098024  -0.191497  0  3.980831  0
C  C57  1  0.55388609  0.67479891  0.00368655  1  0  -0.17373  0  3.736279  0  0  -0.195601  0  3.996079  0  0  -0.202389  0  4.019356  0  0  -0.097917  -0.19132  0  3.980662  0
C  C58  1  0.34225233  0.38600931  0.02658178  1  0  -0.193238  0  3.773388  0  0  -0.216392  0  4.036976  0  0  -0.224215  0  4.06182  0  0  -0.105399  -0.211692  0  4.021177  0
C  C59  1  0.65775245  0.61398169  0.97342076  1  0  -0.193347  0  3.773352  0  0  -0.216496  0  4.036976  0  0  -0.224326  0  4.061825  0  0  -0.105527  -0.21178  0  4.021079  0
C  C60  1  0.26614377  0.41026159  0.93346492  1  0  0.36445  0  3.852231  0  0  0.34076  0  4.125964  0  0  0.359319  0  4.137557  0  0  0.115054  0.32872  0  4.11702  0
C  C61  1  0.73385849  0.58972829  0.06653356  1  0  0.364418  0  3.852257  0  0  0.340708  0  4.126019  0  0  0.359234  0  4.137643  0  0  0.11502  0.328686  0  4.116899  0
C  C62  1  0.30258776  0.36404373  0.80520539  1  0  -0.063497  0  3.659626  0  0  -0.052919  0  3.8979  0  0  -0.055704  0  3.919055  0  0  -0.006169  -0.050392  0  3.881949  0
C  C63  1  0.69741545  0.63596083  0.19479751  1  0  -0.063624  0  3.659875  0  0  -0.053016  0  3.898072  0  0  -0.055811  0  3.919243  0  0  -0.006194  -0.050502  0  3.882059  0
C  C64  1  0.25447740  0.16124615  0.53743428  1  0  -0.06604  0  3.636611  0  0  -0.057521  0  3.871667  0  0  -0.061671  0  3.893509  0  0  -0.002955  -0.054586  0  3.855836  0
C  C65  1  0.74552291  0.83875388  0.46256748  1  0  -0.066043  0  3.636811  0  0  -0.057504  0  3.871863  0  0  -0.061652  0  3.893708  0  0  -0.002949  -0.054565  0  3.856048  0
C  C66  1  0.19313051  0.01041274  0.42398490  1  0  0.382687  0  3.845706  0  0  0.368397  0  4.1125  0  0  0.387553  0  4.121679  0  0  0.124284  0.355618  0  4.105778  0
C  C67  1  0.80686859  0.98959183  0.57601261  1  0  0.382587  0  3.845788  0  0  0.368326  0  4.112561  0  0  0.387476  0  4.12174  0  0  0.124274  0.355538  0  4.105832  0
C  C68  1  0.04538990  0.96030301  0.34406662  1  0  -0.173558  0  3.74683  0  0  -0.196756  0  4.006545  0  0  -0.203419  0  4.030108  0  0  -0.090303  -0.192937  0  3.991685  0
C  C69  1  0.95460863  0.03970268  0.65593307  1  0  -0.173517  0  3.746669  0  0  -0.196714  0  4.0064  0  0  -0.203377  0  4.029961  0  0  -0.090246  -0.192894  0  3.991483  0
C  C70  1  0.96435166  0.04656697  0.37721278  1  0  -0.188767  0  3.758543  0  0  -0.211025  0  4.018996  0  0  -0.218868  0  4.043672  0  0  -0.097677  -0.206923  0  4.003183  0
C  C71  1  0.03564697  0.95343646  0.62278597  1  0  -0.18877  0  3.758423  0  0  -0.211013  0  4.018866  0  0  -0.218854  0  4.043543  0  0  -0.097711  -0.206908  0  4.002995  0
C  C72  1  0.02100148  0.19227468  0.49542928  1  0  0.380713  0  3.844175  0  0  0.365824  0  4.109486  0  0  0.383908  0  4.119886  0  0  0.120606  0.353412  0  4.101594  0
C  C73  1  0.97899752  0.80773214  0.50457350  1  0  0.380593  0  3.84423  0  0  0.365777  0  4.109489  0  0  0.383855  0  4.119892  0  0  0.120552  0.353391  0  4.101553  0
C  C74  1  0.17082026  0.24538456  0.57266896  1  0  -0.056683  0  3.649001  0  0  -0.049597  0  3.886545  0  0  -0.052617  0  3.908198  0  0  -0.002328  -0.046578  0  3.869978  0
C  C75  1  0.82918229  0.75462340  0.42733619  1  0  -0.056537  0  3.649035  0  0  -0.049521  0  3.886653  0  0  -0.052549  0  3.908319  0  0  -0.002276  -0.046532  0  3.870125  0
C  C76  1  0.41288885  0.24276846  0.62862556  1  0  -0.017168  0  3.621741  0  0  -0.032711  0  3.847409  0  0  -0.030975  0  3.856999  0  0  -0.053749  -0.034538  0  3.842501  0
C  C77  1  0.58711288  0.75723500  0.37136812  1  0  -0.017245  0  3.62199  0  0  -0.032824  0  3.847548  0  0  -0.031093  0  3.857136  0  0  -0.053713  -0.034654  0  3.842664  0
C  C78  1  0.25304746  0.39774909  0.69842337  1  0  -0.018209  0  3.617285  0  0  -0.035297  0  3.846499  0  0  -0.033403  0  3.855705  0  0  -0.059019  -0.037038  0  3.840667  0
C  C79  1  0.74695875  0.60225777  0.30157453  1  0  -0.018256  0  3.617327  0  0  -0.035377  0  3.846583  0  0  -0.033481  0  3.855791  0  0  -0.059153  -0.037144  0  3.84076  0
C  C80  1  0.82949578  0.03692450  0.07011162  1  0  -0.36625  0  3.73886  0  0  -0.434571  0  3.959389  0  0  -0.437332  0  3.965282  0  0  -0.199599  -0.432283  0  3.955352  0
C  C81  1  0.17049533  0.96306080  0.92989056  1  0  -0.366234  0  3.738801  0  0  -0.434591  0  3.95942  0  0  -0.437369  0  3.965301  0  0  -0.19959  -0.432327  0  3.955374  0
C  C82  1  0.83118611  0.10395943  0.98564877  1  0  0.434561  0  3.686315  0  0  0.432036  0  3.958402  0  0  0.443767  0  3.973725  0  0  0.227088  0.423902  0  3.948183  0
C  C83  1  0.16880117  0.89601908  0.01434868  1  0  0.434424  0  3.686584  0  0  0.431937  0  3.958673  0  0  0.44367  0  3.973998  0  0  0.227135  0.423825  0  3.94847  0
N  N84  1  0.83198068  0.15672178  0.91673391  1  0  -0.509779  0  2.676344  0  0  -0.493206  0  2.914629  0  0  -0.504281  0  2.9234  0  0  -0.36678  -0.485782  0  2.908837  0
N  N85  1  0.16800360  0.84325446  0.08326420  1  0  -0.509639  0  2.676591  0  0  -0.493076  0  2.914867  0  0  -0.50415  0  2.923634  0  0  -0.366814  -0.48566  0  2.909089  0
O  O86  1  0.71674820  0.38047034  0.58492654  1  0  -0.709312  0  1.986974  0  0  -0.665475  0  2.229556  0  0  -0.685047  0  2.222079  0  0  -0.428328  -0.651763  0  2.233495  0
O  O87  1  0.28324921  0.61953761  0.41507405  1  0  -0.709431  0  1.987029  0  0  -0.665549  0  2.229593  0  0  -0.685136  0  2.222105  0  0  -0.428398  -0.651898  0  2.233518  0
O  O88  1  0.37275743  0.70481283  0.71955019  1  0  -0.564474  0  2.013133  0  0  -0.498018  0  2.221323  0  0  -0.522423  0  2.216509  0  0  -0.287109  -0.481204  0  2.224231  0
O  O89  1  0.62723681  0.29518495  0.28044255  1  0  -0.564586  0  2.013029  0  0  -0.498043  0  2.221205  0  0  -0.522463  0  2.216387  0  0  -0.287135  -0.481276  0  2.22411  0
O  O90  1  0.57837003  0.22053680  0.83833919  1  0  -0.659349  0  2.002551  0  0  -0.608101  0  2.232012  0  0  -0.62888  0  2.22524  0  0  -0.380945  -0.593908  0  2.236613  0
O  O91  1  0.42164244  0.77946780  0.16166326  1  0  -0.659344  0  2.002513  0  0  -0.608045  0  2.231969  0  0  -0.628842  0  2.225187  0  0  -0.380917  -0.593909  0  2.236544  0
O  O92  1  0.16699865  0.46486320  0.96165522  1  0  -0.569231  0  2.052674  0  0  -0.501421  0  2.268252  0  0  -0.526457  0  2.264215  0  0  -0.276195  -0.483824  0  2.270109  0
O  O93  1  0.83299761  0.53512212  0.03834458  1  0  -0.569194  0  2.052715  0  0  -0.501298  0  2.26827  0  0  -0.526315  0  2.264223  0  0  -0.276156  -0.483755  0  2.270108  0
O  O94  1  0.26498904  0.92494917  0.39334936  1  0  -0.709403  0  1.962362  0  0  -0.66764  0  2.206358  0  0  -0.686049  0  2.196572  0  0  -0.409767  -0.654902  0  2.212734  0
O  O95  1  0.73500931  0.07504862  0.60664530  1  0  -0.709435  0  1.962446  0  0  -0.667649  0  2.20644  0  0  -0.686059  0  2.196654  0  0  -0.409796  -0.654898  0  2.212796  0
O  O96  1  0.94332298  0.27258509  0.52614331  1  0  -0.72194  0  2.053538  0  0  -0.671255  0  2.291352  0  0  -0.690948  0  2.283731  0  0  -0.408715  -0.65668  0  2.295942  0
O  O97  1  0.05667509  0.72741947  0.47385503  1  0  -0.721908  0  2.053404  0  0  -0.671231  0  2.291253  0  0  -0.690935  0  2.283636  0  0  -0.408705  -0.656671  0  2.295838  0
O  O98  1  0.07536953  0.63355863  0.66946662  1  0  -0.913969  0  1.752257  0  0  -0.873136  0  1.919507  0  0  -0.888693  0  1.887354  0  0  -0.657575  -0.862817  0  1.940674  0
O  O99  1  0.92463069  0.36644367  0.33053347  1  0  -0.913904  0  1.752277  0  0  -0.873079  0  1.91957  0  0  -0.888643  0  1.887401  0  0  -0.657557  -0.862744  0  1.940739  0
O  O100  1  0.92172394  0.42777366  0.82009882  1  0  -0.97796  0  1.800726  0  0  -0.936687  0  1.987957  0  0  -0.952565  0  1.952477  0  0  -0.688414  -0.92465  0  2.012133  0
O  O101  1  0.07827983  0.57222978  0.17990451  1  0  -0.977949  0  1.800662  0  0  -0.936675  0  1.987891  0  0  -0.952558  0  1.952403  0  0  -0.68839  -0.92462  0  2.012064  0
O  O102  1  0.60938394  0.07332003  0.32526261  1  0  -0.935029  0  1.762541  0  0  -0.892146  0  1.936473  0  0  -0.90867  0  1.904004  0  0  -0.67891  -0.880167  0  1.959863  0
O  O103  1  0.39059942  0.92667880  0.67474487  1  0  -0.934928  0  1.762602  0  0  -0.892107  0  1.936446  0  0  -0.90863  0  1.903987  0  0  -0.678906  -0.880145  0  1.959854  0
