# generated using pymatgen
data_ZnH16C8S2(N3O)2
_symmetry_space_group_name_H-M   'P 1'
_cell_length_a   7.69368525
_cell_length_b   7.69371892
_cell_length_c   12.41916881
_cell_angle_alpha   102.88299131
_cell_angle_beta   102.88264789
_cell_angle_gamma   101.26058828
_symmetry_Int_Tables_number   1
_chemical_formula_structural   ZnH16C8S2(N3O)2
_chemical_formula_sum   'Zn2 H32 C16 S4 N12 O4'
_cell_volume   674.97234160
_cell_formula_units_Z   2
loop_
 _symmetry_equiv_pos_site_id
 _symmetry_equiv_pos_as_xyz
  1  'x, y, z'
loop_
 _atom_site_type_symbol
 _atom_site_label
 _atom_site_symmetry_multiplicity
 _atom_site_fract_x
 _atom_site_fract_y
 _atom_site_fract_z
 _atom_site_occupancy
 _atom_site_hle17_bader_spin_density
 _atom_site_hle17_ddec_charge
 _atom_site_hle17_ddec_spin_density
 _atom_site_hle17_ddec_sum_bond_order
 _atom_site_hle17_magmom
 _atom_site_hse06_10hf_bader_spin_density
 _atom_site_hse06_10hf_ddec_charge
 _atom_site_hse06_10hf_ddec_spin_density
 _atom_site_hse06_10hf_ddec_sum_bond_order
 _atom_site_hse06_10hf_magmom
 _atom_site_hse06_bader_spin_density
 _atom_site_hse06_ddec_charge
 _atom_site_hse06_ddec_spin_density
 _atom_site_hse06_ddec_sum_bond_order
 _atom_site_hse06_magmom
 _atom_site_pbe_bader_spin_density
 _atom_site_pbe_cm5_charge
 _atom_site_pbe_ddec_charge
 _atom_site_pbe_ddec_spin_density
 _atom_site_pbe_ddec_sum_bond_order
 _atom_site_pbe_magmom
Zn  Zn0  1  0.49999939  0.49999706  0.49999847  1  0  1.080073  0  1.862746  0  0  0.905199  0  2.305062  0  0  0.94842  0  2.256222  0  0  0.713737  0.875195  0  2.338247  0
Zn  Zn1  1  0.49999901  0.49999914  0.99999903  1  0  1.079999  0  1.862849  0  0  0.905125  0  2.305172  0  0  0.948345  0  2.256333  0  0  0.713692  0.87512  0  2.338353  0
H  H2  1  0.59409490  0.59990712  0.28182986  1  0  0.087448  0  0.927884  0  0  0.099061  0  0.991547  0  0  0.100271  0  0.990249  0  0  0.118659  0.098055  0  0.992701  0
H  H3  1  0.40008862  0.40589987  0.21816644  1  0  0.087419  0  0.927881  0  0  0.099017  0  0.991565  0  0  0.100226  0  0.990271  0  0  0.118645  0.098012  0  0.992718  0
H  H4  1  0.40590460  0.40008973  0.71816918  1  0  0.087435  0  0.927851  0  0  0.09903  0  0.991533  0  0  0.100238  0  0.990238  0  0  0.118653  0.098025  0  0.992684  0
H  H5  1  0.59991125  0.59409836  0.78183285  1  0  0.087422  0  0.927885  0  0  0.099015  0  0.991572  0  0  0.100226  0  0.990273  0  0  0.118643  0.098008  0  0.992723  0
H  H6  1  0.89608387  0.11535233  0.17964456  1  0  0.072858  0  0.937299  0  0  0.081574  0  1.010657  0  0  0.08206  0  1.010653  0  0  0.111117  0.081147  0  1.01074  0
H  H7  1  0.88465396  0.10392466  0.32035673  1  0  0.072856  0  0.93722  0  0  0.081574  0  1.010584  0  0  0.082055  0  1.010585  0  0  0.111096  0.081147  0  1.01067  0
H  H8  1  0.10392408  0.88465131  0.82035986  1  0  0.072838  0  0.937297  0  0  0.081563  0  1.010653  0  0  0.082053  0  1.010651  0  0  0.111089  0.081133  0  1.010736  0
H  H9  1  0.11535001  0.89607902  0.67964713  1  0  0.072843  0  0.93725  0  0  0.081579  0  1.010601  0  0  0.082063  0  1.010604  0  0  0.111118  0.081149  0  1.010688  0
H  H10  1  0.27169011  0.65828316  0.37968794  1  0  0.385199  0  0.910886  0  0  0.355776  0  0.987917  0  0  0.365498  0  0.9739  0  0  0.270513  0.348911  0  0.99782  0
H  H11  1  0.34171871  0.72831484  0.12031550  1  0  0.385204  0  0.910816  0  0  0.355779  0  0.987893  0  0  0.365503  0  0.973873  0  0  0.270523  0.348914  0  0.997798  0
H  H12  1  0.72830962  0.34170954  0.62030974  1  0  0.385203  0  0.910853  0  0  0.355791  0  0.98789  0  0  0.365512  0  0.973874  0  0  0.270503  0.348926  0  0.997793  0
H  H13  1  0.65828622  0.27168745  0.87968830  1  0  0.38515  0  0.910954  0  0  0.355732  0  0.98798  0  0  0.365455  0  0.973961  0  0  0.270486  0.348865  0  0.997886  0
H  H14  1  0.13901936  0.45683286  0.34588787  1  0  0.379848  0  0.925556  0  0  0.340508  0  1.014493  0  0  0.351681  0  0.999161  0  0  0.280714  0.33271  0  1.02216  0
H  H15  1  0.54317105  0.86098335  0.15411299  1  0  0.379822  0  0.925548  0  0  0.340494  0  1.01447  0  0  0.351666  0  0.999177  0  0  0.280707  0.332697  0  1.022137  0
H  H16  1  0.86097577  0.54316264  0.65411117  1  0  0.379844  0  0.925462  0  0  0.340524  0  1.014428  0  0  0.351698  0  0.999119  0  0  0.280725  0.332727  0  1.022096  0
H  H17  1  0.45683452  0.13901622  0.84588569  1  0  0.379847  0  0.925515  0  0  0.340502  0  1.014464  0  0  0.351676  0  0.999161  0  0  0.280696  0.332703  0  1.022133  0
H  H18  1  0.86083727  0.36518163  0.45441677  1  0  0.061732  0  0.969213  0  0  0.071613  0  1.045147  0  0  0.072266  0  1.044604  0  0  0.110737  0.071017  0  1.045714  0
H  H19  1  0.63482402  0.13916387  0.04558157  1  0  0.061817  0  0.969274  0  0  0.071676  0  1.045182  0  0  0.072327  0  1.044643  0  0  0.110774  0.071079  0  1.045746  0
H  H20  1  0.13915955  0.63481523  0.54558351  1  0  0.061761  0  0.969184  0  0  0.071634  0  1.045134  0  0  0.072287  0  1.044589  0  0  0.110748  0.071038  0  1.0457  0
H  H21  1  0.36518590  0.86083702  0.95441952  1  0  0.0618  0  0.969194  0  0  0.071642  0  1.045148  0  0  0.072293  0  1.044607  0  0  0.110778  0.071046  0  1.04571  0
H  H22  1  0.85917727  0.57890246  0.41836189  1  0  0.074702  0  0.939209  0  0  0.086367  0  1.0085  0  0  0.086707  0  1.008385  0  0  0.113353  0.086014  0  1.008736  0
H  H23  1  0.42110139  0.14082023  0.08163453  1  0  0.07472  0  0.939186  0  0  0.086359  0  1.008426  0  0  0.086696  0  1.008313  0  0  0.113339  0.086005  0  1.00866  0
H  H24  1  0.14082025  0.42109712  0.58164209  1  0  0.074656  0  0.939292  0  0  0.086405  0  1.008485  0  0  0.086751  0  1.008374  0  0  0.113346  0.086053  0  1.008722  0
H  H25  1  0.57890272  0.85917383  0.91836236  1  0  0.074678  0  0.939248  0  0  0.08633  0  1.008515  0  0  0.086668  0  1.008401  0  0  0.113337  0.085976  0  1.008748  0
H  H26  1  0.89213080  0.39832866  0.12694280  1  0  0.074714  0  0.92876  0  0  0.085523  0  0.996576  0  0  0.085609  0  0.997049  0  0  0.115403  0.085362  0  0.996368  0
H  H27  1  0.60167283  0.10787218  0.37305441  1  0  0.074713  0  0.928793  0  0  0.085534  0  0.996582  0  0  0.085622  0  0.997053  0  0  0.115396  0.085372  0  0.996378  0
H  H28  1  0.10787412  0.60167362  0.87306180  1  0  0.074737  0  0.92869  0  0  0.085545  0  0.996481  0  0  0.08563  0  0.996954  0  0  0.115435  0.085383  0  0.996273  0
H  H29  1  0.39832440  0.89212610  0.62694291  1  0  0.074603  0  0.928758  0  0  0.085419  0  0.996576  0  0  0.085508  0  0.997047  0  0  0.11535  0.085256  0  0.996372  0
H  H30  1  0.87840372  0.59705783  0.22856773  1  0  0.079071  0  0.926927  0  0  0.09191  0  0.992027  0  0  0.092253  0  0.992059  0  0  0.113869  0.091555  0  0.992157  0
H  H31  1  0.40294554  0.12159449  0.27142872  1  0  0.079082  0  0.926917  0  0  0.091935  0  0.991998  0  0  0.092277  0  0.992036  0  0  0.113882  0.09158  0  0.992127  0
H  H32  1  0.12159554  0.40294316  0.77143347  1  0  0.079086  0  0.926894  0  0  0.09189  0  0.992008  0  0  0.092231  0  0.992039  0  0  0.11388  0.091534  0  0.992138  0
H  H33  1  0.59705362  0.87840102  0.72856687  1  0  0.079036  0  0.927008  0  0  0.091883  0  0.992088  0  0  0.092225  0  0.992126  0  0  0.11386  0.091528  0  0.992217  0
C  C34  1  0.73990414  0.90629354  0.54114274  1  0  0.321512  0  4.034709  0  0  0.300918  0  4.338432  0  0  0.324491  0  4.35058  0  0  0.151877  0.284922  0  4.329854  0
C  C35  1  0.09371369  0.26010015  0.95886235  1  0  0.321615  0  4.034996  0  0  0.301022  0  4.338712  0  0  0.324591  0  4.35086  0  0  0.151911  0.285027  0  4.330132  0
C  C36  1  0.26009072  0.09371583  0.45885662  1  0  0.3216  0  4.035001  0  0  0.301008  0  4.338729  0  0  0.324574  0  4.350871  0  0  0.151904  0.285014  0  4.330152  0
C  C37  1  0.90629580  0.73990905  0.04113905  1  0  0.321532  0  4.034796  0  0  0.300941  0  4.338535  0  0  0.324513  0  4.350689  0  0  0.15193  0.284943  0  4.329951  0
C  C38  1  0.55074100  0.44925923  0.24999955  1  0  0.072233  0  3.597793  0  0  0.001636  0  3.858071  0  0  0.009345  0  3.867144  0  0  0.010818  -0.003488  0  3.851612  0
C  C39  1  0.44926020  0.55073898  0.74999993  1  0  0.072255  0  3.597833  0  0  0.001631  0  3.858056  0  0  0.009341  0  3.867127  0  0  0.010816  -0.003504  0  3.851624  0
C  C40  1  0.81560331  0.42779286  0.38557598  1  0  0.068481  0  3.628934  0  0  -0.003693  0  3.887642  0  0  0.004231  0  3.897106  0  0  0.011437  -0.009038  0  3.881192  0
C  C41  1  0.57221399  0.18439792  0.11442036  1  0  0.068344  0  3.629007  0  0  -0.003656  0  3.88754  0  0  0.004285  0  3.896969  0  0  0.011408  -0.009  0  3.881082  0
C  C42  1  0.18439558  0.57220675  0.61442498  1  0  0.068559  0  3.628898  0  0  -0.003641  0  3.88758  0  0  0.004264  0  3.897081  0  0  0.011472  -0.008986  0  3.881128  0
C  C43  1  0.42779330  0.81560303  0.88557795  1  0  0.06849  0  3.629052  0  0  -0.003606  0  3.887616  0  0  0.004327  0  3.897069  0  0  0.011441  -0.008949  0  3.881155  0
C  C44  1  0.83322916  0.44587029  0.19745367  1  0  0.084031  0  3.59274  0  0  0.015591  0  3.84717  0  0  0.023444  0  3.857152  0  0  0.019373  0.010232  0  3.840469  0
C  C45  1  0.55413319  0.16677244  0.30254385  1  0  0.083996  0  3.592661  0  0  0.015542  0  3.847128  0  0  0.02339  0  3.857115  0  0  0.019358  0.010183  0  3.840429  0
C  C46  1  0.16677352  0.55413345  0.80254679  1  0  0.083873  0  3.592642  0  0  0.015532  0  3.847022  0  0  0.023393  0  3.85699  0  0  0.019286  0.010175  0  3.84032  0
C  C47  1  0.44586931  0.83322574  0.69745822  1  0  0.084234  0  3.592735  0  0  0.01574  0  3.847101  0  0  0.02359  0  3.857086  0  0  0.019416  0.010381  0  3.840401  0
C  C48  1  0.83676424  0.16324493  0.24999778  1  0  0.090826  0  3.584347  0  0  0.020092  0  3.840035  0  0  0.028215  0  3.848707  0  0  0.020414  0.014626  0  3.83408  0
C  C49  1  0.16323937  0.83675738  0.75000503  1  0  0.090837  0  3.584325  0  0  0.020088  0  3.840042  0  0  0.028187  0  3.848747  0  0  0.020431  0.014625  0  3.834088  0
S  S50  1  0.87377643  0.11281912  0.59152966  1  0  -0.380457  0  2.14457  0  0  -0.363138  0  2.46361  0  0  -0.37884  0  2.456788  0  0  -0.150912  -0.352214  0  2.468136  0
S  S51  1  0.88718003  0.12621998  0.90846797  1  0  -0.380587  0  2.144382  0  0  -0.363259  0  2.463404  0  0  -0.378963  0  2.45658  0  0  -0.150963  -0.352334  0  2.46793  0
S  S52  1  0.12621075  0.88717650  0.40846586  1  0  -0.380628  0  2.144202  0  0  -0.363299  0  2.463215  0  0  -0.379009  0  2.4564  0  0  -0.150969  -0.352366  0  2.467737  0
S  S53  1  0.11281400  0.87378115  0.09152527  1  0  -0.380466  0  2.14479  0  0  -0.36313  0  2.463799  0  0  -0.378831  0  2.456976  0  0  -0.150938  -0.352229  0  2.46836  0
N  N54  1  0.64388643  0.75329942  0.50422283  1  0  -0.571641  0  2.957442  0  0  -0.50619  0  3.244845  0  0  -0.528517  0  3.247992  0  0  -0.403105  -0.491049  0  3.242557  0
N  N55  1  0.24668917  0.35611468  0.99578065  1  0  -0.571562  0  2.957877  0  0  -0.506092  0  3.245226  0  0  -0.528418  0  3.248376  0  0  -0.403037  -0.490954  0  3.242939  0
N  N56  1  0.35609214  0.24668387  0.49576731  1  0  -0.571528  0  2.958012  0  0  -0.506069  0  3.245355  0  0  -0.528388  0  3.248503  0  0  -0.403062  -0.490932  0  3.243068  0
N  N57  1  0.75329949  0.64388646  0.00421585  1  0  -0.571635  0  2.957344  0  0  -0.506171  0  3.244713  0  0  -0.528502  0  3.247869  0  0  -0.403109  -0.491027  0  3.242422  0
N  N58  1  0.89913835  0.36693650  0.29243039  1  0  -0.270489  0  3.149364  0  0  -0.183327  0  3.377234  0  0  -0.199392  0  3.39317  0  0  -0.3291  -0.172127  0  3.36569  0
N  N59  1  0.63306937  0.10086406  0.20756728  1  0  -0.27041  0  3.149206  0  0  -0.183337  0  3.377109  0  0  -0.199399  0  3.393049  0  0  -0.329058  -0.172136  0  3.365564  0
N  N60  1  0.10086465  0.63306858  0.70757353  1  0  -0.270338  0  3.149161  0  0  -0.183352  0  3.377216  0  0  -0.199414  0  3.393158  0  0  -0.329087  -0.172155  0  3.365673  0
N  N61  1  0.36693582  0.89913412  0.79243196  1  0  -0.27057  0  3.149392  0  0  -0.18337  0  3.377208  0  0  -0.199427  0  3.393147  0  0  -0.329118  -0.172173  0  3.365663  0
N  N62  1  0.61177690  0.37061221  0.34604364  1  0  -0.287256  0  3.197583  0  0  -0.20106  0  3.444969  0  0  -0.218842  0  3.46267  0  0  -0.333915  -0.188654  0  3.432518  0
N  N63  1  0.62938975  0.38822288  0.15395372  1  0  -0.287275  0  3.197669  0  0  -0.201154  0  3.445051  0  0  -0.21894  0  3.462753  0  0  -0.333952  -0.188746  0  3.432597  0
N  N64  1  0.38822201  0.62938742  0.65395571  1  0  -0.287465  0  3.197765  0  0  -0.201148  0  3.445022  0  0  -0.218932  0  3.462723  0  0  -0.333941  -0.188742  0  3.432569  0
N  N65  1  0.37061315  0.61177670  0.84604619  1  0  -0.287238  0  3.197572  0  0  -0.201039  0  3.444861  0  0  -0.218822  0  3.46255  0  0  -0.333915  -0.188634  0  3.432403  0
O  O66  1  0.27333576  0.52830023  0.37240995  1  0  -0.801295  0  1.99349  0  0  -0.734888  0  2.222794  0  0  -0.755895  0  2.189919  0  0  -0.572497  -0.719999  0  2.242705  0
O  O67  1  0.47170233  0.72666525  0.12759275  1  0  -0.801279  0  1.993394  0  0  -0.734883  0  2.22274  0  0  -0.755888  0  2.189888  0  0  -0.572484  -0.719987  0  2.242636  0
O  O68  1  0.72665962  0.47169115  0.62758612  1  0  -0.801266  0  1.993427  0  0  -0.73489  0  2.222728  0  0  -0.755897  0  2.18987  0  0  -0.572468  -0.719988  0  2.242615  0
O  O69  1  0.52830321  0.27333429  0.87240833  1  0  -0.801248  0  1.993482  0  0  -0.734855  0  2.222801  0  0  -0.755858  0  2.189942  0  0  -0.572467  -0.719963  0  2.242707  0
