# generated using pymatgen
data_DyP3H33C18(NO5)3
_symmetry_space_group_name_H-M   'P 1'
_cell_length_a   12.35496497
_cell_length_b   12.35490155
_cell_length_c   18.73461180
_cell_angle_alpha   89.99991866
_cell_angle_beta   89.99981489
_cell_angle_gamma   89.99983223
_symmetry_Int_Tables_number   1
_chemical_formula_structural   DyP3H33C18(NO5)3
_chemical_formula_sum   'Dy4 P12 H132 C72 N12 O60'
_cell_volume   2859.73312383
_cell_formula_units_Z   4
loop_
 _symmetry_equiv_pos_site_id
 _symmetry_equiv_pos_as_xyz
  1  'x, y, z'
loop_
 _atom_site_type_symbol
 _atom_site_label
 _atom_site_symmetry_multiplicity
 _atom_site_fract_x
 _atom_site_fract_y
 _atom_site_fract_z
 _atom_site_occupancy
 _atom_site_pbe_bader_charge
 _atom_site_pbe_bader_spin_density
 _atom_site_pbe_cm5_charge
 _atom_site_pbe_ddec_charge
 _atom_site_pbe_ddec_spin_density
 _atom_site_pbe_ddec_sum_bond_order
 _atom_site_pbe_magmom
Dy  Dy0  1  0.42996097  0.46195301  0.62427647  1  2.196296  0  1.602073  2.252714  0  2.16539  0
Dy  Dy1  1  0.57004504  0.53804784  0.12427714  1  2.196313  0  1.602004  2.252668  0  2.165602  0
Dy  Dy2  1  0.53804975  0.42996123  0.87428262  1  2.196118  0  1.601964  2.252706  0  2.165402  0
Dy  Dy3  1  0.46195180  0.57003827  0.37428082  1  2.196169  0  1.601961  2.252738  0  2.165385  0
P  P4  1  0.42747051  0.23469328  0.74633195  1  3.417277  0  0.366879  1.38347  0  5.353862  0
P  P5  1  0.57252843  0.76531054  0.24633293  1  3.417019  0  0.36679  1.383362  0  5.354021  0
P  P6  1  0.76532650  0.42749049  0.99633935  1  3.418017  0  0.366868  1.383648  0  5.35299  0
P  P7  1  0.23467526  0.57250793  0.49634337  1  3.418059  0  0.366939  1.383777  0  5.353016  0
P  P8  1  0.68555606  0.42766575  0.70040003  1  3.394044  0  0.369088  1.373598  0  5.375464  0
P  P9  1  0.31444473  0.57233331  0.20039960  1  3.394063  0  0.36906  1.373416  0  5.375516  0
P  P10  1  0.57232447  0.68556491  0.95039880  1  3.393708  0  0.369215  1.373761  0  5.375019  0
P  P11  1  0.42767832  0.31443766  0.45039998  1  3.393892  0  0.369216  1.373821  0  5.374915  0
P  P12  1  0.52889756  0.69928547  0.54628692  1  3.403214  0  0.380117  1.382304  0  5.324554  0
P  P13  1  0.47110398  0.30071554  0.04628321  1  3.40302  0  0.380059  1.382372  0  5.32464  0
P  P14  1  0.30072496  0.52891267  0.79627801  1  3.402517  0  0.379968  1.382241  0  5.324156  0
P  P15  1  0.69927940  0.47108780  0.29627846  1  3.402565  0  0.37997  1.382245  0  5.324078  0
H  H16  1  0.31784417  0.11043904  0.80777616  1  0.658459  0  0.294393  0.377225  0  0.980124  0
H  H17  1  0.68215042  0.88956869  0.30777572  1  0.658636  0  0.294397  0.377258  0  0.980072  0
H  H18  1  0.88958751  0.31786114  0.05777432  1  0.658542  0  0.294432  0.377229  0  0.980113  0
H  H19  1  0.11041559  0.68213822  0.55777627  1  0.658528  0  0.294433  0.377234  0  0.980115  0
H  H20  1  0.82447438  0.31203529  0.73738442  1  0.656856  0  0.292461  0.375531  0  0.982373  0
H  H21  1  0.17552703  0.68796126  0.23738632  1  0.656841  0  0.292482  0.375557  0  0.982329  0
H  H22  1  0.68796271  0.82446747  0.98738470  1  0.656998  0  0.292524  0.375533  0  0.982358  0
H  H23  1  0.31203909  0.17553421  0.48738252  1  0.65703  0  0.292521  0.375538  0  0.982366  0
H  H24  1  0.65245731  0.80095176  0.60622660  1  0.658851  0  0.29573  0.37613  0  0.975937  0
H  H25  1  0.34754394  0.19905155  0.10622752  1  0.658852  0  0.295755  0.376177  0  0.975854  0
H  H26  1  0.19905134  0.65248395  0.85621205  1  0.658763  0  0.295749  0.376169  0  0.975882  0
H  H27  1  0.80095111  0.34751477  0.35621240  1  0.658763  0  0.295752  0.376209  0  0.975825  0
H  H28  1  0.53016540  0.04060572  0.80399793  1  0.534724  0  0.310526  0.256116  0  0.967312  0
H  H29  1  0.46983326  0.95939311  0.30399574  1  0.534801  0  0.310539  0.256154  0  0.967281  0
H  H30  1  0.95942391  0.53019702  0.05398757  1  0.53456  0  0.310455  0.25592  0  0.967157  0
H  H31  1  0.04057678  0.46980560  0.55398826  1  0.534529  0  0.310473  0.255909  0  0.967118  0
H  H32  1  0.88795298  0.53061565  0.74109503  1  0.528383  0  0.312352  0.256276  0  0.956252  0
H  H33  1  0.11204760  0.46938494  0.24109246  1  0.528402  0  0.312335  0.256276  0  0.956267  0
H  H34  1  0.46938651  0.88796000  0.99110155  1  0.527917  0  0.312362  0.25618  0  0.956309  0
H  H35  1  0.53061284  0.11204248  0.49110110  1  0.527932  0  0.312362  0.256225  0  0.956231  0
H  H36  1  0.44271472  0.88255528  0.63326070  1  0.53252  0  0.311169  0.255398  0  0.976685  0
H  H37  1  0.55728396  0.11744635  0.13326179  1  0.532491  0  0.311165  0.255385  0  0.976683  0
H  H38  1  0.11746332  0.44271710  0.88326377  1  0.532418  0  0.311159  0.255348  0  0.976671  0
H  H39  1  0.88253656  0.55728319  0.38326428  1  0.5324  0  0.311155  0.255336  0  0.976674  0
H  H40  1  0.73420097  0.05201232  0.71940081  1  0.083175  0  0.124976  0.098162  0  0.954551  0
H  H41  1  0.26579810  0.94798993  0.21939960  1  0.083181  0  0.124984  0.098149  0  0.954577  0
H  H42  1  0.94800409  0.73422762  0.96938996  1  0.083047  0  0.125026  0.09814  0  0.954523  0
H  H43  1  0.05199537  0.26577329  0.46939199  1  0.083101  0  0.125022  0.098157  0  0.954467  0
H  H44  1  0.80903335  0.93060593  0.80842592  1  0.039888  0  0.101807  0.105646  0  0.995677  0
H  H45  1  0.19096529  0.06939533  0.30842622  1  0.039844  0  0.101783  0.105631  0  0.995656  0
H  H46  1  0.06941449  0.80905606  0.05841496  1  0.039661  0  0.101735  0.105569  0  0.995906  0
H  H47  1  0.93058375  0.19094492  0.55841668  1  0.039672  0  0.101749  0.10561  0  0.995918  0
H  H48  1  0.67950481  0.90056456  0.84412577  1  0.089334  0  0.099401  0.112412  0  0.997888  0
H  H49  1  0.32049365  0.09943500  0.34412577  1  0.089358  0  0.099426  0.112479  0  0.997846  0
H  H50  1  0.09947214  0.67952844  0.09410347  1  0.088451  0  0.099474  0.112412  0  0.99793  0
H  H51  1  0.90052673  0.32047166  0.59410568  1  0.088391  0  0.099452  0.112384  0  0.997959  0
H  H52  1  0.71362495  0.04326500  0.92325507  1  0.02677  0  0.093819  0.092938  0  1.016845  0
H  H53  1  0.28637312  0.95673439  0.42325435  1  0.026787  0  0.093824  0.092962  0  1.016857  0
H  H54  1  0.95679687  0.71361397  0.17325444  1  0.026393  0  0.093752  0.092951  0  1.017063  0
H  H55  1  0.04320242  0.28638514  0.67325476  1  0.026397  0  0.093768  0.092946  0  1.017038  0
H  H56  1  0.81383087  0.10278299  0.86794928  1  0.096932  0  0.099305  0.103716  0  0.987143  0
H  H57  1  0.18616667  0.89721652  0.36794936  1  0.096876  0  0.099307  0.103733  0  0.987147  0
H  H58  1  0.89726290  0.81384559  0.11797068  1  0.096862  0  0.099346  0.103878  0  0.98696  0
H  H59  1  0.10273505  0.18615607  0.61797204  1  0.096896  0  0.09935  0.103845  0  0.987061  0
H  H60  1  0.58911057  0.17197690  0.87505879  1  0.093695  0  0.119016  0.094139  0  1.011397  0
H  H61  1  0.41088774  0.82802259  0.37505739  1  0.093754  0  0.118973  0.094034  0  1.011532  0
H  H62  1  0.82805136  0.58913811  0.12505614  1  0.094086  0  0.118932  0.094056  0  1.011547  0
H  H63  1  0.17194655  0.41086192  0.62505768  1  0.094089  0  0.118924  0.094012  0  1.011555  0
H  H64  1  0.68994461  0.21618842  0.81315025  1  0.083417  0  0.12084  0.101064  0  0.998384  0
H  H65  1  0.31005400  0.78381201  0.31315017  1  0.083402  0  0.120849  0.10107  0  0.998351  0
H  H66  1  0.78384566  0.68998729  0.06315788  1  0.08307  0  0.120815  0.101221  0  0.998144  0
H  H67  1  0.21615418  0.31001450  0.56315995  1  0.08312  0  0.12079  0.101161  0  0.998195  0
H  H68  1  0.52023277  0.10055779  0.67691655  1  0.132941  0  0.12297  0.146608  0  1.020527  0
H  H69  1  0.47976408  0.89943970  0.17691600  1  0.132875  0  0.122977  0.146626  0  1.020566  0
H  H70  1  0.89944104  0.52025679  0.92691419  1  0.132625  0  0.123017  0.146679  0  1.020564  0
H  H71  1  0.10056106  0.47974745  0.42691484  1  0.132628  0  0.123014  0.146667  0  1.020605  0
H  H72  1  0.60949788  0.20897290  0.70175225  1  0.112465  0  0.125909  0.144654  0  1.019198  0
H  H73  1  0.39049723  0.79102777  0.20175253  1  0.112552  0  0.125916  0.144741  0  1.019194  0
H  H74  1  0.79102290  0.60952109  0.95175972  1  0.114054  0  0.125926  0.144663  0  1.019274  0
H  H75  1  0.20897585  0.39047905  0.45176022  1  0.114089  0  0.125942  0.144675  0  1.019305  0
H  H76  1  0.84902439  0.73587845  0.66254731  1  0.109576  0  0.128085  0.111724  0  0.966239  0
H  H77  1  0.15097415  0.26412069  0.16254645  1  0.109569  0  0.128079  0.111743  0  0.966214  0
H  H78  1  0.26410977  0.84904870  0.91255679  1  0.10963  0  0.128099  0.111703  0  0.966  0
H  H79  1  0.73589240  0.15094909  0.41255480  1  0.109618  0  0.128092  0.111663  0  0.966016  0
H  H80  1  0.04114409  0.73026313  0.76050963  1  0.039905  0  0.099783  0.108314  0  1.00303  0
H  H81  1  0.95885478  0.26973660  0.26050919  1  0.039869  0  0.099763  0.108282  0  1.003047  0
H  H82  1  0.26977405  0.04118406  0.01052567  1  0.039502  0  0.099768  0.108325  0  1.002909  0
H  H83  1  0.73022119  0.95881379  0.51052550  1  0.039361  0  0.099754  0.108315  0  1.002857  0
H  H84  1  0.94359817  0.83315055  0.74657506  1  0.012639  0  0.098919  0.099804  0  0.984171  0
H  H85  1  0.05639996  0.16685003  0.24657503  1  0.01266  0  0.098904  0.099783  0  0.984154  0
H  H86  1  0.16685460  0.94365250  0.99658635  1  0.012985  0  0.098894  0.099879  0  0.983999  0
H  H87  1  0.83314392  0.05634188  0.49658584  1  0.013026  0  0.098874  0.099899  0  0.983968  0
H  H88  1  0.94276209  0.64702026  0.85007929  1  0.048306  0  0.093678  0.088725  0  1.036756  0
H  H89  1  0.05723553  0.35298009  0.35007909  1  0.048284  0  0.09369  0.088721  0  1.036782  0
H  H90  1  0.35298197  0.94276771  0.10008986  1  0.048082  0  0.093742  0.088735  0  1.036828  0
H  H91  1  0.64701364  0.05722994  0.60008858  1  0.048018  0  0.09373  0.088715  0  1.036775  0
H  H92  1  0.86729830  0.76884084  0.85802343  1  0.046259  0  0.099686  0.102975  0  0.99723  0
H  H93  1  0.13270009  0.23115869  0.35802318  1  0.04625  0  0.099701  0.102998  0  0.997194  0
H  H94  1  0.23114926  0.86730957  0.10802881  1  0.04623  0  0.09976  0.103176  0  0.997122  0
H  H95  1  0.76884874  0.13268564  0.60802773  1  0.046309  0  0.099743  0.103103  0  0.997152  0
H  H96  1  0.75861117  0.58312851  0.82515133  1  0.111581  0  0.122913  0.120126  0  0.999983  0
H  H97  1  0.24138657  0.41687109  0.32514960  1  0.111659  0  0.122898  0.120056  0  0.999925  0
H  H98  1  0.41685136  0.75860592  0.07514941  1  0.11163  0  0.122841  0.119919  0  1.000042  0
H  H99  1  0.58314922  0.24139422  0.57514969  1  0.111626  0  0.122843  0.119945  0  1.000004  0
H  H100  1  0.72902383  0.70183938  0.77489459  1  0.084236  0  0.118407  0.109103  0  0.958186  0
H  H101  1  0.27097416  0.29816032  0.27489505  1  0.084249  0  0.118418  0.109109  0  0.958189  0
H  H102  1  0.29814136  0.72905189  0.02489017  1  0.08432  0  0.118475  0.109159  0  0.958201  0
H  H103  1  0.70185947  0.27094674  0.52489124  1  0.084339  0  0.118431  0.109108  0  0.958185  0
H  H104  1  0.79185829  0.53822990  0.62291814  1  0.11689  0  0.129607  0.157983  0  0.974742  0
H  H105  1  0.20814287  0.46176690  0.12291644  1  0.116883  0  0.129621  0.157991  0  0.974692  0
H  H106  1  0.46176976  0.79187600  0.87292302  1  0.116612  0  0.129611  0.158007  0  0.974747  0
H  H107  1  0.53823665  0.20812673  0.37292192  1  0.116642  0  0.129622  0.157957  0  0.97484  0
H  H108  1  0.69073515  0.61590281  0.66809128  1  0.1299  0  0.129679  0.155868  0  0.998442  0
H  H109  1  0.30926417  0.38409146  0.16808838  1  0.129827  0  0.129643  0.15583  0  0.998401  0
H  H110  1  0.38407715  0.69075992  0.91808875  1  0.13017  0  0.129654  0.155896  0  0.998432  0
H  H111  1  0.61592823  0.30924191  0.41808846  1  0.130081  0  0.129657  0.155922  0  0.99832  0
H  H112  1  0.23681468  0.89675408  0.55135316  1  0.091027  0  0.126129  0.099681  0  0.949451  0
H  H113  1  0.76318440  0.10324530  0.05135435  1  0.090616  0  0.126135  0.099724  0  0.949461  0
H  H114  1  0.10325254  0.23682888  0.80135399  1  0.090906  0  0.126148  0.099788  0  0.949457  0
H  H115  1  0.89674775  0.76317401  0.30135535  1  0.090733  0  0.126132  0.099753  0  0.94948  0
H  H116  1  0.26624347  0.02900274  0.68594720  1  0.097114  0  0.095684  0.113271  0  1.027113  0
H  H117  1  0.73375820  0.97099554  0.18594817  1  0.097098  0  0.095694  0.113262  0  1.027103  0
H  H118  1  0.97101666  0.26626355  0.93595045  1  0.097656  0  0.095754  0.113274  0  1.027121  0
H  H119  1  0.02898297  0.73372690  0.43595208  1  0.097604  0  0.095787  0.113401  0  1.027061  0
H  H120  1  0.14915646  0.96358507  0.65217143  1  0.054646  0  0.098113  0.101285  0  0.978402  0
H  H121  1  0.85084456  0.03641491  0.15217090  1  0.054622  0  0.098113  0.101285  0  0.978417  0
H  H122  1  0.03640965  0.14917054  0.90217177  1  0.054888  0  0.098026  0.101255  0  0.978424  0
H  H123  1  0.96359823  0.85082566  0.40217451  1  0.054892  0  0.098041  0.101315  0  0.978365  0
H  H124  1  0.19071225  0.81627577  0.73022218  1  0.063022  0  0.096858  0.100622  0  1.012761  0
H  H125  1  0.80928839  0.18372241  0.23022213  1  0.063019  0  0.096863  0.100603  0  1.012792  0
H  H126  1  0.18373964  0.19071084  0.98021485  1  0.062766  0  0.096913  0.100673  0  1.01277  0
H  H127  1  0.81626300  0.80928924  0.48021260  1  0.062755  0  0.096886  0.100628  0  1.012774  0
H  H128  1  0.31566996  0.87803001  0.75237086  1  0.062241  0  0.092091  0.093112  0  0.999383  0
H  H129  1  0.68433056  0.12196732  0.25237167  1  0.062225  0  0.092079  0.093143  0  0.999321  0
H  H130  1  0.12199259  0.31567129  0.00237127  1  0.062054  0  0.092112  0.093092  0  0.999394  0
H  H131  1  0.87800511  0.68432819  0.50237211  1  0.062089  0  0.09212  0.093093  0  0.999385  0
H  H132  1  0.26603377  0.72231873  0.62968683  1  0.076781  0  0.116486  0.106879  0  0.993394  0
H  H133  1  0.73396574  0.27768291  0.12968792  1  0.076805  0  0.116484  0.106887  0  0.993291  0
H  H134  1  0.27770686  0.26604124  0.87968207  1  0.076686  0  0.116468  0.106821  0  0.99358  0
H  H135  1  0.72229385  0.73395906  0.37968223  1  0.076695  0  0.116467  0.106818  0  0.993575  0
H  H136  1  0.38281664  0.72528413  0.68509378  1  0.126549  0  0.120661  0.116715  0  0.992248  0
H  H137  1  0.61718341  0.27471335  0.18509566  1  0.126552  0  0.120693  0.116709  0  0.992254  0
H  H138  1  0.27473285  0.38282155  0.93509443  1  0.12694  0  0.120645  0.116663  0  0.992209  0
H  H139  1  0.72526840  0.61717781  0.43509522  1  0.126923  0  0.120642  0.116655  0  0.992232  0
H  H140  1  0.44361754  0.85944799  0.50310269  1  0.108777  0  0.12435  0.144499  0  1.002989  0
H  H141  1  0.55638501  0.14055231  0.00310322  1  0.108771  0  0.12435  0.144472  0  1.003064  0
H  H142  1  0.14054586  0.44364558  0.75310999  1  0.108604  0  0.124279  0.144416  0  1.003123  0
H  H143  1  0.85945709  0.55635741  0.25311002  1  0.108587  0  0.124281  0.144462  0  1.003053  0
H  H144  1  0.34723294  0.75275767  0.51417326  1  0.111542  0  0.126529  0.138266  0  1.040117  0
H  H145  1  0.65276956  0.24724179  0.01417296  1  0.111519  0  0.126542  0.138269  0  1.040086  0
H  H146  1  0.24724235  0.34725694  0.76416273  1  0.111387  0  0.12658  0.138273  0  1.040137  0
H  H147  1  0.75275893  0.65274279  0.26416343  1  0.111417  0  0.126589  0.138284  0  1.040132  0
C  C148  1  0.67586895  0.00502617  0.75109677  1  0.198317  0  0.010802  -0.033835  0  3.751221  0
C  C149  1  0.32412916  0.99497521  0.25109700  1  0.198723  0  0.010798  -0.033835  0  3.751294  0
C  C150  1  0.99499009  0.67589871  0.00108912  1  0.198207  0  0.010792  -0.033541  0  3.751173  0
C  C151  1  0.00500762  0.32410402  0.50108896  1  0.19827  0  0.010813  -0.033608  0  3.751155  0
C  C152  1  0.72895696  0.96447356  0.81972219  1  -0.031994  0  -0.155087  -0.182453  0  3.871416  0
C  C153  1  0.27104081  0.03552686  0.31972289  1  -0.032011  0  -0.155065  -0.182463  0  3.871367  0
C  C154  1  0.03555127  0.72898100  0.06971497  1  -0.030064  0  -0.155072  -0.182404  0  3.871833  0
C  C155  1  0.96444611  0.27101915  0.56971548  1  -0.030121  0  -0.155061  -0.182397  0  3.871825  0
C  C156  1  0.73336853  0.06532429  0.86819492  1  -0.023664  0  -0.156668  -0.150341  0  3.849558  0
C  C157  1  0.26662981  0.93467522  0.36819479  1  -0.023592  0  -0.156705  -0.150463  0  3.849646  0
C  C158  1  0.93471922  0.73338355  0.11820287  1  -0.023652  0  -0.156788  -0.150761  0  3.850247  0
C  C159  1  0.06527954  0.26661731  0.61820370  1  -0.023684  0  -0.156809  -0.150733  0  3.850254  0
C  C160  1  0.65066247  0.14544487  0.83705475  1  0.185726  0  -0.054292  -0.064469  0  3.72452  0
C  C161  1  0.34933521  0.85455551  0.33705398  1  0.185626  0  -0.054258  -0.064349  0  3.724615  0
C  C162  1  0.85458645  0.65069425  0.08705530  1  0.186138  0  -0.054119  -0.064511  0  3.72481  0
C  C163  1  0.14541166  0.34930829  0.58705641  1  0.185983  0  -0.054125  -0.064491  0  3.724651  0
C  C164  1  0.54561429  0.15408788  0.72048452  1  -0.310738  0  -0.070014  -0.392327  0  3.761142  0
C  C165  1  0.45438235  0.84590952  0.22048354  1  -0.310717  0  -0.070038  -0.392496  0  3.761272  0
C  C166  1  0.84591990  0.54564593  0.97048866  1  -0.311913  0  -0.069916  -0.392694  0  3.761779  0
C  C167  1  0.15407794  0.45435497  0.47048922  1  -0.312024  0  -0.069896  -0.392722  0  3.761765  0
C  C168  1  0.62601651  0.91735893  0.70360409  1  1.6173  0  0.211228  0.563684  0  4.23754  0
C  C169  1  0.37398344  0.08264255  0.20360453  1  1.616994  0  0.211234  0.563737  0  4.237425  0
C  C170  1  0.08264611  0.62603703  0.95359878  1  1.616008  0  0.211147  0.563187  0  4.237748  0
C  C171  1  0.91735343  0.37396473  0.45360045  1  1.615976  0  0.211117  0.563185  0  4.237772  0
C  C172  1  0.90582424  0.68342871  0.69161967  1  0.223072  0  0.01297  -0.041871  0  3.724362  0
C  C173  1  0.09417497  0.31657037  0.19161941  1  0.223064  0  0.012992  -0.041858  0  3.724244  0
C  C174  1  0.31656545  0.90584629  0.94162911  1  0.2219  0  0.013049  -0.041757  0  3.723642  0
C  C175  1  0.68343415  0.09415225  0.44162834  1  0.221934  0  0.013059  -0.041657  0  3.723458  0
C  C176  1  0.95421830  0.74605554  0.75530812  1  0.033066  0  -0.153324  -0.176584  0  3.854987  0
C  C177  1  0.04577979  0.25394583  0.25530857  1  0.033046  0  -0.153303  -0.176518  0  3.85492  0
C  C178  1  0.25395237  0.95425409  0.00532205  1  0.033703  0  -0.153287  -0.176627  0  3.854427  0
C  C179  1  0.74604533  0.04574215  0.50532164  1  0.033792  0  -0.153284  -0.176657  0  3.854279  0
C  C180  1  0.89172186  0.70459347  0.82110621  1  -0.039158  0  -0.162674  -0.176749  0  3.912934  0
C  C181  1  0.10827671  0.29540776  0.32110541  1  -0.039115  0  -0.162695  -0.176788  0  3.912916  0
C  C182  1  0.29540365  0.89173788  0.07111577  1  -0.039146  0  -0.162915  -0.17718  0  3.912978  0
C  C183  1  0.70459534  0.10825822  0.57111485  1  -0.03918  0  -0.162861  -0.177059  0  3.912844  0
C  C184  1  0.79345465  0.64595295  0.79124023  1  0.225817  0  -0.05731  -0.058171  0  3.73568  0
C  C185  1  0.20654407  0.35404591  0.29123917  1  0.225807  0  -0.057293  -0.058062  0  3.735614  0
C  C186  1  0.35403940  0.79346833  0.04123843  1  0.226731  0  -0.057257  -0.058023  0  3.735805  0
C  C187  1  0.64596135  0.20653027  0.54123968  1  0.226731  0  -0.057224  -0.058041  0  3.735744  0
C  C188  1  0.75312310  0.55336964  0.67462888  1  -0.282823  0  -0.065205  -0.390169  0  3.78352  0
C  C189  1  0.24687861  0.44662786  0.17462711  1  -0.282688  0  -0.06519  -0.390035  0  3.783445  0
C  C190  1  0.44661789  0.75313669  0.92462789  1  -0.283157  0  -0.065152  -0.390002  0  3.783188  0
C  C191  1  0.55338746  0.24686432  0.42462779  1  -0.283115  0  -0.065145  -0.389992  0  3.783225  0
C  C192  1  0.98828602  0.63980628  0.63851361  1  1.617611  0  0.219299  0.572665  0  4.204805  0
C  C193  1  0.01171345  0.36019291  0.13851403  1  1.617474  0  0.219279  0.572654  0  4.204662  0
C  C194  1  0.36018679  0.98831072  0.88852250  1  1.618173  0  0.219513  0.573025  0  4.204378  0
C  C195  1  0.63981226  0.01168874  0.38852298  1  1.618763  0  0.219498  0.572959  0  4.204396  0
C  C196  1  0.29361599  0.93354907  0.58953962  1  0.228074  0  0.012967  -0.03432  0  3.738207  0
C  C197  1  0.70638291  0.06644942  0.08953990  1  0.228547  0  0.012889  -0.034557  0  3.73834  0
C  C198  1  0.06645905  0.29363226  0.83954001  1  0.227973  0  0.012893  -0.034501  0  3.738584  0
C  C199  1  0.93354267  0.70636974  0.33954134  1  0.228289  0  0.012937  -0.03446  0  3.738512  0
C  C200  1  0.23630603  0.95435782  0.66129189  1  -0.049914  0  -0.158605  -0.186426  0  3.850221  0
C  C201  1  0.76369495  0.04564132  0.16129207  1  -0.04994  0  -0.158629  -0.186391  0  3.850239  0
C  C202  1  0.04565518  0.23631973  0.91129121  1  -0.050743  0  -0.158559  -0.186422  0  3.85049  0
C  C203  1  0.95434700  0.76367644  0.41129405  1  -0.050493  0  -0.158609  -0.186605  0  3.850503  0
C  C204  1  0.26297955  0.85449210  0.70792165  1  -0.036721  0  -0.159976  -0.154067  0  3.878684  0
C  C205  1  0.73702120  0.14550532  0.20792179  1  -0.036718  0  -0.159952  -0.154073  0  3.87869  0
C  C206  1  0.14551852  0.26298021  0.95791816  1  -0.036275  0  -0.16012  -0.154094  0  3.878911  0
C  C207  1  0.85448100  0.73701829  0.45791910  1  -0.036317  0  -0.160134  -0.154084  0  3.878895  0
C  C208  1  0.32161208  0.77513328  0.65897425  1  0.202356  0  -0.059856  -0.063065  0  3.72503  0
C  C209  1  0.67838728  0.22486505  0.15897498  1  0.202379  0  -0.059892  -0.063067  0  3.724983  0
C  C210  1  0.22488503  0.32161275  0.90897494  1  0.201946  0  -0.059695  -0.062853  0  3.725042  0
C  C211  1  0.77511473  0.67838586  0.40897504  1  0.201945  0  -0.059695  -0.062849  0  3.725006  0
C  C212  1  0.41591209  0.79471902  0.53887237  1  -0.284743  0  -0.068596  -0.399785  0  3.803341  0
C  C213  1  0.58408948  0.20528200  0.03887279  1  -0.284936  0  -0.06862  -0.399842  0  3.803415  0
C  C214  1  0.20528092  0.41593013  0.78887475  1  -0.284163  0  -0.068631  -0.39961  0  3.803047  0
C  C215  1  0.79472186  0.58407117  0.28887436  1  -0.284181  0  -0.068596  -0.399664  0  3.803054  0
C  C216  1  0.34325897  0.03341317  0.55448135  1  1.590578  0  0.218928  0.573059  0  4.19595  0
C  C217  1  0.65673848  0.96658540  0.05448303  1  1.590228  0  0.21903  0.573297  0  4.195849  0
C  C218  1  0.96659436  0.34327686  0.80448786  1  1.591234  0  0.218968  0.573298  0  4.195877  0
C  C219  1  0.03340672  0.65672359  0.30448742  1  1.590721  0  0.219037  0.573427  0  4.195748  0
N  N220  1  0.59275967  0.08479379  0.77811580  1  -1.003004  0  -0.33629  0.01883  0  3.536394  0
N  N221  1  0.40723831  0.91520591  0.27811486  1  -1.003067  0  -0.336284  0.018872  0  3.536421  0
N  N222  1  0.91522141  0.59278603  0.02811035  1  -1.002967  0  -0.336302  0.019153  0  3.536522  0
N  N223  1  0.08477617  0.40721583  0.52811048  1  -1.002887  0  -0.336308  0.019323  0  3.536292  0
N  N224  1  0.83739107  0.59499019  0.72435224  1  -1.014951  0  -0.338434  0.021232  0  3.567667  0
N  N225  1  0.16260960  0.40500963  0.22435070  1  -1.015014  0  -0.33846  0.021067  0  3.567869  0
N  N226  1  0.40500684  0.83740365  0.97435350  1  -1.014682  0  -0.338635  0.021016  0  3.56768  0
N  N227  1  0.59499422  0.16259724  0.47435446  1  -1.01467  0  -0.338678  0.020927  0  3.567703  0
N  N228  1  0.37659405  0.84760167  0.60531679  1  -1.014892  0  -0.34191  0.020358  0  3.566367  0
N  N229  1  0.62340639  0.15239760  0.10531770  1  -1.01466  0  -0.34188  0.020458  0  3.566313  0
N  N230  1  0.15241219  0.37659757  0.85532189  1  -1.014673  0  -0.341934  0.02027  0  3.566493  0
N  N231  1  0.84758864  0.62340197  0.35532189  1  -1.014658  0  -0.341939  0.020317  0  3.566414  0
O  O232  1  0.40027826  0.30482830  0.68222013  1  -1.465504  0  -0.477188  -0.880949  0  2.252989  0
O  O233  1  0.59972262  0.69516999  0.18222059  1  -1.465465  0  -0.477182  -0.880939  0  2.252901  0
O  O234  1  0.69517433  0.40031116  0.93223029  1  -1.466333  0  -0.477131  -0.880824  0  2.252714  0
O  O235  1  0.30483017  0.59968740  0.43222879  1  -1.466176  0  -0.477215  -0.880965  0  2.25256  0
O  O236  1  0.45728499  0.29377902  0.81492792  1  -1.477474  0  -0.481251  -0.919728  0  2.330786  0
O  O237  1  0.54271442  0.70622546  0.31492956  1  -1.477449  0  -0.481183  -0.919665  0  2.330734  0
O  O238  1  0.70624723  0.45728947  0.06493873  1  -1.477537  0  -0.481246  -0.919767  0  2.330676  0
O  O239  1  0.29375260  0.54271150  0.56493721  1  -1.477652  0  -0.4812  -0.919756  0  2.330825  0
O  O240  1  0.33069574  0.15576603  0.75771637  1  -1.455639  0  -0.380658  -0.686916  0  2.259709  0
O  O241  1  0.66929991  0.84423938  0.25771440  1  -1.455689  0  -0.380669  -0.686927  0  2.259826  0
O  O242  1  0.84425361  0.33071446  0.00771248  1  -1.455528  0  -0.380767  -0.686952  0  2.25986  0
O  O243  1  0.15574731  0.66928582  0.50771380  1  -1.455526  0  -0.380822  -0.687024  0  2.259812  0
O  O244  1  0.69400069  0.85730659  0.67117957  1  -1.192912  0  -0.325555  -0.558759  0  2.188273  0
O  O245  1  0.30600024  0.14269739  0.17118170  1  -1.19292  0  -0.325563  -0.558808  0  2.188199  0
O  O246  1  0.14269563  0.69400838  0.92116353  1  -1.192522  0  -0.325544  -0.558576  0  2.188352  0
O  O247  1  0.85730569  0.30599102  0.42116433  1  -1.192498  0  -0.325518  -0.558596  0  2.188346  0
O  O248  1  0.52427929  0.91276577  0.70039463  1  -1.174432  0  -0.315197  -0.536714  0  2.208225  0
O  O249  1  0.47572068  0.08723491  0.20039485  1  -1.174426  0  -0.315187  -0.536701  0  2.208227  0
O  O250  1  0.08725575  0.52430088  0.95039886  1  -1.17406  0  -0.315197  -0.536517  0  2.208073  0
O  O251  1  0.91274543  0.47570088  0.45039992  1  -1.17408  0  -0.315181  -0.536499  0  2.208093  0
O  O252  1  0.60150013  0.41334045  0.64217313  1  -1.455672  0  -0.481891  -0.877049  0  2.298087  0
O  O253  1  0.39850013  0.58665873  0.14217038  1  -1.455672  0  -0.481893  -0.877024  0  2.298057  0
O  O254  1  0.58664611  0.60150277  0.89216757  1  -1.455573  0  -0.481978  -0.8772  0  2.297855  0
O  O255  1  0.41335131  0.39850073  0.39216389  1  -1.455635  0  -0.48196  -0.877167  0  2.29761  0
O  O256  1  0.64128135  0.43887101  0.77582624  1  -1.480167  0  -0.4768  -0.907553  0  2.299055  0
O  O257  1  0.35872554  0.56112789  0.27582359  1  -1.480192  0  -0.476795  -0.907481  0  2.299038  0
O  O258  1  0.56112888  0.64126529  0.02581763  1  -1.480065  0  -0.476869  -0.907602  0  2.299051  0
O  O259  1  0.43887114  0.35873577  0.52581437  1  -1.480107  0  -0.476883  -0.907655  0  2.299267  0
O  O260  1  0.76880938  0.33319463  0.69344387  1  -1.450789  0  -0.382115  -0.689778  0  2.249039  0
O  O261  1  0.23119144  0.66680282  0.19344460  1  -1.450749  0  -0.38211  -0.689738  0  2.249082  0
O  O262  1  0.66679408  0.76881757  0.94344095  1  -1.45081  0  -0.382142  -0.689756  0  2.249169  0
O  O263  1  0.33320956  0.23118258  0.44343814  1  -1.450841  0  -0.382117  -0.689767  0  2.249211  0
O  O264  1  0.05063863  0.71298593  0.61348070  1  -1.177805  0  -0.31693  -0.52086  0  2.210034  0
O  O265  1  0.94936339  0.28701413  0.11347919  1  -1.177709  0  -0.31694  -0.520849  0  2.209936  0
O  O266  1  0.28700469  0.05064171  0.86348220  1  -1.177991  0  -0.317058  -0.521013  0  2.210048  0
O  O267  1  0.71298962  0.94935781  0.36348271  1  -1.178605  0  -0.316983  -0.520939  0  2.210216  0
O  O268  1  0.98778680  0.54052182  0.62332947  1  -1.192961  0  -0.315211  -0.541981  0  2.186679  0
O  O269  1  0.01221355  0.45947741  0.12332979  1  -1.192972  0  -0.31518  -0.541971  0  2.186683  0
O  O270  1  0.45947566  0.98782091  0.87333980  1  -1.193129  0  -0.315251  -0.542148  0  2.18662  0
O  O271  1  0.54051942  0.01218021  0.37333942  1  -1.193215  0  -0.315271  -0.542161  0  2.186377  0
O  O272  1  0.51259395  0.62437832  0.60967606  1  -1.465109  0  -0.467394  -0.878265  0  2.275313  0
O  O273  1  0.48740971  0.37562175  0.10967812  1  -1.465071  0  -0.467406  -0.878328  0  2.275108  0
O  O274  1  0.37562265  0.51260398  0.85968464  1  -1.464958  0  -0.467271  -0.878204  0  2.27479  0
O  O275  1  0.62438059  0.48739797  0.35968364  1  -1.464901  0  -0.467328  -0.878266  0  2.274766  0
O  O276  1  0.53219770  0.64513781  0.47355311  1  -1.469255  0  -0.467533  -0.885366  0  2.265824  0
O  O277  1  0.46780336  0.35486390  0.97355460  1  -1.469129  0  -0.467458  -0.885354  0  2.266155  0
O  O278  1  0.35487664  0.53220934  0.72355320  1  -1.469261  0  -0.467456  -0.885324  0  2.266122  0
O  O279  1  0.64512727  0.46779129  0.22355217  1  -1.469162  0  -0.467433  -0.885269  0  2.26608  0
O  O280  1  0.63419518  0.76946879  0.55565286  1  -1.440738  0  -0.382318  -0.66052  0  2.225517  0
O  O281  1  0.36580631  0.23053301  0.05565318  1  -1.440723  0  -0.382315  -0.660546  0  2.225495  0
O  O282  1  0.23053680  0.63421429  0.80563772  1  -1.440523  0  -0.382274  -0.66059  0  2.225466  0
O  O283  1  0.76946589  0.36578616  0.30563758  1  -1.44062  0  -0.382283  -0.660624  0  2.225413  0
O  O284  1  0.27274962  0.10196423  0.53309478  1  -1.180944  0  -0.322475  -0.535474  0  2.211025  0
O  O285  1  0.72725036  0.89803600  0.03309583  1  -1.18093  0  -0.322557  -0.535628  0  2.211083  0
O  O286  1  0.89803746  0.27276246  0.78310028  1  -1.181266  0  -0.322576  -0.535709  0  2.210803  0
O  O287  1  0.10196454  0.72723723  0.28309856  1  -1.181106  0  -0.322577  -0.535727  0  2.210828  0
O  O288  1  0.44458424  0.04026537  0.54830123  1  -1.179987  0  -0.31584  -0.542224  0  2.169493  0
O  O289  1  0.55541405  0.95973726  0.04829993  1  -1.179689  0  -0.315793  -0.54217  0  2.169517  0
O  O290  1  0.95974111  0.44459456  0.79830354  1  -1.180078  0  -0.315795  -0.542251  0  2.16981  0
O  O291  1  0.04026000  0.55540672  0.29830425  1  -1.180052  0  -0.315835  -0.542317  0  2.169659  0
