# generated using pymatgen
data_H28Pb5C20Br2(N2O9)2
_symmetry_space_group_name_H-M   'P 1'
_cell_length_a   7.65768497
_cell_length_b   8.88889334
_cell_length_c   13.60281287
_cell_angle_alpha   72.60695477
_cell_angle_beta   80.40136805
_cell_angle_gamma   74.84247581
_symmetry_Int_Tables_number   1
_chemical_formula_structural   H28Pb5C20Br2(N2O9)2
_chemical_formula_sum   'H28 Pb5 C20 Br2 N4 O18'
_cell_volume   848.89196924
_cell_formula_units_Z   1
loop_
 _symmetry_equiv_pos_site_id
 _symmetry_equiv_pos_as_xyz
  1  'x, y, z'
loop_
 _atom_site_type_symbol
 _atom_site_label
 _atom_site_symmetry_multiplicity
 _atom_site_fract_x
 _atom_site_fract_y
 _atom_site_fract_z
 _atom_site_occupancy
 _atom_site_hle17_bader_spin_density
 _atom_site_hle17_ddec_charge
 _atom_site_hle17_ddec_spin_density
 _atom_site_hle17_ddec_sum_bond_order
 _atom_site_hle17_magmom
 _atom_site_hse06_10hf_bader_spin_density
 _atom_site_hse06_10hf_ddec_charge
 _atom_site_hse06_10hf_ddec_spin_density
 _atom_site_hse06_10hf_ddec_sum_bond_order
 _atom_site_hse06_10hf_magmom
 _atom_site_hse06_bader_spin_density
 _atom_site_hse06_ddec_charge
 _atom_site_hse06_ddec_spin_density
 _atom_site_hse06_ddec_sum_bond_order
 _atom_site_hse06_magmom
 _atom_site_pbe_bader_spin_density
 _atom_site_pbe_cm5_charge
 _atom_site_pbe_ddec_charge
 _atom_site_pbe_ddec_spin_density
 _atom_site_pbe_ddec_sum_bond_order
 _atom_site_pbe_magmom
H  H0  1  0.88305578  0.17283704  0.24832138  1  0  0.418908  0  0.885885  0  0  0.386701  0  0.952308  0  0  0.398623  0  0.93527  0  0  0.283628  0.378247  0  0.964367  0
H  H1  1  0.11696743  0.82715434  0.75166161  1  0  0.41887  0  0.885947  0  0  0.386661  0  0.952334  0  0  0.398575  0  0.935312  0  0  0.283627  0.378203  0  0.964398  0
H  H2  1  0.74837589  0.26260651  0.15884094  1  0  0.408073  0  0.906592  0  0  0.374974  0  0.974605  0  0  0.387203  0  0.957155  0  0  0.281884  0.366358  0  0.986863  0
H  H3  1  0.25163178  0.73738856  0.84115084  1  0  0.40809  0  0.906575  0  0  0.375006  0  0.974553  0  0  0.387235  0  0.957103  0  0  0.28188  0.366392  0  0.986807  0
H  H4  1  0.01152133  0.47087340  0.16517852  1  0  0.119233  0  0.905854  0  0  0.136291  0  0.956554  0  0  0.138725  0  0.954828  0  0  0.124051  0.134505  0  0.957947  0
H  H5  1  0.98847285  0.52915437  0.83482062  1  0  0.119306  0  0.905838  0  0  0.136373  0  0.956547  0  0  0.138805  0  0.954825  0  0  0.124078  0.134591  0  0.957934  0
H  H6  1  0.81137317  0.47066983  0.25086135  1  0  0.096218  0  0.937377  0  0  0.106839  0  1.007583  0  0  0.108921  0  1.00628  0  0  0.104801  0.105272  0  1.008758  0
H  H7  1  0.18862384  0.52935189  0.74913724  1  0  0.096194  0  0.937324  0  0  0.106837  0  1.00752  0  0  0.108918  0  1.006219  0  0  0.104816  0.105271  0  1.008691  0
H  H8  1  0.80879274  0.58539333  0.39806918  1  0  0.118975  0  0.920471  0  0  0.132838  0  0.982767  0  0  0.135194  0  0.981323  0  0  0.114756  0.131156  0  0.98384  0
H  H9  1  0.19122027  0.41462227  0.60194015  1  0  0.118924  0  0.92042  0  0  0.132859  0  0.982748  0  0  0.135211  0  0.981302  0  0  0.114796  0.131172  0  0.983816  0
H  H10  1  0.68600202  0.73697754  0.30134391  1  0  0.110545  0  0.962409  0  0  0.121548  0  1.027528  0  0  0.124332  0  1.02617  0  0  0.108498  0.119509  0  1.028653  0
H  H11  1  0.31400201  0.26303690  0.69866722  1  0  0.110472  0  0.962389  0  0  0.121562  0  1.027508  0  0  0.124342  0  1.02615  0  0  0.108515  0.11952  0  1.028634  0
H  H12  1  0.12425077  0.00019320  0.13284054  1  0  0.111967  0  0.92539  0  0  0.126544  0  0.985311  0  0  0.129086  0  0.983463  0  0  0.119102  0.124689  0  0.986742  0
H  H13  1  0.87573688  0.99979712  0.86715400  1  0  0.112123  0  0.925342  0  0  0.126679  0  0.985262  0  0  0.129219  0  0.983419  0  0  0.119153  0.124829  0  0.986693  0
H  H14  1  0.30338269  0.00206427  0.03109665  1  0  0.09059  0  0.919722  0  0  0.103511  0  0.984127  0  0  0.105569  0  0.982998  0  0  0.105729  0.101959  0  0.985088  0
H  H15  1  0.69661042  0.99791999  0.96890078  1  0  0.090663  0  0.919647  0  0  0.103571  0  0.984055  0  0  0.105593  0  0.982966  0  0  0.105749  0.102023  0  0.98502  0
H  H16  1  0.47686661  0.72766176  0.00107886  1  0  0.12692  0  0.939354  0  0  0.13609  0  1.004703  0  0  0.139613  0  1.002307  0  0  0.112828  0.133485  0  1.006605  0
H  H17  1  0.52312665  0.27231645  0.99892340  1  0  0.126853  0  0.939335  0  0  0.136051  0  1.004629  0  0  0.139518  0  1.002307  0  0  0.112816  0.133482  0  1.0065  0
H  H18  1  0.56520047  0.74572930  0.10750532  1  0  0.092225  0  0.939654  0  0  0.107764  0  1.003028  0  0  0.10952  0  1.001607  0  0  0.111896  0.106389  0  1.004265  0
H  H19  1  0.43478299  0.25426708  0.89249429  1  0  0.092104  0  0.939679  0  0  0.107622  0  1.003084  0  0  0.109379  0  1.001656  0  0  0.111826  0.106253  0  1.004323  0
H  H20  1  0.84761250  0.75649407  0.11081492  1  0  0.062373  0  0.925453  0  0  0.082441  0  0.985647  0  0  0.083148  0  0.985211  0  0  0.101123  0.08171  0  0.986287  0
H  H21  1  0.15237577  0.24349867  0.88919379  1  0  0.062431  0  0.925517  0  0  0.082483  0  0.985683  0  0  0.083196  0  0.985232  0  0  0.10114  0.081752  0  0.986321  0
H  H22  1  0.91886636  0.88181848  0.16813113  1  0  0.079743  0  0.949333  0  0  0.094386  0  1.016766  0  0  0.09571  0  1.015628  0  0  0.108047  0.093306  0  1.017727  0
H  H23  1  0.08113136  0.11818993  0.83186043  1  0  0.079784  0  0.949353  0  0  0.094424  0  1.01673  0  0  0.095751  0  1.015589  0  0  0.108075  0.093346  0  1.017681  0
H  H24  1  0.17755849  0.61713603  0.07583607  1  0  0.095376  0  0.934917  0  0  0.109342  0  0.996275  0  0  0.111332  0  0.994476  0  0  0.114776  0.107831  0  0.997675  0
H  H25  1  0.82242484  0.38285552  0.92416377  1  0  0.095386  0  0.934979  0  0  0.109327  0  0.996366  0  0  0.111317  0  0.994566  0  0  0.114791  0.107802  0  0.997785  0
H  H26  1  0.11813667  0.82187608  0.00700139  1  0  0.072043  0  0.913534  0  0  0.092122  0  0.970632  0  0  0.092739  0  0.970685  0  0  0.10468  0.09157  0  0.970734  0
H  H27  1  0.88185523  0.17811302  0.99299593  1  0  0.07207  0  0.913457  0  0  0.092159  0  0.970566  0  0  0.092777  0  0.970616  0  0  0.104693  0.091607  0  0.970664  0
Pb  Pb28  1  0.27813133  0.61915151  0.32952717  1  0  1.207829  0  1.548161  0  0  1.012022  0  1.942241  0  0  1.071996  0  1.903545  0  0  0.564717  0.967635  0  1.971421  0
Pb  Pb29  1  0.72185672  0.38085816  0.67047900  1  0  1.20777  0  1.548235  0  0  1.011913  0  1.942384  0  0  1.071908  0  1.90366  0  0  0.564658  0.967534  0  1.971569  0
Pb  Pb30  1  0.49324691  0.14232185  0.32420841  1  0  1.349522  0  1.388718  0  0  1.175157  0  1.788935  0  0  1.235358  0  1.744135  0  0  0.612859  1.131712  0  1.820313  0
Pb  Pb31  1  0.50677955  0.85768282  0.67578272  1  0  1.349538  0  1.388732  0  0  1.175159  0  1.788973  0  0  1.235361  0  1.744178  0  0  0.612832  1.131714  0  1.820361  0
Pb  Pb32  1  0.00003144  0.00002649  0.49999258  1  0  1.326081  0  1.371857  0  0  1.142111  0  1.767128  0  0  1.210995  0  1.720515  0  0  0.598741  1.09232  0  1.799543  0
C  C33  1  0.05493221  0.33559147  0.31955816  1  0  0.676065  0  3.897487  0  0  0.621274  0  4.203187  0  0  0.655359  0  4.19722  0  0  0.207229  0.598073  0  4.206283  0
C  C34  1  0.94506465  0.66440969  0.68043635  1  0  0.676496  0  3.896874  0  0  0.621827  0  4.202399  0  0  0.65592  0  4.19641  0  0  0.207342  0.59863  0  4.205485  0
C  C35  1  0.95359861  0.48192542  0.24284680  1  0  -0.175041  0  3.650459  0  0  -0.228405  0  3.90049  0  0  -0.229889  0  3.907978  0  0  -0.069994  -0.227354  0  3.895219  0
C  C36  1  0.04639840  0.51809629  0.75715179  1  0  -0.175217  0  3.650375  0  0  -0.228704  0  3.900442  0  0  -0.230174  0  3.907924  0  0  -0.070111  -0.227645  0  3.895162  0
C  C37  1  0.82060238  0.69046535  0.33131026  1  0  -0.194973  0  3.642391  0  0  -0.245247  0  3.881895  0  0  -0.247839  0  3.889196  0  0  -0.072228  -0.243333  0  3.876624  0
C  C38  1  0.17940759  0.30954664  0.66869491  1  0  -0.194776  0  3.641988  0  0  -0.245322  0  3.881931  0  0  -0.247889  0  3.889229  0  0  -0.072337  -0.243418  0  3.876697  0
C  C39  1  0.85921672  0.81738539  0.37332704  1  0  0.714635  0  3.818998  0  0  0.659104  0  4.114996  0  0  0.694943  0  4.107732  0  0  0.225437  0.634636  0  4.118989  0
C  C40  1  0.14079159  0.18262782  0.62668246  1  0  0.714862  0  3.818291  0  0  0.659051  0  4.114838  0  0  0.694887  0  4.107572  0  0  0.225374  0.634593  0  4.118809  0
C  C41  1  0.37756481  0.98152680  0.18168232  1  0  0.668488  0  3.903062  0  0  0.61559  0  4.209039  0  0  0.649554  0  4.203708  0  0  0.20439  0.592541  0  4.211637  0
C  C42  1  0.62242399  0.01845868  0.81831967  1  0  0.668556  0  3.903241  0  0  0.615815  0  4.20897  0  0  0.649785  0  4.203628  0  0  0.204456  0.592769  0  4.211568  0
C  C43  1  0.26654043  0.94293143  0.11301138  1  0  -0.168743  0  3.652197  0  0  -0.221938  0  3.903263  0  0  -0.223691  0  3.911401  0  0  -0.066816  -0.220717  0  3.897644  0
C  C44  1  0.73345077  0.05705525  0.88698501  1  0  -0.169029  0  3.652444  0  0  -0.222313  0  3.903517  0  0  -0.224048  0  3.911665  0  0  -0.066949  -0.221082  0  3.897859  0
C  C45  1  0.52476461  0.51215283  0.12814977  1  0  0.693153  0  3.846742  0  0  0.638223  0  4.1559  0  0  0.672596  0  4.148631  0  0  0.218303  0.614838  0  4.159994  0
C  C46  1  0.47523678  0.48783502  0.87186089  1  0  0.693126  0  3.846701  0  0  0.638132  0  4.155919  0  0  0.672502  0  4.148652  0  0  0.218274  0.614756  0  4.159993  0
C  C47  1  0.46428133  0.69546940  0.08621930  1  0  -0.1919  0  3.64464  0  0  -0.24745  0  3.89707  0  0  -0.249672  0  3.904673  0  0  -0.073229  -0.245719  0  3.89162  0
C  C48  1  0.53571055  0.30451969  0.91378170  1  0  -0.191536  0  3.644587  0  0  -0.247096  0  3.896996  0  0  -0.249274  0  3.904613  0  0  -0.073111  -0.245409  0  3.891546  0
C  C49  1  0.95620541  0.76197579  0.15322237  1  0  -0.036011  0  3.649073  0  0  -0.099997  0  3.918092  0  0  -0.097143  0  3.930601  0  0  -0.068212  -0.1017  0  3.909358  0
C  C50  1  0.04378416  0.23802782  0.84678116  1  0  -0.036267  0  3.649325  0  0  -0.100153  0  3.918152  0  0  -0.097286  0  3.930658  0  0  -0.068272  -0.101853  0  3.909402  0
C  C51  1  0.13553241  0.73998365  0.08559474  1  0  -0.036729  0  3.630463  0  0  -0.094484  0  3.890736  0  0  -0.091668  0  3.902699  0  0  -0.067407  -0.096242  0  3.882394  0
C  C52  1  0.86445255  0.26000668  0.91440519  1  0  -0.03671  0  3.630627  0  0  -0.094568  0  3.890899  0  0  -0.091751  0  3.90286  0  0  -0.067456  -0.096307  0  3.882548  0
Br  Br53  1  0.64503778  0.29472005  0.46017264  1  0  -0.679682  0  0.898784  0  0  -0.607698  0  1.180782  0  0  -0.636983  0  1.16319  0  0  -0.223365  -0.586248  0  1.193061  0
Br  Br54  1  0.35499279  0.70526768  0.53983390  1  0  -0.679722  0  0.898802  0  0  -0.607736  0  1.180783  0  0  -0.637019  0  1.163191  0  0  -0.223412  -0.58628  0  1.193056  0
N  N55  1  0.96429472  0.63841189  0.25399937  1  0  -0.173019  0  3.257324  0  0  -0.081473  0  3.49038  0  0  -0.097915  0  3.514075  0  0  -0.316872  -0.069788  0  3.473454  0
N  N56  1  0.03570701  0.36160134  0.74600411  1  0  -0.172877  0  3.256772  0  0  -0.08113  0  3.489654  0  0  -0.097625  0  3.513401  0  0  -0.316681  -0.069454  0  3.472736  0
N  N57  1  0.28353962  0.76883659  0.12987945  1  0  -0.177324  0  3.266606  0  0  -0.08304  0  3.495939  0  0  -0.100112  0  3.520724  0  0  -0.317264  -0.071026  0  3.478344  0
N  N58  1  0.71645126  0.23115130  0.87011894  1  0  -0.177399  0  3.266559  0  0  -0.08303  0  3.496016  0  0  -0.1001  0  3.520792  0  0  -0.317189  -0.071008  0  3.478423  0
O  O59  1  0.14237741  0.35427807  0.38458596  1  0  -0.671061  0  2.010549  0  0  -0.599057  0  2.247299  0  0  -0.630631  0  2.243473  0  0  -0.297148  -0.576635  0  2.249193  0
O  O60  1  0.85759057  0.64571112  0.61542162  1  0  -0.671141  0  2.010331  0  0  -0.599193  0  2.24708  0  0  -0.63077  0  2.243246  0  0  -0.297202  -0.576773  0  2.248978  0
O  O61  1  0.78862147  0.15619086  0.21217035  1  0  -0.838721  0  1.841291  0  0  -0.773199  0  2.028515  0  0  -0.798218  0  1.994964  0  0  -0.562861  -0.755413  0  2.051752  0
O  O62  1  0.21138815  0.84380179  0.78781805  1  0  -0.838721  0  1.841369  0  0  -0.773184  0  2.028665  0  0  -0.798204  0  1.995128  0  0  -0.562898  -0.755406  0  2.051929  0
O  O63  1  0.04846996  0.19698257  0.31177020  1  0  -0.682616  0  2.021388  0  0  -0.609395  0  2.254367  0  0  -0.641782  0  2.248159  0  0  -0.302948  -0.586623  0  2.257912  0
O  O64  1  0.95154909  0.80303662  0.68819598  1  0  -0.682815  0  2.021045  0  0  -0.609649  0  2.253953  0  0  -0.642029  0  2.247739  0  0  -0.302922  -0.586903  0  2.25757  0
O  O65  1  0.02316837  0.83339768  0.36358228  1  0  -0.650664  0  2.065233  0  0  -0.561482  0  2.304026  0  0  -0.59604  0  2.298761  0  0  -0.280297  -0.537058  0  2.306815  0
O  O66  1  0.97684406  0.16660947  0.63643317  1  0  -0.650851  0  2.064919  0  0  -0.561499  0  2.303796  0  0  -0.596053  0  2.298524  0  0  -0.280312  -0.537083  0  2.306593  0
O  O67  1  0.73102548  0.90035161  0.41983730  1  0  -0.694192  0  2.046002  0  0  -0.621723  0  2.294803  0  0  -0.654655  0  2.288805  0  0  -0.294837  -0.598622  0  2.298399  0
O  O68  1  0.26898149  0.09967249  0.58016726  1  0  -0.694266  0  2.045819  0  0  -0.6217  0  2.294831  0  0  -0.654635  0  2.288837  0  0  -0.294822  -0.598595  0  2.298413  0
O  O69  1  0.41936575  0.87733337  0.26682663  1  0  -0.678312  0  2.024929  0  0  -0.60324  0  2.265642  0  0  -0.635129  0  2.26001  0  0  -0.299802  -0.580523  0  2.26856  0
O  O70  1  0.58061113  0.12265216  0.73317424  1  0  -0.67829  0  2.024817  0  0  -0.603251  0  2.265443  0  0  -0.635139  0  2.25981  0  0  -0.299731  -0.58054  0  2.268378  0
O  O71  1  0.41653051  0.11920295  0.15165555  1  0  -0.622225  0  1.928103  0  0  -0.562037  0  2.159007  0  0  -0.590584  0  2.151607  0  0  -0.305537  -0.542107  0  2.163415  0
O  O72  1  0.58347722  0.88077037  0.84834414  1  0  -0.622327  0  1.928264  0  0  -0.562165  0  2.159093  0  0  -0.590734  0  2.15173  0  0  -0.305657  -0.542229  0  2.163491  0
O  O73  1  0.43116219  0.44202501  0.20834073  1  0  -0.697717  0  2.059569  0  0  -0.608937  0  2.301741  0  0  -0.643304  0  2.29603  0  0  -0.296757  -0.584585  0  2.304839  0
O  O74  1  0.56884862  0.55796764  0.79166593  1  0  -0.697722  0  2.059667  0  0  -0.608895  0  2.301783  0  0  -0.643262  0  2.29608  0  0  -0.29673  -0.584539  0  2.304865  0
O  O75  1  0.66790359  0.44289883  0.08461812  1  0  -0.606967  0  1.94338  0  0  -0.554992  0  2.165973  0  0  -0.579731  0  2.156241  0  0  -0.3125  -0.537876  0  2.172268  0
O  O76  1  0.33209366  0.55709508  0.91538880  1  0  -0.607016  0  1.943201  0  0  -0.555001  0  2.165778  0  0  -0.579737  0  2.156054  0  0  -0.312495  -0.537886  0  2.172062  0
