# generated using pymatgen
data_ZnH8C12(SN2)2
_symmetry_space_group_name_H-M   'P 1'
_cell_length_a   4.64195863
_cell_length_b   9.31034738
_cell_length_c   16.82380993
_cell_angle_alpha   84.08248338
_cell_angle_beta   83.08640395
_cell_angle_gamma   76.99274767
_symmetry_Int_Tables_number   1
_chemical_formula_structural   ZnH8C12(SN2)2
_chemical_formula_sum   'Zn2 H16 C24 S4 N8'
_cell_volume   701.11373783
_cell_formula_units_Z   2
loop_
 _symmetry_equiv_pos_site_id
 _symmetry_equiv_pos_as_xyz
  1  'x, y, z'
loop_
 _atom_site_type_symbol
 _atom_site_label
 _atom_site_symmetry_multiplicity
 _atom_site_fract_x
 _atom_site_fract_y
 _atom_site_fract_z
 _atom_site_occupancy
 _atom_site_hle17_bader_spin_density
 _atom_site_hle17_ddec_charge
 _atom_site_hle17_ddec_spin_density
 _atom_site_hle17_ddec_sum_bond_order
 _atom_site_hle17_magmom
 _atom_site_hse06_10hf_bader_spin_density
 _atom_site_hse06_10hf_ddec_charge
 _atom_site_hse06_10hf_ddec_spin_density
 _atom_site_hse06_10hf_ddec_sum_bond_order
 _atom_site_hse06_10hf_magmom
 _atom_site_hse06_bader_spin_density
 _atom_site_hse06_ddec_charge
 _atom_site_hse06_ddec_spin_density
 _atom_site_hse06_ddec_sum_bond_order
 _atom_site_hse06_magmom
 _atom_site_pbe_bader_spin_density
 _atom_site_pbe_cm5_charge
 _atom_site_pbe_ddec_charge
 _atom_site_pbe_ddec_spin_density
 _atom_site_pbe_ddec_sum_bond_order
 _atom_site_pbe_magmom
Zn  Zn0  1  0.68592551  0.25090327  0.75098576  1  0  0.989289  0  2.061596  0  0  0.793795  0  2.569277  0  0  0.83479  0  2.517961  0  0  0.760397  0.76596  0  2.604111  0
Zn  Zn1  1  0.31409477  0.74909889  0.24901346  1  0  0.989253  0  2.061593  0  0  0.793709  0  2.569308  0  0  0.834695  0  2.518019  0  0  0.760355  0.765872  0  2.604133  0
H  H2  1  0.67690369  0.45230251  0.29507646  1  0  0.082184  0  0.967542  0  0  0.085609  0  1.039222  0  0  0.087762  0  1.038062  0  0  0.109491  0.083984  0  1.040136  0
H  H3  1  0.42485917  0.05137256  0.19930050  1  0  0.082383  0  0.965862  0  0  0.086798  0  1.036265  0  0  0.088952  0  1.035026  0  0  0.11018  0.085166  0  1.037269  0
H  H4  1  0.32309949  0.54768841  0.70492158  1  0  0.082321  0  0.967439  0  0  0.085709  0  1.039137  0  0  0.087863  0  1.037977  0  0  0.109519  0.084083  0  1.040054  0
H  H5  1  0.57514050  0.94862631  0.80070522  1  0  0.082362  0  0.965854  0  0  0.086819  0  1.036222  0  0  0.088973  0  1.034981  0  0  0.110173  0.085187  0  1.037226  0
H  H6  1  0.98949872  0.33457292  0.40072305  1  0  0.109782  0  0.972958  0  0  0.11818  0  1.03721  0  0  0.12145  0  1.035967  0  0  0.102819  0.115815  0  1.038271  0
H  H7  1  0.71550413  0.17060995  0.09187794  1  0  0.110011  0  0.971981  0  0  0.119798  0  1.034464  0  0  0.123042  0  1.03316  0  0  0.102728  0.117391  0  1.035674  0
H  H8  1  0.01051861  0.66542578  0.59927238  1  0  0.109813  0  0.972793  0  0  0.118259  0  1.037001  0  0  0.121532  0  1.035757  0  0  0.102862  0.115889  0  1.038062  0
H  H9  1  0.28446296  0.82940083  0.90812397  1  0  0.109903  0  0.97183  0  0  0.119708  0  1.034312  0  0  0.122952  0  1.033009  0  0  0.102638  0.11734  0  1.035482  0
H  H10  1  0.75250019  0.75250025  0.51177810  1  0  0.111706  0  0.973783  0  0  0.12363  0  1.031887  0  0  0.127035  0  1.030195  0  0  0.104006  0.121153  0  1.033278  0
H  H11  1  0.01971972  0.74245750  0.99321194  1  0  0.106936  0  0.978151  0  0  0.117162  0  1.038597  0  0  0.120656  0  1.036868  0  0  0.10253  0.114666  0  1.039947  0
H  H12  1  0.24752205  0.24749957  0.48821630  1  0  0.111657  0  0.973773  0  0  0.123641  0  1.031831  0  0  0.12707  0  1.030106  0  0  0.104006  0.121161  0  1.033233  0
H  H13  1  0.98029176  0.25756126  0.00678763  1  0  0.10676  0  0.978269  0  0  0.117003  0  1.038712  0  0  0.120498  0  1.036984  0  0  0.10245  0.114512  0  1.040054  0
H  H14  1  0.44794765  0.85227443  0.40088139  1  0  0.081227  0  0.954062  0  0  0.087823  0  1.019948  0  0  0.089956  0  1.018638  0  0  0.114174  0.086209  0  1.020946  0
H  H15  1  0.70503746  0.64305834  0.10355901  1  0  0.081659  0  0.951051  0  0  0.088559  0  1.015821  0  0  0.09064  0  1.014492  0  0  0.114711  0.087005  0  1.016803  0
H  H16  1  0.55204527  0.14771202  0.59911812  1  0  0.08118  0  0.954122  0  0  0.08783  0  1.019964  0  0  0.089969  0  1.018659  0  0  0.114209  0.086218  0  1.020962  0
H  H17  1  0.29497663  0.35695029  0.89643475  1  0  0.081628  0  0.951049  0  0  0.088504  0  1.015887  0  0  0.090577  0  1.014559  0  0  0.114748  0.086957  0  1.016858  0
C  C18  1  0.70090394  0.51533648  0.34416563  1  0  0.141286  0  3.691163  0  0  0.111755  0  3.936573  0  0  0.118691  0  3.955172  0  0  0.04956  0.107298  0  3.924033  0
C  C19  1  0.55977937  0.98686488  0.15224686  1  0  0.143095  0  3.691558  0  0  0.111989  0  3.939164  0  0  0.11912  0  3.957589  0  0  0.049684  0.107376  0  3.926714  0
C  C20  1  0.29908010  0.48464887  0.65583657  1  0  0.140893  0  3.690754  0  0  0.111452  0  3.936148  0  0  0.118386  0  3.954749  0  0  0.049455  0.106994  0  3.923605  0
C  C21  1  0.44021709  0.01314162  0.84775415  1  0  0.143164  0  3.691345  0  0  0.111988  0  3.939025  0  0  0.119118  0  3.95745  0  0  0.049621  0.107376  0  3.926587  0
C  C22  1  0.87805857  0.45008561  0.40452187  1  0  -0.144482  0  3.67836  0  0  -0.163308  0  3.923165  0  0  -0.171179  0  3.944407  0  0  -0.077764  -0.158292  0  3.909019  0
C  C23  1  0.72752252  0.05267080  0.09132824  1  0  -0.142366  0  3.672116  0  0  -0.161728  0  3.916874  0  0  -0.169588  0  3.938172  0  0  -0.077297  -0.156685  0  3.902711  0
C  C24  1  0.12194213  0.54990201  0.59547800  1  0  -0.144471  0  3.678194  0  0  -0.163307  0  3.923062  0  0  -0.171182  0  3.944308  0  0  -0.07785  -0.158285  0  3.908909  0
C  C25  1  0.27244921  0.94734542  0.90866878  1  0  -0.142267  0  3.671618  0  0  -0.161556  0  3.91648  0  0  -0.169415  0  3.937779  0  0  -0.07711  -0.156551  0  3.902296  0
C  C26  1  0.90609164  0.53262793  0.46735598  1  0  0.100958  0  3.729092  0  0  0.112239  0  3.95978  0  0  0.116777  0  3.980565  0  0  0.015159  0.109409  0  3.945526  0
C  C27  1  0.90523886  0.96732083  0.03219071  1  0  0.100829  0  3.725576  0  0  0.112515  0  3.955754  0  0  0.116952  0  3.976834  0  0  0.015937  0.109751  0  3.941294  0
C  C28  1  0.09390075  0.46735414  0.53264611  1  0  0.101059  0  3.729034  0  0  0.112112  0  3.959998  0  0  0.11665  0  3.980796  0  0  0.015227  0.109277  0  3.945741  0
C  C29  1  0.09473837  0.03269880  0.96780774  1  0  0.100563  0  3.725484  0  0  0.112027  0  3.955911  0  0  0.116463  0  3.976995  0  0  0.01576  0.109266  0  3.941462  0
C  C30  1  0.74607145  0.68009291  0.46558345  1  0  -0.147154  0  3.678245  0  0  -0.165419  0  3.92076  0  0  -0.173279  0  3.9418  0  0  -0.078192  -0.160383  0  3.906743  0
C  C31  1  0.89416819  0.81699260  0.03695240  1  0  -0.14711  0  3.68522  0  0  -0.165441  0  3.928864  0  0  -0.173289  0  3.949959  0  0  -0.078762  -0.160442  0  3.91479  0
C  C32  1  0.25392883  0.31989247  0.53441583  1  0  -0.146943  0  3.678085  0  0  -0.165214  0  3.920701  0  0  -0.173092  0  3.941732  0  0  -0.078176  -0.160176  0  3.906694  0
C  C33  1  0.10582855  0.18303039  0.96304258  1  0  -0.146901  0  3.685432  0  0  -0.165182  0  3.929127  0  0  -0.173028  0  3.950223  0  0  -0.078676  -0.160185  0  3.915052  0
C  C34  1  0.57274314  0.73790703  0.40343572  1  0  0.141295  0  3.697186  0  0  0.110625  0  3.943727  0  0  0.1175  0  3.962399  0  0  0.049655  0.106231  0  3.931061  0
C  C35  1  0.71741121  0.75929797  0.09880405  1  0  0.141988  0  3.697111  0  0  0.112276  0  3.942463  0  0  0.119205  0  3.961005  0  0  0.050985  0.107825  0  3.929882  0
C  C36  1  0.42723647  0.26207714  0.59656505  1  0  0.141167  0  3.697318  0  0  0.110459  0  3.943885  0  0  0.117319  0  3.962576  0  0  0.049636  0.106066  0  3.931219  0
C  C37  1  0.28259405  0.24071401  0.90119228  1  0  0.142166  0  3.697249  0  0  0.112428  0  3.942649  0  0  0.119363  0  3.961187  0  0  0.051031  0.107975  0  3.930077  0
C  C38  1  0.83662957  0.52181777  0.81756358  1  0  0.318171  0  4.104372  0  0  0.297703  0  4.404825  0  0  0.321765  0  4.417681  0  0  0.150272  0.281509  0  4.395441  0
C  C39  1  0.15404390  0.98907824  0.68072405  1  0  0.323651  0  4.101105  0  0  0.302796  0  4.402035  0  0  0.326884  0  4.415098  0  0  0.150907  0.286572  0  4.392523  0
C  C40  1  0.16337767  0.47819104  0.18243853  1  0  0.318425  0  4.104806  0  0  0.297953  0  4.405244  0  0  0.32201  0  4.418092  0  0  0.150408  0.28176  0  4.39586  0
C  C41  1  0.84596490  0.01092496  0.31927519  1  0  0.32347  0  4.100905  0  0  0.302616  0  4.401855  0  0  0.326708  0  4.414921  0  0  0.150786  0.286391  0  4.392337  0
S  S42  1  0.93357523  0.66106136  0.84666700  1  0  -0.344133  0  2.051296  0  0  -0.328013  0  2.336578  0  0  -0.344197  0  2.333576  0  0  -0.151917  -0.316501  0  2.338212  0
S  S43  1  0.39797415  0.85694133  0.64265293  1  0  -0.349818  0  2.040583  0  0  -0.334089  0  2.323503  0  0  -0.35012  0  2.320526  0  0  -0.15721  -0.322677  0  2.32515  0
S  S44  1  0.06639833  0.33895187  0.15334200  1  0  -0.344419  0  2.051146  0  0  -0.328268  0  2.336377  0  0  -0.344453  0  2.333373  0  0  -0.152038  -0.316766  0  2.338031  0
S  S45  1  0.60205668  0.14305888  0.35735369  1  0  -0.34968  0  2.040692  0  0  -0.333956  0  2.323617  0  0  -0.349987  0  2.320644  0  0  -0.157136  -0.322544  0  2.325263  0
N  N46  1  0.55204351  0.65749162  0.34296402  1  0  -0.336341  0  3.316009  0  0  -0.24781  0  3.590404  0  0  -0.26698  0  3.605102  0  0  -0.332023  -0.235008  0  3.580365  0
N  N47  1  0.55521765  0.84211307  0.15637766  1  0  -0.336263  0  3.316152  0  0  -0.248279  0  3.591401  0  0  -0.267312  0  3.605902  0  0  -0.332862  -0.23554  0  3.581476  0
N  N48  1  0.44794086  0.34248605  0.65704151  1  0  -0.336105  0  3.315575  0  0  -0.247679  0  3.590133  0  0  -0.266848  0  3.604841  0  0  -0.332017  -0.234879  0  3.580099  0
N  N49  1  0.44478216  0.15789342  0.84362228  1  0  -0.336384  0  3.316174  0  0  -0.248372  0  3.591459  0  0  -0.267405  0  3.605964  0  0  -0.332845  -0.235635  0  3.581541  0
N  N50  1  0.77437575  0.41669942  0.79513650  1  0  -0.608157  0  3.055721  0  0  -0.538448  0  3.377126  0  0  -0.561489  0  3.37547  0  0  -0.43253  -0.522758  0  3.377963  0
N  N51  1  0.97968094  0.08878634  0.70964880  1  0  -0.610568  0  3.048171  0  0  -0.540491  0  3.370082  0  0  -0.563508  0  3.368147  0  0  -0.434583  -0.524805  0  3.371114  0
N  N52  1  0.22565170  0.58329488  0.20485769  1  0  -0.60815  0  3.056307  0  0  -0.538465  0  3.377736  0  0  -0.561502  0  3.376072  0  0  -0.432558  -0.522772  0  3.378568  0
N  N53  1  0.02032915  0.91120126  0.29034843  1  0  -0.610525  0  3.047987  0  0  -0.540445  0  3.369925  0  0  -0.563468  0  3.36799  0  0  -0.434533  -0.524756  0  3.37095  0
