# generated using pymatgen
data_ZnH19C24N6O5
_symmetry_space_group_name_H-M   'P 1'
_cell_length_a   9.50302804
_cell_length_b   12.21878502
_cell_length_c   12.19080000
_cell_angle_alpha   110.18453938
_cell_angle_beta   99.62984741
_cell_angle_gamma   102.81781841
_symmetry_Int_Tables_number   1
_chemical_formula_structural   ZnH19C24N6O5
_chemical_formula_sum   'Zn2 H38 C48 N12 O10'
_cell_volume   1248.67334177
_cell_formula_units_Z   2
loop_
 _symmetry_equiv_pos_site_id
 _symmetry_equiv_pos_as_xyz
  1  'x, y, z'
loop_
 _atom_site_type_symbol
 _atom_site_label
 _atom_site_symmetry_multiplicity
 _atom_site_fract_x
 _atom_site_fract_y
 _atom_site_fract_z
 _atom_site_occupancy
 _atom_site_hle17_bader_spin_density
 _atom_site_hle17_ddec_charge
 _atom_site_hle17_ddec_spin_density
 _atom_site_hle17_ddec_sum_bond_order
 _atom_site_hle17_magmom
 _atom_site_hse06_10hf_bader_spin_density
 _atom_site_hse06_10hf_ddec_charge
 _atom_site_hse06_10hf_ddec_spin_density
 _atom_site_hse06_10hf_ddec_sum_bond_order
 _atom_site_hse06_10hf_magmom
 _atom_site_hse06_bader_spin_density
 _atom_site_hse06_ddec_charge
 _atom_site_hse06_ddec_spin_density
 _atom_site_hse06_ddec_sum_bond_order
 _atom_site_hse06_magmom
 _atom_site_pbe_bader_charge
 _atom_site_pbe_bader_spin_density
 _atom_site_pbe_cm5_charge
 _atom_site_pbe_ddec_charge
 _atom_site_pbe_ddec_spin_density
 _atom_site_pbe_ddec_sum_bond_order
 _atom_site_pbe_magmom
Zn  Zn0  1  0.34107890  0.19440369  0.80248230  1  0  0.996913  0  1.874134  0  0  0.801296  0  2.354247  0  0  0.848117  0  2.298561  0  1.268087  0  0.701907  0.767152  0  2.393609  0
Zn  Zn1  1  0.65891787  0.80559384  0.19751552  1  0  0.996852  0  1.87411  0  0  0.801221  0  2.354221  0  0  0.848042  0  2.298539  0  1.268135  0  0.701871  0.767076  0  2.393585  0
H  H2  1  0.68626679  0.50471362  0.84214478  1  0  0.118586  0  0.947751  0  0  0.124971  0  1.017036  0  0  0.12902  0  1.013944  0  0.100994  0  0.105913  0.121907  0  1.019457  0
H  H3  1  0.31373599  0.49528573  0.15786184  1  0  0.118574  0  0.947711  0  0  0.124949  0  1.017035  0  0  0.128997  0  1.013945  0  0.101071  0  0.105911  0.121886  0  1.019454  0
H  H4  1  0.16574986  0.58349738  0.90210431  1  0  0.112069  0  0.964274  0  0  0.119284  0  1.033171  0  0  0.12323  0  1.030651  0  0.072796  0  0.104033  0.116219  0  1.035322  0
H  H5  1  0.83424943  0.41649832  0.09788993  1  0  0.112046  0  0.964254  0  0  0.119275  0  1.033149  0  0  0.123203  0  1.030651  0  0.072892  0  0.104033  0.116211  0  1.035297  0
H  H6  1  0.88488573  0.21188558  0.76797577  1  0  0.102849  0  0.963886  0  0  0.109156  0  1.033705  0  0  0.11372  0  1.02951  0  0.072472  0  0.099254  0.105828  0  1.036692  0
H  H7  1  0.11511350  0.78811286  0.23202597  1  0  0.102885  0  0.963844  0  0  0.109174  0  1.033678  0  0  0.113738  0  1.029483  0  0.072477  0  0.099272  0.105849  0  1.036665  0
H  H8  1  0.11931227  0.75090165  0.86118821  1  0  0.047373  0  0.921839  0  0  0.059497  0  0.988053  0  0  0.060225  0  0.986818  0  0.032644  0  0.093015  0.058997  0  0.988909  0
H  H9  1  0.88068259  0.24910228  0.13881403  1  0  0.0473  0  0.921809  0  0  0.059422  0  0.988056  0  0  0.060148  0  0.98682  0  0.032797  0  0.092969  0.058925  0  0.988912  0
H  H10  1  0.14627001  0.76908146  0.01637500  1  0  0.078118  0  0.942118  0  0  0.088988  0  1.007808  0  0  0.089515  0  1.007329  0  0.107263  0  0.105038  0.088586  0  1.008065  0
H  H11  1  0.85372985  0.23092156  0.98362512  1  0  0.078084  0  0.94209  0  0  0.088982  0  1.007761  0  0  0.089507  0  1.007281  0  0.107334  0  0.105045  0.08858  0  1.008021  0
H  H12  1  0.94479690  0.85888195  0.78459291  1  0  0.068209  0  0.968292  0  0  0.078625  0  1.034466  0  0  0.081068  0  1.033735  0  0.019759  0  0.088629  0.076874  0  1.035051  0
H  H13  1  0.05520544  0.14112198  0.21540785  1  0  0.068205  0  0.968398  0  0  0.078666  0  1.034508  0  0  0.081111  0  1.033777  0  0.019706  0  0.088629  0.076913  0  1.035096  0
H  H14  1  0.11999306  0.94508855  0.16273201  1  0  0.092649  0  0.952058  0  0  0.105759  0  1.009626  0  0  0.10829  0  1.008431  0  0.071482  0  0.101088  0.103882  0  1.010645  0
H  H15  1  0.88001102  0.05491721  0.83727372  1  0  0.092696  0  0.952065  0  0  0.105777  0  1.009663  0  0  0.108307  0  1.008471  0  0.071465  0  0.101116  0.103901  0  1.01068  0
H  H16  1  0.45539634  0.15714491  0.20887688  1  0  0.111409  0  0.929969  0  0  0.119457  0  0.992771  0  0  0.122221  0  0.989612  0  0.187293  0  0.142131  0.117402  0  0.995103  0
H  H17  1  0.54460891  0.84285536  0.79112054  1  0  0.111488  0  0.929942  0  0  0.119536  0  0.992753  0  0  0.1223  0  0.989591  0  0.187232  0  0.14217  0.11748  0  0.995085  0
H  H18  1  0.51689372  0.42248874  0.05668828  1  0  0.140683  0  0.95165  0  0  0.147005  0  1.016695  0  0  0.150603  0  1.012035  0  0.251355  0  0.149391  0.144153  0  1.020254  0
H  H19  1  0.48310052  0.57751062  0.94330821  1  0  0.140722  0  0.951667  0  0  0.147042  0  1.016712  0  0  0.150639  0  1.012052  0  0.251274  0  0.149392  0.14419  0  1.020272  0
H  H20  1  0.64898571  0.49992239  0.26189694  1  0  0.109114  0  0.9269  0  0  0.124326  0  0.984941  0  0  0.125514  0  0.98452  0  0.108211  0  0.124843  0.123395  0  0.985333  0
H  H21  1  0.35100813  0.50007880  0.73809848  1  0  0.108942  0  0.926948  0  0  0.124178  0  0.984977  0  0  0.125368  0  0.984556  0  0.108439  0  0.124816  0.123246  0  0.985373  0
H  H22  1  0.71290345  0.39401390  0.30856869  1  0  0.07309  0  0.939123  0  0  0.087845  0  1.005156  0  0  0.088009  0  1.005559  0  0.055959  0  0.107271  0.087577  0  1.005352  0
H  H23  1  0.28709781  0.60599003  0.69142373  1  0  0.073085  0  0.939185  0  0  0.087811  0  1.005242  0  0  0.087986  0  1.005634  0  0.055856  0  0.107262  0.087543  0  1.005438  0
H  H24  1  0.53444425  0.62774818  0.37971793  1  0  0.116277  0  0.969442  0  0  0.12414  0  1.031802  0  0  0.128051  0  1.029329  0  0.124833  0  0.102543  0.121256  0  1.033736  0
H  H25  1  0.46556663  0.37225575  0.62028641  1  0  0.116287  0  0.969369  0  0  0.124126  0  1.031758  0  0  0.128025  0  1.029297  0  0.124818  0  0.102533  0.121242  0  1.033691  0
H  H26  1  0.54848587  0.29891359  0.43461714  1  0  0.087366  0  0.959297  0  0  0.102015  0  1.015156  0  0  0.104317  0  1.014529  0  0.011708  0  0.100436  0.100356  0  1.015797  0
H  H27  1  0.45152214  0.70109125  0.56538632  1  0  0.087344  0  0.959279  0  0  0.101999  0  1.015131  0  0  0.1043  0  1.014508  0  0.011822  0  0.100459  0.10034  0  1.015771  0
H  H28  1  0.24858785  0.73217027  0.61799875  1  0  0.089462  0  0.988441  0  0  0.096811  0  1.056634  0  0  0.098773  0  1.055244  0  0.123968  0  0.132472  0.095163  0  1.058135  0
H  H29  1  0.75141172  0.26782909  0.38199104  1  0  0.089438  0  0.988451  0  0  0.096774  0  1.056685  0  0  0.098738  0  1.055286  0  0.123945  0  0.132456  0.095125  0  1.058188  0
H  H30  1  0.02872425  0.99592525  0.61538237  1  0  0.118885  0  0.91253  0  0  0.131407  0  0.968035  0  0  0.134259  0  0.964756  0  0.174898  0  0.152313  0.129134  0  0.97066  0
H  H31  1  0.97126892  0.00407411  0.38462054  1  0  0.118839  0  0.912602  0  0  0.131443  0  0.968018  0  0  0.134297  0  0.964736  0  0.174915  0  0.152331  0.129168  0  0.970645  0
H  H32  1  0.95034591  0.73490524  0.41213924  1  0  0.105018  0  0.944826  0  0  0.115019  0  1.011161  0  0  0.116242  0  1.010195  0  0.116046  0  0.114404  0.114011  0  1.011953  0
H  H33  1  0.04964455  0.26508680  0.58786243  1  0  0.104907  0  0.944907  0  0  0.114903  0  1.011259  0  0  0.116124  0  1.010296  0  0.115937  0  0.114356  0.113889  0  1.012044  0
H  H34  1  0.86224008  0.74606467  0.53192855  1  0  0.090493  0  0.906052  0  0  0.107118  0  0.962169  0  0  0.10798  0  0.961511  0  0.098326  0  0.118904  0.106406  0  0.962751  0
H  H35  1  0.13775921  0.25393102  0.46807799  1  0  0.090448  0  0.905974  0  0  0.107085  0  0.962089  0  0  0.107948  0  0.961428  0  0.098391  0  0.118857  0.106367  0  0.96267  0
H  H36  1  0.11413826  0.59330578  0.37159902  1  0  0.096197  0  0.992965  0  0  0.103447  0  1.060111  0  0  0.104424  0  1.062696  0  0.118072  0  0.100728  0.102573  0  1.058643  0
H  H37  1  0.88587053  0.40669540  0.62840820  1  0  0.096086  0  0.993118  0  0  0.103399  0  1.060186  0  0  0.104385  0  1.062742  0  0.118046  0  0.100708  0.102523  0  1.058719  0
H  H38  1  0.84718155  0.59939591  0.62620717  1  0  0.105271  0  0.937479  0  0  0.115985  0  0.996495  0  0  0.118982  0  0.995672  0  0.075434  0  0.106944  0.114178  0  0.996719  0
H  H39  1  0.15282230  0.40060345  0.37380041  1  0  0.105314  0  0.937436  0  0  0.116017  0  0.996463  0  0  0.119013  0  0.995639  0  0.075115  0  0.106972  0.114211  0  0.996679  0
C  C40  1  0.62322008  0.25886678  0.78558800  1  0  0.623049  0  3.944471  0  0  0.579691  0  4.227732  0  0  0.612061  0  4.222497  0  1.554781  0  0.191354  0.558021  0  4.230107  0
C  C41  1  0.37678202  0.74113074  0.21441297  1  0  0.623052  0  3.944338  0  0  0.579693  0  4.227592  0  0  0.612066  0  4.222356  0  1.554511  0  0.19131  0.558026  0  4.229962  0
C  C42  1  0.76938040  0.34863800  0.80153754  1  0  -0.044261  0  3.789314  0  0  -0.01637  0  4.020051  0  0  -0.02231  0  4.041582  0  -0.101127  0  -0.022349  -0.012952  0  4.005911  0
C  C43  1  0.23062024  0.65136135  0.19846224  1  0  -0.044369  0  3.789369  0  0  -0.01647  0  4.020099  0  0  -0.022415  0  4.041628  0  -0.101011  0  -0.022353  -0.013054  0  4.005963  0
C  C44  1  0.78385309  0.47269429  0.83607359  1  0  -0.158904  0  3.675722  0  0  -0.194416  0  3.931088  0  0  -0.19504  0  3.946551  0  0.049663  0  -0.091359  -0.193922  0  3.921246  0
C  C45  1  0.21614475  0.52730324  0.16392437  1  0  -0.158877  0  3.675708  0  0  -0.194398  0  3.931083  0  0  -0.195016  0  3.946536  0  0.049636  0  -0.091367  -0.193904  0  3.921242  0
C  C46  1  0.92587154  0.55838866  0.87061564  1  0  0.265338  0  3.82703  0  0  0.261328  0  4.087945  0  0  0.270861  0  4.104111  0  0.448364  0  0.080579  0.254593  0  4.077307  0
C  C47  1  0.07412590  0.44161070  0.12938454  1  0  0.26535  0  3.827098  0  0  0.261338  0  4.088013  0  0  0.270874  0  4.104173  0  0.448297  0  0.080583  0.254603  0  4.077374  0
C  C48  1  0.05343545  0.51934528  0.87008654  1  0  -0.207702  0  3.729517  0  0  -0.241587  0  3.985078  0  0  -0.245006  0  4.005081  0  0.023488  0  -0.103229  -0.239391  0  3.971916  0
C  C49  1  0.94656447  0.48065499  0.12990853  1  0  -0.207594  0  3.729554  0  0  -0.241488  0  3.98511  0  0  -0.24488  0  4.005103  0  0.023393  0  -0.103196  -0.239302  0  3.971965  0
C  C50  1  0.03712827  0.39358398  0.82946601  1  0  -0.049712  0  3.807638  0  0  -0.024055  0  4.042204  0  0  -0.030042  0  4.064136  0  -0.123744  0  -0.025843  -0.020013  0  4.026539  0
C  C51  1  0.96286811  0.60641537  0.17053157  1  0  -0.049777  0  3.807712  0  0  -0.024114  0  4.042271  0  0  -0.030106  0  4.064191  0  -0.123844  0  -0.025806  -0.02007  0  4.026607  0
C  C52  1  0.17338578  0.35129157  0.82868026  1  0  0.636836  0  3.915401  0  0  0.590281  0  4.20334  0  0  0.624279  0  4.195019  0  1.549017  0  0.197411  0.567811  0  4.206897  0
C  C53  1  0.82661171  0.64870504  0.17131734  1  0  0.636943  0  3.915392  0  0  0.590411  0  4.203295  0  0  0.624415  0  4.194967  0  1.548991  0  0.197487  0.567941  0  4.206854  0
C  C54  1  0.89621124  0.30868633  0.79513469  1  0  -0.11952  0  3.750584  0  0  -0.15854  0  4.005775  0  0  -0.157712  0  4.02318  0  0.043024  0  -0.099065  -0.158487  0  3.993957  0
C  C55  1  0.10378412  0.69131029  0.20486099  1  0  -0.119493  0  3.750605  0  0  -0.158502  0  4.00579  0  0  -0.157664  0  4.023189  0  0.043112  0  -0.099096  -0.158453  0  3.993977  0
C  C56  1  0.06929328  0.77012788  0.93872486  1  0  0.054584  0  3.62321  0  0  -0.005492  0  3.879813  0  0  0.002985  0  3.883702  0  0.380122  0  -0.060059  -0.011299  0  3.877149  0
C  C57  1  0.93070411  0.22987422  0.06127626  1  0  0.054701  0  3.622986  0  0  -0.005436  0  3.87962  0  0  0.003051  0  3.883501  0  0.379931  0  -0.06004  -0.011251  0  3.876967  0
C  C58  1  0.03649939  0.88998017  0.97047739  1  0  0.074561  0  3.749458  0  0  0.09283  0  3.987505  0  0  0.092457  0  4.010778  0  0.018257  0  -0.011423  0.093051  0  3.971919  0
C  C59  1  0.96349760  0.11002376  0.02952021  1  0  0.074634  0  3.749308  0  0  0.092944  0  3.987318  0  0  0.092571  0  4.010588  0  0.018319  0  -0.011419  0.093168  0  3.971735  0
C  C60  1  0.96962075  0.92154490  0.87929967  1  0  -0.105489  0  3.7677  0  0  -0.129468  0  4.023769  0  0  -0.132245  0  4.046646  0  -0.043342  0  -0.093879  -0.12747  0  4.008169  0
C  C61  1  0.03037895  0.07846635  0.12070656  1  0  -0.105516  0  3.76723  0  0  -0.129532  0  4.023291  0  0  -0.13232  0  4.046178  0  -0.043474  0  -0.093881  -0.127534  0  4.007694  0
C  C62  1  0.06672053  0.96944264  0.09177693  1  0  -0.097272  0  3.736603  0  0  -0.117807  0  3.982079  0  0  -0.120968  0  4.005232  0  -0.024584  0  -0.085487  -0.115596  0  3.966317  0
C  C63  1  0.93327904  0.03055672  0.90822682  1  0  -0.097325  0  3.737084  0  0  -0.117844  0  3.982514  0  0  -0.120998  0  4.005655  0  -0.024507  0  -0.085495  -0.115631  0  3.96675  0
C  C64  1  0.44691588  0.20055967  0.14497595  1  0  0.133184  0  3.645698  0  0  0.077514  0  3.918623  0  0  0.087437  0  3.931189  0  0.926024  0  0.153074  0.071101  0  3.909815  0
C  C65  1  0.55308757  0.79944151  0.85502236  1  0  0.133112  0  3.645703  0  0  0.077441  0  3.918622  0  0  0.087363  0  3.931189  0  0.926007  0  0.153068  0.071028  0  3.909813  0
C  C66  1  0.47760719  0.33675047  0.06654419  1  0  0.166501  0  3.602249  0  0  0.098905  0  3.865749  0  0  0.112679  0  3.877143  0  0.980582  0  0.166813  0.089777  0  3.858106  0
C  C67  1  0.52238811  0.66324889  0.93345325  1  0  0.16648  0  3.602315  0  0  0.098874  0  3.865806  0  0  0.112649  0  3.877199  0  0.980662  0  0.166834  0.089746  0  3.858163  0
C  C68  1  0.61285726  0.42142494  0.28583708  1  0  -0.040406  0  3.632556  0  0  -0.108738  0  3.883791  0  0  -0.103762  0  3.894193  0  0.282573  0  -0.045052  -0.11235  0  3.877389  0
C  C69  1  0.38714153  0.57857808  0.71416045  1  0  -0.040134  0  3.632482  0  0  -0.108447  0  3.883729  0  0  -0.103479  0  3.89413  0  0.282326  0  -0.044962  -0.112059  0  3.877328  0
C  C70  1  0.54883577  0.45846693  0.39389445  1  0  0.061772  0  3.752822  0  0  0.079772  0  3.99713  0  0  0.078683  0  4.022574  0  -0.027107  0  -0.015317  0.081181  0  3.979472  0
C  C71  1  0.45117442  0.54153517  0.60610670  1  0  0.061814  0  3.752803  0  0  0.079781  0  3.997163  0  0  0.078694  0  4.022604  0  -0.026682  0  -0.01526  0.081186  0  3.979509  0
C  C72  1  0.52122284  0.57199310  0.43307185  1  0  -0.1151  0  3.726458  0  0  -0.13271  0  3.971728  0  0  -0.136083  0  3.993745  0  -0.044526  0  -0.091256  -0.130133  0  3.955788  0
C  C73  1  0.47878725  0.42801449  0.56693119  1  0  -0.115055  0  3.726487  0  0  -0.132652  0  3.971805  0  0  -0.136013  0  3.993823  0  -0.044548  0  -0.091236  -0.130074  0  3.955866  0
C  C74  1  0.52681136  0.38724323  0.46196274  1  0  -0.11919  0  3.764233  0  0  -0.140128  0  4.012721  0  0  -0.142756  0  4.035264  0  -0.036007  0  -0.094311  -0.137757  0  3.996657  0
C  C75  1  0.47319636  0.61275795  0.53804024  1  0  -0.119155  0  3.764281  0  0  -0.1401  0  4.012826  0  0  -0.142731  0  4.035372  0  -0.036475  0  -0.09435  -0.137729  0  3.996762  0
C  C76  1  0.22830084  0.81962819  0.63675266  1  0  0.116203  0  3.699868  0  0  0.059686  0  3.974513  0  0  0.068899  0  3.988463  0  0.996271  0  0.145706  0.053675  0  3.965178  0
C  C77  1  0.77169800  0.18037208  0.36324063  1  0  0.116149  0  3.699861  0  0  0.059618  0  3.974505  0  0  0.068836  0  3.988449  0  0.996234  0  0.145713  0.053607  0  3.965171  0
C  C78  1  0.11351251  0.95299162  0.63251639  1  0  0.150454  0  3.633584  0  0  0.0836  0  3.895298  0  0  0.096029  0  3.908846  0  0.961822  0  0.162798  0.075501  0  3.886068  0
C  C79  1  0.88648173  0.04700773  0.36748337  1  0  0.150438  0  3.633599  0  0  0.08351  0  3.89533  0  0  0.095937  0  3.908879  0  0.962219  0  0.162761  0.075411  0  3.886101  0
C  C80  1  0.96113371  0.73015242  0.50153872  1  0  -0.036528  0  3.609468  0  0  -0.103743  0  3.858917  0  0  -0.098244  0  3.867685  0  0.234465  0  -0.042581  -0.107447  0  3.853333  0
C  C81  1  0.03885923  0.26984053  0.49846358  1  0  -0.036289  0  3.609387  0  0  -0.103472  0  3.858831  0  0  -0.097973  0  3.867604  0  0.234862  0  -0.042412  -0.107141  0  3.853197  0
C  C82  1  0.97734218  0.60918876  0.49815338  1  0  0.053738  0  3.764714  0  0  0.074141  0  4.005677  0  0  0.072853  0  4.029924  0  -0.007802  0  -0.015803  0.074977  0  3.989671  0
C  C83  1  0.02265851  0.39080785  0.50185120  1  0  0.05381  0  3.764593  0  0  0.074108  0  4.005703  0  0  0.072817  0  4.029957  0  -0.008164  0  -0.01579  0.074939  0  3.989692  0
C  C84  1  0.06330516  0.55224731  0.42750572  1  0  -0.116593  0  3.750047  0  0  -0.136462  0  3.999308  0  0  -0.139255  0  4.022846  0  -0.06818  0  -0.090423  -0.13473  0  3.984567  0
C  C85  1  0.93669795  0.44775296  0.57250290  1  0  -0.116559  0  3.750161  0  0  -0.136462  0  3.999478  0  0  -0.139251  0  4.023023  0  -0.068453  0  -0.09047  -0.134731  0  3.98474  0
C  C86  1  0.91432460  0.55616500  0.57067544  1  0  -0.109973  0  3.739635  0  0  -0.132902  0  3.993561  0  0  -0.135419  0  4.015273  0  -0.075538  0  -0.089092  -0.131995  0  3.98039  0
C  C87  1  0.08568171  0.44383527  0.42933606  1  0  -0.110102  0  3.739592  0  0  -0.132999  0  3.993568  0  0  -0.135512  0  4.015275  0  -0.075273  0  -0.089162  -0.132088  0  3.9804  0
N  N88  1  0.39733233  0.22936198  0.98021146  1  0  -0.260211  0  3.260879  0  0  -0.184409  0  3.570501  0  0  -0.202007  0  3.582353  0  -0.812079  0  -0.241719  -0.17237  0  3.562125  0
N  N89  1  0.60266904  0.77063646  0.01978646  1  0  -0.260238  0  3.260881  0  0  -0.184408  0  3.57048  0  0  -0.202008  0  3.582334  0  -0.811987  0  -0.241692  -0.172369  0  3.562103  0
N  N90  1  0.37698780  0.14247209  0.02883322  1  0  -0.186442  0  2.884  0  0  -0.176115  0  3.15797  0  0  -0.181522  0  3.172483  0  -0.638423  0  -0.214256  -0.172373  0  3.147888  0
N  N91  1  0.62301644  0.85752544  0.97116476  1  0  -0.186464  0  2.884085  0  0  -0.176152  0  3.158066  0  0  -0.181557  0  3.172578  0  -0.638392  0  -0.214341  -0.172409  0  3.147982  0
N  N92  1  0.51166885  0.32296857  0.17287705  1  0  -0.090138  0  3.509034  0  0  0.0045  0  3.735168  0  0  -0.01198  0  3.75863  0  -1.231927  0  -0.232452  0.015608  0  3.71886  0
N  N93  1  0.48832893  0.67703170  0.82712103  1  0  -0.090177  0  3.509082  0  0  0.004465  0  3.7352  0  0  -0.012015  0  3.758664  0  -1.231967  0  -0.232484  0.015573  0  3.718892  0
N  N94  1  0.25158125  0.01132957  0.70364387  1  0  -0.232806  0  3.22271  0  0  -0.159578  0  3.530724  0  0  -0.174987  0  3.541067  0  -0.759543  0  -0.223612  -0.149234  0  3.523746  0
N  N95  1  0.74841793  0.98867162  0.29635225  1  0  -0.232693  0  3.22266  0  0  -0.159491  0  3.530719  0  0  -0.174899  0  3.541066  0  -0.75992  0  -0.223554  -0.149148  0  3.52374  0
N  N96  1  0.32510569  0.92721334  0.70680482  1  0  -0.186391  0  2.904753  0  0  -0.176574  0  3.182439  0  0  -0.181847  0  3.194795  0  -0.666783  0  -0.212286  -0.173186  0  3.174223  0
N  N97  1  0.67489670  0.07278785  0.29318844  1  0  -0.186312  0  2.904724  0  0  -0.176475  0  3.1824  0  0  -0.181747  0  3.194753  0  -0.666528  0  -0.212293  -0.173088  0  3.174184  0
N  N98  1  0.09425255  0.83075286  0.58777941  1  0  -0.080637  0  3.5247  0  0  0.015462  0  3.747301  0  0  -0.000738  0  3.771497  0  -1.218053  0  -0.225909  0.026158  0  3.730663  0
N  N99  1  0.90574523  0.16924741  0.41221867  1  0  -0.080689  0  3.524708  0  0  0.015422  0  3.747325  0  0  -0.00078  0  3.771522  0  -1.21842  0  -0.225943  0.026112  0  3.73068  0
O  O100  1  0.50248222  0.28887742  0.75808120  1  0  -0.659802  0  2.037766  0  0  -0.586159  0  2.304095  0  0  -0.614326  0  2.287863  0  -1.169022  0  -0.344781  -0.56662  0  2.315162  0
O  O101  1  0.49751718  0.71111279  0.24191115  1  0  -0.659802  0  2.037685  0  0  -0.586152  0  2.304003  0  0  -0.61432  0  2.28777  0  -1.168933  0  -0.344785  -0.56661  0  2.315062  0
O  O102  1  0.62422387  0.16555382  0.80574135  1  0  -0.601116  0  1.886187  0  0  -0.560441  0  2.095556  0  0  -0.582094  0  2.087326  0  -1.161481  0  -0.328943  -0.544933  0  2.10026  0
O  O103  1  0.37578060  0.83445011  0.19426789  1  0  -0.601071  0  1.886059  0  0  -0.560404  0  2.09544  0  0  -0.582057  0  2.087206  0  -1.161396  0  -0.328903  -0.544898  0  2.100141  0
O  O104  1  0.15126437  0.23665220  0.76129262  1  0  -0.67542  0  2.015809  0  0  -0.605079  0  2.28322  0  0  -0.633269  0  2.267593  0  -1.182238  0  -0.348197  -0.585061  0  2.29301  0
O  O105  1  0.84873486  0.76334624  0.23870748  1  0  -0.675571  0  2.015697  0  0  -0.605234  0  2.283104  0  0  -0.633427  0  2.267475  0  -1.182192  0  -0.348308  -0.58521  0  2.292887  0
O  O106  1  0.29966157  0.42496668  0.89053229  1  0  -0.614461  0  1.949328  0  0  -0.567877  0  2.180167  0  0  -0.591005  0  2.171401  0  -1.186622  0  -0.316509  -0.550595  0  2.184769  0
O  O107  1  0.70033553  0.57503176  0.10946508  1  0  -0.614422  0  1.949429  0  0  -0.567857  0  2.180276  0  0  -0.590983  0  2.171495  0  -1.186696  0  -0.316473  -0.550574  0  2.184876  0
O  O108  1  0.92654188  0.67717897  0.90409492  1  0  -0.288225  0  2.29546  0  0  -0.221224  0  2.528685  0  0  -0.239202  0  2.532086  0  -1.061606  0  -0.183813  -0.208608  0  2.52599  0
O  O109  1  0.07346162  0.32281947  0.09590574  1  0  -0.288291  0  2.295374  0  0  -0.221276  0  2.528603  0  0  -0.239263  0  2.532007  0  -1.061625  0  -0.18383  -0.208658  0  2.525913  0
