# generated using pymatgen
data_Zr3H35(C2O)18
_symmetry_space_group_name_H-M   'P 1'
_cell_length_a   14.82883250
_cell_length_b   14.84422968
_cell_length_c   14.70903482
_cell_angle_alpha   60.64053731
_cell_angle_beta   59.71590234
_cell_angle_gamma   59.76228049
_symmetry_Int_Tables_number   1
_chemical_formula_structural   Zr3H35(C2O)18
_chemical_formula_sum   'Zr6 H70 C72 O36'
_cell_volume   2291.13683033
_cell_formula_units_Z   2
loop_
 _symmetry_equiv_pos_site_id
 _symmetry_equiv_pos_as_xyz
  1  'x, y, z'
loop_
 _atom_site_type_symbol
 _atom_site_label
 _atom_site_symmetry_multiplicity
 _atom_site_fract_x
 _atom_site_fract_y
 _atom_site_fract_z
 _atom_site_occupancy
 _atom_site_pbe_bader_charge
 _atom_site_pbe_bader_spin_density
 _atom_site_pbe_cm5_charge
 _atom_site_pbe_ddec_charge
 _atom_site_pbe_ddec_spin_density
 _atom_site_pbe_ddec_sum_bond_order
 _atom_site_pbe_magmom
Zr  Zr0  1  0.88799064  0.87742097  0.61907442  1  2.632311  0  1.624344  2.364519  0  2.757237  0
Zr  Zr1  1  0.12017056  0.12086943  0.38692463  1  2.63713  0  1.631793  2.374191  0  2.730327  0
Zr  Zr2  1  0.12638671  0.87850965  0.61901042  1  2.635067  0  1.62882  2.371844  0  2.723544  0
Zr  Zr3  1  0.88187444  0.11928526  0.38674794  1  2.631054  0  1.628559  2.367383  0  2.753585  0
Zr  Zr4  1  0.12480192  0.88497013  0.37671189  1  2.632209  0  1.631155  2.361106  0  2.757978  0
Zr  Zr5  1  0.88172903  0.11399693  0.62892704  1  2.627987  0  1.628786  2.362574  0  2.743517  0
H  H6  1  0.10920541  0.71916293  0.58330620  1  0.591833  0  0.329236  0.419431  0  0.864849  0
H  H7  1  0.09083359  0.09770090  0.22089123  1  0.597083  0  0.329894  0.418886  0  0.866361  0
H  H8  1  0.09234330  0.08697692  0.60793581  1  0.600588  0  0.3293  0.417695  0  0.867608  0
H  H9  1  0.72068454  0.09337745  0.59700753  1  0.617808  0  0.328972  0.417386  0  0.869742  0
H  H10  1  0.76227279  0.62501867  0.94202769  1  0.074179  0  0.100451  0.116485  0  1.036784  0
H  H11  1  0.85405938  0.52534223  0.87178404  1  0.045372  0  0.10279  0.117765  0  0.976459  0
H  H12  1  0.83134740  0.37470584  0.05629116  1  0.062335  0  0.099326  0.115355  0  1.036604  0
H  H13  1  0.74731372  0.47452979  0.12668008  1  0.066497  0  0.103309  0.118536  0  0.978951  0
H  H14  1  0.28598308  0.34301940  0.40921248  1  0.026829  0  0.087057  0.119054  0  1.019208  0
H  H15  1  0.21969862  0.25372031  0.44418949  1  0.068923  0  0.08724  0.128365  0  1.051112  0
H  H16  1  0.23044214  0.36129909  0.31702003  1  0.063803  0  0.098042  0.146963  0  0.999809  0
H  H17  1  0.73539095  0.61380482  0.63686637  1  0.022646  0  0.087883  0.120718  0  1.022  0
H  H18  1  0.79065020  0.63843134  0.70191823  1  0.025309  0  0.091012  0.124667  0  1.009581  0
H  H19  1  0.78979537  0.72198499  0.56710020  1  0.072003  0  0.094575  0.143245  0  1.011656  0
H  H20  1  0.25038969  0.52411962  0.29789137  1  0.054527  0  0.099896  0.143656  0  0.980888  0
H  H21  1  0.20549254  0.62263950  0.36036857  1  0.074789  0  0.094425  0.137488  0  1.078701  0
H  H22  1  0.27776221  0.48206453  0.41899587  1  0.020795  0  0.090221  0.122109  0  1.00762  0
H  H23  1  0.78964001  0.37694413  0.69422035  1  0.06096  0  0.096975  0.140145  0  1.048477  0
H  H24  1  0.88685406  0.33252232  0.75456697  1  0.034323  0  0.092585  0.129706  0  1.007804  0
H  H25  1  0.78224387  0.46333866  0.75082173  1  0.069441  0  0.089904  0.125618  0  1.019609  0
H  H26  1  0.31845817  0.28833152  0.95129626  1  0.026386  0  0.082841  0.110688  0  1.031791  0
H  H27  1  0.27174232  0.22375211  0.09697236  1  0.091583  0  0.088116  0.132025  0  1.071262  0
H  H28  1  0.39226175  0.25853482  0.03096346  1  0.06486  0  0.099756  0.150703  0  0.976373  0
H  H29  1  0.62036549  0.79499817  0.87092771  1  0.035096  0  0.094356  0.129155  0  1.007827  0
H  H30  1  0.69998106  0.78653436  0.93326426  1  0.080449  0  0.095658  0.137882  0  1.011889  0
H  H31  1  0.58258357  0.74268997  0.01824151  1  -0.001078  0  0.088973  0.121666  0  1.016546  0
H  H32  1  0.57454768  0.23999391  0.85611116  1  0.029588  0  0.098171  0.139398  0  0.977336  0
H  H33  1  0.58823668  0.21357782  0.74508777  1  0.071095  0  0.086335  0.124781  0  1.057005  0
H  H34  1  0.45620384  0.28637839  0.82323269  1  0.029165  0  0.087794  0.123774  0  1.024481  0
H  H35  1  0.38730255  0.78393875  0.14394254  1  0.080162  0  0.093959  0.134081  0  1.046161  0
H  H36  1  0.29288295  0.89368420  0.07865266  1  0.079184  0  0.095322  0.14134  0  1.007063  0
H  H37  1  0.42023353  0.81490706  0.00045413  1  0.02654  0  0.088493  0.121899  0  1.010496  0
H  H38  1  0.82710947  0.21363469  0.85007734  1  0.069991  0  0.093063  0.131847  0  1.047514  0
H  H39  1  0.76063739  0.11599650  0.92699354  1  0.047927  0  0.097782  0.144925  0  0.9989  0
H  H40  1  0.74324096  0.20090171  0.99163208  1  0.018716  0  0.088005  0.12177  0  1.01363  0
H  H41  1  0.16531109  0.74476039  0.14984937  1  0.025751  0  0.097634  0.141468  0  0.969635  0
H  H42  1  0.04680447  0.78362264  0.26068595  1  0.099702  0  0.090699  0.135663  0  1.059476  0
H  H43  1  0.04833470  0.71098445  0.19369377  1  0.031776  0  0.087641  0.122105  0  1.020307  0
H  H44  1  0.78857855  0.20534160  0.13047277  1  0.044112  0  0.095483  0.130945  0  1.001652  0
H  H45  1  0.92488839  0.20380239  0.07798094  1  0.04007  0  0.091734  0.129391  0  1.019529  0
H  H46  1  0.85546471  0.25438423  0.98441382  1  0.022641  0  0.088056  0.119064  0  1.018265  0
H  H47  1  0.05909106  0.76271738  0.93497624  1  0.047858  0  0.086057  0.126159  0  1.038518  0
H  H48  1  0.18023497  0.77066563  0.91873662  1  0.081423  0  0.099687  0.150518  0  0.980517  0
H  H49  1  0.10419776  0.70186126  0.04986367  1  0.031658  0  0.085735  0.119194  0  1.05133  0
H  H50  1  0.50306301  0.55478362  0.24191991  1  -0.001265  0  0.088598  0.122516  0  1.013534  0
H  H51  1  0.35971393  0.60457806  0.31778717  1  0.06614  0  0.09361  0.134307  0  1.059425  0
H  H52  1  0.44061364  0.68724294  0.25673992  1  0.059005  0  0.094369  0.135537  0  1.025355  0
H  H53  1  0.63726514  0.47016161  0.66250723  1  0.024328  0  0.098464  0.13788  0  0.981396  0
H  H54  1  0.75266002  0.41474243  0.55815140  1  0.086734  0  0.092643  0.135134  0  1.052461  0
H  H55  1  0.69811409  0.55823070  0.53572538  1  0.019124  0  0.089477  0.121227  0  1.017813  0
H  H56  1  0.63363926  0.36716405  0.29703140  1  0.049916  0  0.091806  0.125012  0  1.010717  0
H  H57  1  0.57722938  0.28886824  0.43304880  1  0.0573  0  0.092719  0.137208  0  1.01039  0
H  H58  1  0.48727862  0.39908425  0.35988470  1  0.015618  0  0.087909  0.121581  0  1.019024  0
H  H59  1  0.56340252  0.68963376  0.54407404  1  0.00516  0  0.087992  0.118907  0  1.017094  0
H  H60  1  0.42155527  0.75375218  0.55592823  1  0.08744  0  0.091131  0.13992  0  1.059829  0
H  H61  1  0.46234778  0.63815854  0.66478651  1  0.044986  0  0.09761  0.142191  0  0.978955  0
H  H62  1  0.28868766  0.04856810  0.73616999  1  0.033774  0  0.089448  0.120038  0  1.004813  0
H  H63  1  0.24343730  0.98612280  0.69729457  1  0.047453  0  0.089429  0.127569  0  1.050042  0
H  H64  1  0.33706680  0.90454029  0.77023116  1  0.028188  0  0.098161  0.137412  0  0.978201  0
H  H65  1  0.68957642  0.07952255  0.23330840  1  0.043512  0  0.09363  0.129454  0  0.998964  0
H  H66  1  0.77596636  0.98071616  0.31285823  1  0.035865  0  0.091703  0.132806  0  1.031946  0
H  H67  1  0.72133692  0.93874192  0.26262013  1  0.041199  0  0.091292  0.124137  0  1.000892  0
H  H68  1  0.49438177  0.90697634  0.77074373  1  0.025925  0  0.094154  0.129034  0  0.997996  0
H  H69  1  0.58211737  0.98562049  0.69553415  1  0.056497  0  0.087692  0.123246  0  1.05886  0
H  H70  1  0.43539226  0.05107943  0.73431021  1  0.024623  0  0.0902  0.122556  0  1.000987  0
H  H71  1  0.56256890  0.92935942  0.27617550  1  0.01725  0  0.090224  0.121589  0  0.994799  0
H  H72  1  0.42594794  0.02758385  0.29455733  1  0.095384  0  0.093932  0.143974  0  1.042011  0
H  H73  1  0.54215492  0.07095561  0.22264481  1  0.040705  0  0.095125  0.133221  0  0.989442  0
H  H74  1  0.99185815  0.52375231  0.21207018  1  0.616109  0  0.338313  0.368386  0  0.872655  0
H  H75  1  0.22132444  0.48822392  0.79316904  1  0.597929  0  0.332555  0.359735  0  0.885167  0
C  C76  1  0.00766691  0.69634443  0.49441087  1  1.530329  0  0.239563  0.646551  0  4.048417  0
C  C77  1  0.29637099  0.01406039  0.18527958  1  1.522332  0  0.236183  0.642834  0  4.069352  0
C  C78  1  0.00082909  0.29453401  0.52388032  1  1.525103  0  0.234467  0.640052  0  4.063594  0
C  C79  1  0.69532960  0.99612480  0.80539283  1  1.521929  0  0.235888  0.644315  0  4.070647  0
C  C80  1  0.01406808  0.68924573  0.80005953  1  1.573719  0  0.229617  0.626131  0  4.144642  0
C  C81  1  0.70221226  0.99526215  0.49923841  1  1.551217  0  0.23777  0.655452  0  4.08211  0
C  C82  1  0.99356454  0.31287037  0.21042973  1  1.576977  0  0.231203  0.629579  0  4.136334  0
C  C83  1  0.31042303  0.99751649  0.49876561  1  1.540051  0  0.245961  0.662882  0  4.059558  0
C  C84  1  0.32619496  0.71250526  0.47619001  1  1.52511  0  0.238508  0.648212  0  4.059556  0
C  C85  1  0.98767926  0.98049790  0.82414740  1  1.543496  0  0.240074  0.650586  0  4.056095  0
C  C86  1  0.70558992  0.31144973  0.50015094  1  1.523185  0  0.239568  0.651848  0  4.057077  0
C  C87  1  0.99306621  0.99466684  0.20504814  1  1.517894  0  0.237765  0.646708  0  4.068644  0
C  C88  1  0.01134672  0.38702188  0.52998442  1  -0.035652  0  -0.018206  -0.163917  0  3.889638  0
C  C89  1  0.00981330  0.59058252  0.50081938  1  -0.084899  0  -0.01877  -0.163976  0  3.882913  0
C  C90  1  0.10827386  0.41585220  0.46030702  1  0.022719  0  0.000196  0.110891  0  3.89994  0
C  C91  1  0.91393220  0.55919017  0.57352322  1  0.039716  0  -0.006056  0.091287  0  3.903647  0
C  C92  1  0.10801153  0.51671326  0.44777135  1  0.033875  0  -0.005681  0.09971  0  3.902188  0
C  C93  1  0.92039495  0.45219906  0.59759817  1  -0.012455  0  -0.003357  0.103342  0  3.903745  0
C  C94  1  0.38092930  0.02386523  0.07039180  1  -0.015788  0  -0.018138  -0.16444  0  3.892936  0
C  C95  1  0.58198657  0.00842797  0.89170122  1  0.004558  0  -0.019152  -0.163388  0  3.909931  0
C  C96  1  0.41389327  0.11769175  0.00249124  1  -0.040586  0  -0.003373  0.105412  0  3.919045  0
C  C97  1  0.54335814  0.91805103  0.95355778  1  -0.030979  0  -0.005767  0.094941  0  3.914003  0
C  C98  1  0.51105436  0.11230503  0.90777209  1  -0.012212  0  -0.005334  0.095386  0  3.904305  0
C  C99  1  0.43565862  0.93128865  0.03276502  1  -0.010893  0  0.000384  0.10864  0  3.892951  0
C  C100  1  0.97062954  0.97373588  0.93657405  1  -0.043261  0  -0.018879  -0.164064  0  3.900555  0
C  C101  1  0.97947277  0.98470778  0.11648641  1  -0.036427  0  -0.017821  -0.160732  0  3.906943  0
C  C102  1  0.89924886  0.06815520  0.97186007  1  -0.00567  0  -0.000737  0.105648  0  3.900386  0
C  C103  1  0.02735495  0.88165045  0.09944266  1  -0.02598  0  -0.003138  0.100725  0  3.899677  0
C  C104  1  0.91562740  0.07820014  0.05231834  1  0.029934  0  -0.007696  0.089437  0  3.918875  0
C  C105  1  0.03046316  0.87870715  0.00340633  1  -0.008071  0  -0.003493  0.103784  0  3.926438  0
C  C106  1  0.43870198  0.62353242  0.46349027  1  -0.061906  0  -0.01696  -0.16108  0  3.889828  0
C  C107  1  0.61568384  0.42202861  0.48443294  1  -0.009264  0  -0.019032  -0.159648  0  3.898866  0
C  C108  1  0.47494224  0.55762159  0.39877618  1  0.03452  0  -0.005471  0.097895  0  3.921253  0
C  C109  1  0.59805022  0.50026047  0.52550351  1  -0.003023  0  -0.005846  0.097953  0  3.914377  0
C  C110  1  0.55326260  0.45100615  0.42022791  1  -0.06314  0  -0.009417  0.085611  0  3.920941  0
C  C111  1  0.50492825  0.59816762  0.52182113  1  0.026134  0  8.3e-05  0.110862  0  3.89789  0
C  C112  1  0.01647991  0.58721947  0.89911418  1  -0.001586  0  -0.013196  -0.120474  0  3.961898  0
C  C113  1  0.99509650  0.41402640  0.11058101  1  -0.00199  0  -0.012788  -0.119707  0  3.958403  0
C  C114  1  0.93176478  0.54375997  0.95268499  1  0.009693  0  5.2e-05  0.073824  0  3.886588  0
C  C115  1  0.07854084  0.46201325  0.06071634  1  -0.048743  0  0.000883  -0.08529  0  3.919507  0
C  C116  1  0.92405968  0.45707441  0.05278743  1  -0.002038  0  0.001038  0.076842  0  3.887921  0
C  C117  1  0.09610564  0.53797705  0.95219465  1  -0.064375  0  -0.000262  -0.089346  0  3.926151  0
C  C118  1  0.83265219  0.54794721  0.94287185  1  0.000186  0  -0.150164  -0.200922  0  3.850436  0
C  C119  1  0.82233958  0.45210051  0.05712959  1  -0.031395  0  -0.150105  -0.202191  0  3.851145  0
C  C120  1  0.41221902  0.99628757  0.49869888  1  -0.047536  0  -0.016465  -0.155919  0  3.918976  0
C  C121  1  0.60117370  0.99352691  0.49996943  1  -0.055676  0  -0.017701  -0.150123  0  3.926685  0
C  C122  1  0.41300944  0.98800088  0.59819478  1  0.007696  0  -0.007088  0.091803  0  3.924521  0
C  C123  1  0.60116061  0.99909507  0.40154135  1  -0.025562  0  -0.009513  0.086367  0  3.940335  0
C  C124  1  0.50813502  0.98787838  0.59832759  1  0.022829  0  -0.011662  0.084405  0  3.939227  0
C  C125  1  0.50521247  0.00245220  0.39998225  1  0.032836  0  -0.004882  0.096425  0  3.919933  0
C  C126  1  0.21612487  0.33907977  0.40530454  1  -0.071188  0  -0.248465  -0.412579  0  3.965173  0
C  C127  1  0.80192488  0.63718359  0.62265188  1  -0.042158  0  -0.246132  -0.40812  0  3.983014  0
C  C128  1  0.21571458  0.53878849  0.37731771  1  -0.073805  0  -0.249816  -0.429018  0  3.989083  0
C  C129  1  0.83851290  0.40525105  0.70374461  1  -0.083965  0  -0.246752  -0.421723  0  3.979078  0
C  C130  1  0.34506088  0.22657796  0.02283338  1  -0.051525  0  -0.254354  -0.421453  0  3.99762  0
C  C131  1  0.61481059  0.80449262  0.94338687  1  -0.039326  0  -0.244339  -0.415259  0  4.000892  0
C  C132  1  0.53391168  0.21771207  0.82862943  1  -0.040388  0  -0.246254  -0.403284  0  3.97894  0
C  C133  1  0.38163892  0.85125764  0.06653791  1  -0.091033  0  -0.245017  -0.412449  0  3.972922  0
C  C134  1  0.80307669  0.15488524  0.93257980  1  -0.048768  0  -0.245821  -0.412431  0  3.971336  0
C  C135  1  0.07384779  0.77552648  0.18037895  1  -0.061694  0  -0.247836  -0.40944  0  3.968157  0
C  C136  1  0.86813893  0.19133824  0.06190671  1  -0.045374  0  -0.244879  -0.413732  0  4.008865  0
C  C137  1  0.09553863  0.77328919  0.97616048  1  -0.031384  0  -0.25481  -0.420458  0  4.003956  0
C  C138  1  0.44181724  0.60233965  0.29939252  1  -0.049846  0  -0.248746  -0.419493  0  3.987995  0
C  C139  1  0.67625217  0.48407712  0.57244839  1  -0.043148  0  -0.247157  -0.416817  0  3.991089  0
C  C140  1  0.56341924  0.37279509  0.37508434  1  -0.032316  0  -0.243744  -0.402462  0  3.985328  0
C  C141  1  0.48609604  0.67468738  0.57383994  1  -0.045167  0  -0.245748  -0.41222  0  3.961155  0
C  C142  1  0.31492190  0.98228564  0.70483562  1  -0.03624  0  -0.241479  -0.400128  0  3.971681  0
C  C143  1  0.70244854  0.99891163  0.29816612  1  -0.033927  0  -0.241455  -0.403714  0  3.978386  0
C  C144  1  0.50571472  0.98340842  0.70399997  1  -0.050922  0  -0.243148  -0.402692  0  3.98076  0
C  C145  1  0.50786655  0.00796023  0.29354944  1  -0.070336  0  -0.24151  -0.404078  0  3.956905  0
C  C146  1  0.13897990  0.44470927  0.12938490  1  1.567697  0  0.240824  0.582831  0  4.099037  0
C  C147  1  0.20922940  0.55211734  0.88790682  1  1.545585  0  0.238803  0.580779  0  4.097811  0
O  O148  1  0.93539663  0.73323698  0.57582449  1  -1.183542  0  -0.357667  -0.612439  0  2.355501  0
O  O149  1  0.26593405  0.08089697  0.23484978  1  -1.178367  0  -0.344834  -0.607275  0  2.277035  0
O  O150  1  0.06749081  0.26308269  0.43829067  1  -1.179565  0  -0.350951  -0.603846  0  2.338927  0
O  O151  1  0.74187684  0.91803425  0.76401667  1  -1.186448  0  -0.358675  -0.622177  0  2.327702  0
O  O152  1  0.09026763  0.72861504  0.76089298  1  -1.171916  0  -0.339985  -0.606042  0  2.322055  0
O  O153  1  0.73355620  0.07824955  0.43042169  1  -1.178355  0  -0.346574  -0.612832  0  2.256244  0
O  O154  1  0.92122885  0.27165638  0.24179483  1  -1.164861  0  -0.334025  -0.58947  0  2.248191  0
O  O155  1  0.27244343  0.91981370  0.57237378  1  -1.179941  0  -0.346635  -0.60968  0  2.301571  0
O  O156  1  0.27957255  0.74904959  0.40544415  1  -1.18027  0  -0.355646  -0.617021  0  2.303516  0
O  O157  1  0.91735386  0.06008403  0.77780846  1  -1.19082  0  -0.363396  -0.61195  0  2.384862  0
O  O158  1  0.73619526  0.26576091  0.58463466  1  -1.187045  0  -0.342283  -0.611772  0  2.277754  0
O  O159  1  0.07946805  0.92833841  0.23248079  1  -1.18097  0  -0.348763  -0.610005  0  2.311761  0
O  O160  1  0.07418907  0.91290310  0.77548309  1  -1.183878  0  -0.34782  -0.613444  0  2.282971  0
O  O161  1  0.74772410  0.26685429  0.42547978  1  -1.178568  0  -0.361951  -0.618752  0  2.36743  0
O  O162  1  0.91763391  0.07049963  0.24865379  1  -1.181419  0  -0.357298  -0.621613  0  2.337458  0
O  O163  1  0.27784846  0.74216690  0.56268535  1  -1.172953  0  -0.350482  -0.60725  0  2.31308  0
O  O164  1  0.93320316  0.73047019  0.76630420  1  -1.172115  0  -0.336333  -0.591759  0  2.255446  0
O  O165  1  0.26658699  0.07662492  0.42638462  1  -1.1847  0  -0.34901  -0.613968  0  2.291374  0
O  O166  1  0.06925062  0.27304342  0.25099502  1  -1.17258  0  -0.341361  -0.604155  0  2.330215  0
O  O167  1  0.74954209  0.91463906  0.56818822  1  -1.190729  0  -0.349106  -0.616907  0  2.276518  0
O  O168  1  0.74025968  0.06503256  0.77523909  1  -1.175083  0  -0.346135  -0.601176  0  2.320486  0
O  O169  1  0.07697244  0.74386688  0.41375127  1  -1.193421  0  -0.343538  -0.608667  0  2.329049  0
O  O170  1  0.26226840  0.93259718  0.23242747  1  -1.178939  0  -0.361176  -0.611989  0  2.376163  0
O  O171  1  0.92354713  0.25471812  0.59950875  1  -1.188206  0  -0.351336  -0.616867  0  2.297959  0
O  O172  1  0.80113359  0.06495550  0.57220786  1  -1.248407  0  -0.697017  -1.072732  0  2.384847  0
O  O173  1  0.06928255  0.06228065  0.57556490  1  -1.225751  0  -0.695472  -1.072145  0  2.387708  0
O  O174  1  0.06619849  0.07268404  0.30124195  1  -1.229385  0  -0.695967  -1.072422  0  2.383211  0
O  O175  1  0.07716606  0.79863351  0.56222909  1  -1.223054  0  -0.696948  -1.072799  0  2.387047  0
O  O176  1  0.15224104  0.95320959  0.45008985  1  -1.19345  0  -0.790125  -1.146073  0  2.141061  0
O  O177  1  0.95468116  0.95083638  0.45110225  1  -1.200468  0  -0.793325  -1.147857  0  2.146138  0
O  O178  1  0.95163170  0.14698927  0.45878260  1  -1.198199  0  -0.792212  -1.146515  0  2.143385  0
O  O179  1  0.95595767  0.94557756  0.65119981  1  -1.196336  0  -0.787873  -1.145461  0  2.131353  0
O  O180  1  0.06807661  0.49436683  0.21038775  1  -1.10227  0  -0.3241  -0.458939  0  2.22606  0
O  O181  1  0.23707387  0.40234138  0.11549611  1  -1.112321  0  -0.246339  -0.412619  0  2.151378  0
O  O182  1  0.26814916  0.51077747  0.80064917  1  -1.08057  0  -0.330251  -0.461526  0  2.218374  0
O  O183  1  0.25310157  0.58430125  0.91084907  1  -1.10216  0  -0.250693  -0.412944  0  2.144104  0
