# generated using pymatgen
data_CuH9C12N3O4
_symmetry_space_group_name_H-M   'P 1'
_cell_length_a   13.21085036
_cell_length_b   13.56612874
_cell_length_c   20.16243301
_cell_angle_alpha   90.00008272
_cell_angle_beta   89.99978331
_cell_angle_gamma   89.99986298
_symmetry_Int_Tables_number   1
_chemical_formula_structural   CuH9C12N3O4
_chemical_formula_sum   'Cu8 H72 C96 N24 O32'
_cell_volume   3613.51319410
_cell_formula_units_Z   8
loop_
 _symmetry_equiv_pos_site_id
 _symmetry_equiv_pos_as_xyz
  1  'x, y, z'
loop_
 _atom_site_type_symbol
 _atom_site_label
 _atom_site_symmetry_multiplicity
 _atom_site_fract_x
 _atom_site_fract_y
 _atom_site_fract_z
 _atom_site_occupancy
 _atom_site_pbe_bader_charge
 _atom_site_pbe_bader_spin_density
 _atom_site_pbe_cm5_charge
 _atom_site_pbe_ddec_charge
 _atom_site_pbe_ddec_spin_density
 _atom_site_pbe_ddec_sum_bond_order
 _atom_site_pbe_magmom
Cu  Cu0  1  0.16530892  0.43915636  0.30175675  1  1.095688  0.59133  0.697719  0.797499  0.743246  2.356598  0.592
Cu  Cu1  1  0.33469446  0.06083433  0.80175355  1  1.095522  0.591326  0.697725  0.79737  0.743236  2.356742  0.592
Cu  Cu2  1  0.33469142  0.93917248  0.69825109  1  1.093867  0.591271  0.697733  0.797599  0.743232  2.356544  0.592
Cu  Cu3  1  0.16530832  0.56082766  0.19825293  1  1.093987  0.591282  0.697738  0.797685  0.743247  2.356368  0.592
Cu  Cu4  1  0.83469452  0.56083773  0.69825178  1  1.095577  0.591325  0.697752  0.797566  0.743241  2.356429  0.592
Cu  Cu5  1  0.66530974  0.93917229  0.19824952  1  1.093917  0.591272  0.697751  0.797541  0.743234  2.356554  0.592
Cu  Cu6  1  0.66531126  0.06084151  0.30174801  1  1.095498  0.591324  0.69769  0.797445  0.743242  2.356677  0.592
Cu  Cu7  1  0.83469133  0.43917085  0.80175213  1  1.093821  0.591269  0.697698  0.797439  0.74323  2.356632  0.592
H  H8  1  0.42205975  0.74892382  0.25768898  1  0.154569  0.000618  0.121641  0.14034  0.000484  0.977075  0.0
H  H9  1  0.07795706  0.75107866  0.75770148  1  0.154803  0.000618  0.12166  0.140371  0.000484  0.977022  0.0
H  H10  1  0.07794106  0.24892433  0.74230875  1  0.15446  0.000618  0.121641  0.140303  0.000484  0.977032  0.0
H  H11  1  0.42203844  0.25107139  0.24230072  1  0.154489  0.000618  0.121627  0.140322  0.000484  0.977176  0.0
H  H12  1  0.57794293  0.25107395  0.74230417  1  0.154585  0.000618  0.121653  0.140366  0.000484  0.977024  0.0
H  H13  1  0.92204638  0.24892501  0.24229811  1  0.154789  0.000618  0.121646  0.140386  0.000484  0.977171  0.0
H  H14  1  0.92205708  0.75106828  0.25769233  1  0.154713  0.000618  0.121631  0.140347  0.000484  0.977017  0.0
H  H15  1  0.57795440  0.74893228  0.75769938  1  0.154524  0.000618  0.121633  0.14033  0.000484  0.977041  0.0
H  H16  1  0.49706254  0.88945997  0.44225646  1  0.087846  0.000459  0.111322  0.123385  0.00036  1.007124  0.0
H  H17  1  0.00293881  0.61054585  0.94226951  1  0.087451  0.000459  0.11134  0.123372  0.000361  1.007093  0.0
H  H18  1  0.00294095  0.38946100  0.55774091  1  0.0878  0.000459  0.111321  0.123358  0.00036  1.007088  0.0
H  H19  1  0.49705627  0.11054317  0.05773454  1  0.087514  0.000459  0.11135  0.123386  0.000361  1.007183  0.0
H  H20  1  0.50294090  0.11053928  0.55773669  1  0.087856  0.000459  0.111338  0.123342  0.000361  1.007153  0.0
H  H21  1  0.99706463  0.38946003  0.05773157  1  0.087386  0.000459  0.111327  0.123253  0.000361  1.007111  0.0
H  H22  1  0.99705492  0.61053898  0.44226216  1  0.087791  0.000459  0.111359  0.123331  0.000361  1.007122  0.0
H  H23  1  0.50293657  0.88945608  0.94227201  1  0.087396  0.00046  0.111335  0.123319  0.000361  1.00722  0.0
H  H24  1  0.29813471  0.63656713  0.44052069  1  0.094744  0.000154  0.112548  0.123851  7.7e-05  1.006712  0.0
H  H25  1  0.20187196  0.86343501  0.94053746  1  0.094726  0.000153  0.112581  0.12394  7.7e-05  1.006838  0.0
H  H26  1  0.20186864  0.13656474  0.55947744  1  0.094666  0.000154  0.112579  0.12391  7.7e-05  1.006726  0.0
H  H27  1  0.29812554  0.36343427  0.05946684  1  0.094708  0.000153  0.112607  0.123991  7.7e-05  1.006838  0.0
H  H28  1  0.70186873  0.36343138  0.55947197  1  0.094666  0.000154  0.112567  0.123926  7.7e-05  1.006722  0.0
H  H29  1  0.79813829  0.13656645  0.05946165  1  0.094884  0.000154  0.11256  0.123892  7.7e-05  1.00683  0.0
H  H30  1  0.79812268  0.86342861  0.44052315  1  0.094764  0.000154  0.112566  0.123904  7.7e-05  1.00677  0.0
H  H31  1  0.70186351  0.63656277  0.94053375  1  0.094904  0.000153  0.112573  0.123915  7.7e-05  1.006755  0.0
H  H32  1  0.25111200  0.97673878  0.55637796  1  0.115559  -6e-05  0.104457  0.160929  -3e-05  1.028098  0.0
H  H33  1  0.24888023  0.52326105  0.05637906  1  0.115301  -5.9e-05  0.104517  0.161021  -3e-05  1.02804  0.0
H  H34  1  0.24888522  0.47673825  0.44362297  1  0.115315  -6e-05  0.104491  0.160963  -3e-05  1.028063  0.0
H  H35  1  0.25111961  0.02326159  0.94362243  1  0.115331  -6e-05  0.104498  0.160992  -3e-05  1.02805  0.0
H  H36  1  0.74888235  0.02326120  0.44362065  1  0.115235  -6e-05  0.104465  0.160943  -3e-05  1.028095  0.0
H  H37  1  0.75111564  0.47673303  0.94362104  1  0.115621  -6e-05  0.104468  0.160943  -3e-05  1.028102  0.0
H  H38  1  0.75111367  0.52325805  0.55637910  1  0.115482  -6e-05  0.104444  0.160901  -3e-05  1.028127  0.0
H  H39  1  0.74888307  0.97673471  0.05637866  1  0.115614  -6e-05  0.104475  0.16094  -3e-05  1.028125  0.0
H  H40  1  0.25997850  0.92114213  0.47547449  1  0.058979  -4.6e-05  0.100036  0.142537  -3.1e-05  0.992304  0.0
H  H41  1  0.24001131  0.57886082  0.97547750  1  0.05911  -4.6e-05  0.099938  0.142492  -3.1e-05  0.992293  0.0
H  H42  1  0.24001734  0.42114106  0.52452639  1  0.058987  -4.6e-05  0.100024  0.142514  -3.1e-05  0.992345  0.0
H  H43  1  0.25999067  0.07886378  0.02452305  1  0.05909  -4.6e-05  0.099943  0.142492  -3.1e-05  0.992325  0.0
H  H44  1  0.74001661  0.07885859  0.52452263  1  0.059098  -4.6e-05  0.10001  0.142529  -3.1e-05  0.992176  0.0
H  H45  1  0.75998608  0.42113180  0.02452160  1  0.059099  -4.6e-05  0.099937  0.142447  -3.1e-05  0.992347  0.0
H  H46  1  0.75998155  0.57885893  0.47547718  1  0.059075  -4.6e-05  0.1  0.142493  -3.1e-05  0.992171  0.0
H  H47  1  0.74001504  0.92113620  0.97547705  1  0.059065  -4.6e-05  0.09997  0.142486  -3.1e-05  0.992241  0.0
H  H48  1  0.36123676  0.99312868  0.50691108  1  0.062001  -2.2e-05  0.101627  0.148637  -2e-05  0.982842  0.0
H  H49  1  0.13875425  0.50687252  0.00691392  1  0.062025  -2.2e-05  0.101626  0.148613  -2e-05  0.982826  0.0
H  H50  1  0.13876043  0.49312778  0.49308937  1  0.061989  -2.2e-05  0.101624  0.148642  -2e-05  0.982833  0.0
H  H51  1  0.36124714  0.00687585  0.99308606  1  0.06206  -2.2e-05  0.101635  0.148633  -2e-05  0.982772  0.0
H  H52  1  0.63875835  0.00687130  0.49308653  1  0.06196  -2.2e-05  0.101647  0.148649  -2e-05  0.982833  0.0
H  H53  1  0.86124010  0.49312599  0.99308716  1  0.062026  -2.2e-05  0.101612  0.14858  -2e-05  0.982863  0.0
H  H54  1  0.86123847  0.50686999  0.50691172  1  0.061976  -2.2e-05  0.101623  0.148602  -2e-05  0.982887  0.0
H  H55  1  0.63875781  0.99312635  0.00691305  1  0.06198  -2.2e-05  0.101655  0.148635  -2e-05  0.982812  0.0
H  H56  1  0.50943865  0.58705919  0.59664888  1  0.102814  5e-06  0.114269  0.17224  1e-05  0.960875  0.0
H  H57  1  0.99055484  0.91295282  0.09664976  1  0.10265  5e-06  0.114196  0.172179  1e-05  0.960857  0.0
H  H58  1  0.99056403  0.08705284  0.40335093  1  0.102863  5e-06  0.114256  0.172243  1e-05  0.960868  0.0
H  H59  1  0.50944479  0.41295089  0.90334938  1  0.102638  5e-06  0.114205  0.172181  1e-05  0.96087  0.0
H  H60  1  0.49055873  0.41295038  0.40334873  1  0.102674  5e-06  0.114211  0.172181  1e-05  0.960841  0.0
H  H61  1  0.00944482  0.08704642  0.90334736  1  0.102657  5e-06  0.114195  0.17215  1e-05  0.960924  0.0
H  H62  1  0.00943714  0.91294715  0.59664966  1  0.102868  5e-06  0.114236  0.172186  1e-05  0.960827  0.0
H  H63  1  0.49055638  0.58704393  0.09664675  1  0.102398  5e-06  0.114226  0.172211  1e-05  0.960856  0.0
H  H64  1  0.51289663  0.61402109  0.50979429  1  0.059624  -6e-06  0.09848  0.137612  -8e-06  1.001276  0.0
H  H65  1  0.98710795  0.88597230  0.00979813  1  0.059697  -6e-06  0.098477  0.13764  -8e-06  1.001484  0.0
H  H66  1  0.98710598  0.11401862  0.49020604  1  0.059666  -6e-06  0.098466  0.137591  -8e-06  1.001279  0.0
H  H67  1  0.51289476  0.38597940  0.99020198  1  0.059679  -6e-06  0.098435  0.137609  -8e-06  1.001434  0.0
H  H68  1  0.48710832  0.38597889  0.49020183  1  0.059709  -6e-06  0.098443  0.137597  -8e-06  1.001494  0.0
H  H69  1  0.01289321  0.11402252  0.99019949  1  0.059743  -6e-06  0.098444  0.137623  -8e-06  1.001442  0.0
H  H70  1  0.01289291  0.88597915  0.50979554  1  0.059696  -6e-06  0.098479  0.137624  -8e-06  1.001336  0.0
H  H71  1  0.48710867  0.61402575  0.00979514  1  0.059643  -6e-06  0.098469  0.137605  -8e-06  1.001421  0.0
H  H72  1  0.40745298  0.55141238  0.54417764  1  0.055738  -1e-06  0.099385  0.140049  -3e-06  0.995287  0.0
H  H73  1  0.09254462  0.94859185  0.04417855  1  0.055856  -1e-06  0.099376  0.140036  -3e-06  0.995365  0.0
H  H74  1  0.09255057  0.05141077  0.45582188  1  0.055994  -1e-06  0.099427  0.140065  -3e-06  0.995394  0.0
H  H75  1  0.40745646  0.44859573  0.95582087  1  0.055836  -1e-06  0.099371  0.140012  -3e-06  0.995367  0.0
H  H76  1  0.59255046  0.44858760  0.45581898  1  0.055964  -1e-06  0.099361  0.140039  -3e-06  0.995303  0.0
H  H77  1  0.90745276  0.05141035  0.95581807  1  0.055873  -1e-06  0.09938  0.140057  -3e-06  0.995302  0.0
H  H78  1  0.90744908  0.94858700  0.54417920  1  0.05594  -1e-06  0.099381  0.140051  -3e-06  0.995348  0.0
H  H79  1  0.59254925  0.55141163  0.04417674  1  0.056011  -1e-06  0.099365  0.14001  -3e-06  0.99538  0.0
C  C80  1  0.29449720  0.60958730  0.30784522  1  1.586596  -0.001513  0.215114  0.576248  -0.001751  4.169878  -0.004
C  C81  1  0.20551023  0.89041382  0.80785407  1  1.586014  -0.001512  0.215052  0.576172  -0.001751  4.170203  -0.004
C  C82  1  0.20550545  0.10959551  0.69215387  1  1.586489  -0.001512  0.215041  0.575873  -0.001751  4.16998  -0.004
C  C83  1  0.29448494  0.39040232  0.19214926  1  1.586649  -0.00151  0.215049  0.575915  -0.001751  4.169981  -0.004
C  C84  1  0.70550699  0.39040679  0.69215239  1  1.586374  -0.001512  0.215084  0.575904  -0.001752  4.17006  -0.004
C  C85  1  0.79449548  0.10959133  0.19214602  1  1.586961  -0.001514  0.215063  0.57607  -0.001751  4.170152  -0.004
C  C86  1  0.79449420  0.89040669  0.30784325  1  1.586516  -0.001512  0.215091  0.575931  -0.001752  4.169892  -0.004
C  C87  1  0.70550715  0.60959325  0.80785332  1  1.586923  -0.001513  0.215028  0.575924  -0.00175  4.170231  -0.004
C  C88  1  0.35512066  0.68422831  0.34546614  1  -0.06051  0.016953  -0.006238  0.002066  0.011666  3.963714  0.013
C  C89  1  0.14489261  0.81576920  0.84547606  1  -0.06045  0.016955  -0.006147  0.002035  0.011666  3.963805  0.013
C  C90  1  0.14488485  0.18423216  0.65453302  1  -0.060857  0.016945  -0.006261  0.002163  0.01166  3.963708  0.013
C  C91  1  0.35510273  0.31576411  0.15452670  1  -0.060789  0.016948  -0.006239  0.002152  0.011662  3.963664  0.013
C  C92  1  0.64488884  0.31576725  0.65452850  1  -0.060773  0.016951  -0.006226  0.002126  0.011663  3.963555  0.013
C  C93  1  0.85511537  0.18423152  0.15452106  1  -0.060486  0.016956  -0.006174  0.002033  0.011666  3.964056  0.013
C  C94  1  0.85511026  0.81576414  0.34546658  1  -0.060846  0.016949  -0.006274  0.002134  0.011663  3.963531  0.013
C  C95  1  0.64488860  0.68423587  0.84547339  1  -0.060669  0.016951  -0.006149  0.002278  0.011663  3.963626  0.013
C  C96  1  0.41499343  0.75245843  0.31144590  1  -0.017643  0.002349  -0.059649  -0.087373  0.001407  3.8656  0.002
C  C97  1  0.08502307  0.74753975  0.81146036  1  -0.01752  0.002351  -0.059768  -0.087475  0.001408  3.865704  0.002
C  C98  1  0.08501040  0.25246249  0.68854936  1  -0.017152  0.002349  -0.059741  -0.087454  0.001408  3.865771  0.002
C  C99  1  0.41497547  0.24753754  0.18854332  1  -0.017028  0.002351  -0.059705  -0.087354  0.001409  3.865792  0.002
C  C100  1  0.58501152  0.24753419  0.68854626  1  -0.01705  0.002349  -0.05976  -0.087446  0.001408  3.865676  0.002
C  C101  1  0.91498264  0.25245950  0.18854221  1  -0.017499  0.002351  -0.059732  -0.087447  0.001409  3.865698  0.002
C  C102  1  0.91498623  0.74753381  0.31145123  1  -0.017342  0.002348  -0.05968  -0.087382  0.001407  3.865647  0.002
C  C103  1  0.58501964  0.75247129  0.81146124  1  -0.017006  0.002349  -0.059773  -0.087488  0.001407  3.865851  0.002
C  C104  1  0.46644110  0.82558243  0.34664251  1  0.002944  0.016745  -0.007934  -0.00054  0.011638  3.961886  0.013
C  C105  1  0.03356914  0.67441655  0.84665456  1  0.002995  0.016745  -0.00805  -0.000524  0.011638  3.961937  0.013
C  C106  1  0.03356331  0.32558359  0.65335579  1  0.003125  0.016744  -0.008052  -0.000633  0.011638  3.962036  0.013
C  C107  1  0.46643185  0.17441636  0.15334856  1  0.003499  0.01674  -0.008106  -0.000789  0.011635  3.962385  0.013
C  C108  1  0.53356688  0.17441608  0.65335163  1  0.003112  0.016749  -0.008099  -0.000675  0.011641  3.962167  0.013
C  C109  1  0.96643733  0.32558564  0.15334653  1  0.003207  0.016744  -0.008048  -0.000688  0.011637  3.962092  0.013
C  C110  1  0.96643408  0.67441418  0.34664728  1  0.003114  0.016743  -0.008124  -0.000758  0.011637  3.962156  0.013
C  C111  1  0.53356780  0.82558805  0.84665352  1  0.002918  0.016743  -0.008017  -0.00049  0.011636  3.962168  0.013
C  C112  1  0.45674659  0.83175524  0.41558014  1  -0.001625  0.001564  -0.076475  -0.173541  0.001126  3.935551  0.001
C  C113  1  0.04325417  0.66824536  0.91558967  1  -0.000717  0.001565  -0.076415  -0.173589  0.001126  3.935349  0.001
C  C114  1  0.04325553  0.33175697  0.58441618  1  -0.001543  0.001566  -0.076392  -0.173481  0.001127  3.935414  0.001
C  C115  1  0.45674305  0.16824357  0.08441245  1  -0.00125  0.001565  -0.076397  -0.173532  0.001126  3.935503  0.001
C  C116  1  0.54325534  0.16823958  0.58441301  1  -0.001853  0.001566  -0.076419  -0.173532  0.001127  3.935415  0.001
C  C117  1  0.95675003  0.33175610  0.08441290  1  -0.001248  0.001562  -0.076432  -0.173351  0.001124  3.93541  0.001
C  C118  1  0.95673958  0.66824154  0.41558490  1  -0.001658  0.001565  -0.076418  -0.173364  0.001126  3.935422  0.001
C  C119  1  0.54325282  0.83175936  0.91559211  1  -0.000767  0.001565  -0.076453  -0.173672  0.001127  3.935477  0.001
C  C120  1  0.39636287  0.76369319  0.44909548  1  0.309082  0.001494  0.089334  0.171618  0.000879  4.064468  0.001
C  C121  1  0.10363844  0.73631633  0.94910493  1  0.308263  0.001494  0.089276  0.171754  0.000878  4.064197  0.001
C  C122  1  0.10363865  0.26369176  0.55090375  1  0.308842  0.001493  0.089339  0.17168  0.000878  4.06438  0.001
C  C123  1  0.39635785  0.23631313  0.05089676  1  0.308347  0.001493  0.089322  0.171832  0.000878  4.064343  0.001
C  C124  1  0.60363981  0.23630900  0.55089915  1  0.309152  0.001493  0.089367  0.171821  0.000878  4.064417  0.001
C  C125  1  0.89636954  0.26369102  0.05089417  1  0.308401  0.001494  0.089277  0.171643  0.000879  4.064163  0.001
C  C126  1  0.89635646  0.73630528  0.44909882  1  0.309043  0.001493  0.089349  0.171659  0.000878  4.064529  0.001
C  C127  1  0.60363726  0.76368611  0.94910532  1  0.308234  0.001493  0.089363  0.17188  0.000878  4.064543  0.001
C  C128  1  0.34622246  0.68909566  0.41452478  1  0.02754  0.000774  -0.076858  -0.176591  0.000221  3.929599  0.001
C  C129  1  0.15378360  0.81090420  0.91454063  1  0.027684  0.000775  -0.076844  -0.176621  0.000222  3.929731  0.001
C  C130  1  0.15378152  0.18909713  0.58547339  1  0.027762  0.000775  -0.076773  -0.176542  0.000222  3.929484  0.001
C  C131  1  0.34621025  0.31090194  0.08546312  1  0.027841  0.000775  -0.076811  -0.176696  0.000222  3.9297  0.001
C  C132  1  0.65378325  0.31089990  0.58546886  1  0.027527  0.000775  -0.076803  -0.176622  0.000222  3.929684  0.001
C  C133  1  0.84622363  0.18909652  0.08546046  1  0.027616  0.000773  -0.07682  -0.176545  0.00022  3.929678  0.001
C  C134  1  0.84620981  0.81089990  0.41452720  1  0.027594  0.000774  -0.076782  -0.176578  0.000221  3.929463  0.001
C  C135  1  0.65377805  0.68909878  0.91453896  1  0.027672  0.000775  -0.076826  -0.176656  0.000222  3.929662  0.001
C  C136  1  0.53428383  0.89634827  0.31080651  1  1.559658  -0.001308  0.214045  0.572399  -0.001672  4.173886  -0.004
C  C137  1  0.96571977  0.60365388  0.81081891  1  1.559399  -0.001307  0.213972  0.572185  -0.001674  4.174098  -0.004
C  C138  1  0.96571507  0.39635069  0.68918815  1  1.559347  -0.001306  0.213967  0.572254  -0.001672  4.17418  -0.004
C  C139  1  0.53428136  0.10365626  0.18918241  1  1.559044  -0.001308  0.213964  0.572306  -0.001673  4.173879  -0.004
C  C140  1  0.46571733  0.10364656  0.68918713  1  1.559751  -0.001306  0.213945  0.572166  -0.001673  4.174343  -0.004
C  C141  1  0.03428291  0.39634094  0.18918912  1  1.559747  -0.001308  0.21401  0.572264  -0.001673  4.1742  -0.004
C  C142  1  0.03428382  0.60364855  0.31081344  1  1.559598  -0.001305  0.213955  0.572228  -0.001672  4.174144  -0.004
C  C143  1  0.46571526  0.89635330  0.81082314  1  1.559141  -0.001303  0.214051  0.572344  -0.001672  4.174143  -0.004
C  C144  1  0.34458230  0.85124524  0.55277405  1  0.980983  -0.000656  0.223928  0.332857  -0.000764  3.963108  0.0
C  C145  1  0.15540844  0.64875680  0.05278244  1  0.981346  -0.000656  0.223991  0.333099  -0.000765  3.962937  0.0
C  C146  1  0.15541598  0.35124272  0.44722577  1  0.981068  -0.000656  0.223914  0.333024  -0.000765  3.962953  0.0
C  C147  1  0.34458958  0.14876007  0.94721718  1  0.981343  -0.000656  0.223913  0.332916  -0.000765  3.963137  0.0
C  C148  1  0.65541356  0.14875843  0.44722108  1  0.980829  -0.000656  0.223908  0.332992  -0.000765  3.963009  0.0
C  C149  1  0.84459273  0.35124245  0.94721765  1  0.981869  -0.000656  0.223923  0.33294  -0.000765  3.962954  0.0
C  C150  1  0.84458216  0.64875431  0.55277879  1  0.981044  -0.000656  0.223891  0.332935  -0.000765  3.963022  0.0
C  C151  1  0.65541007  0.85124065  0.05278093  1  0.98127  -0.000656  0.223933  0.332969  -0.000765  3.962981  0.0
C  C152  1  0.41498593  0.70572171  0.56768033  1  0.965145  7.9e-05  0.217471  0.312173  6.7e-05  3.998956  0.0
C  C153  1  0.08501381  0.79428110  0.06768953  1  0.965243  7.8e-05  0.217723  0.312359  6.7e-05  3.998896  0.0
C  C154  1  0.08501574  0.20571933  0.43231935  1  0.965121  7.9e-05  0.217554  0.31227  6.7e-05  3.998975  0.0
C  C155  1  0.41498689  0.29428417  0.93231321  1  0.965289  7.9e-05  0.217643  0.312278  6.7e-05  3.998869  0.0
C  C156  1  0.58501221  0.29427827  0.43231481  1  0.965238  7.9e-05  0.217554  0.312306  6.7e-05  3.998914  0.0
C  C157  1  0.91499039  0.20572036  0.93230957  1  0.965172  7.9e-05  0.21783  0.312528  6.7e-05  3.998625  0.0
C  C158  1  0.91498467  0.79427770  0.56768372  1  0.965259  7.9e-05  0.217512  0.312216  6.7e-05  3.999186  0.0
C  C159  1  0.58501201  0.70572024  0.06768738  1  0.965365  7.8e-05  0.217618  0.312285  6.7e-05  3.998885  0.0
C  C160  1  0.30159036  0.94045715  0.52080925  1  -0.064002  7.1e-05  -0.229265  -0.465211  -4e-05  3.958353  0.0
C  C161  1  0.19840057  0.55954482  0.02081150  1  -0.064285  7.1e-05  -0.229297  -0.465375  -4e-05  3.958157  0.0
C  C162  1  0.19840620  0.44045460  0.47919164  1  -0.063763  7.1e-05  -0.229312  -0.465298  -4e-05  3.958224  0.0
C  C163  1  0.30159842  0.05954679  0.97918853  1  -0.064271  7.1e-05  -0.229271  -0.465292  -4e-05  3.958052  0.0
C  C164  1  0.69840627  0.05954357  0.47918737  1  -0.063776  7.1e-05  -0.229348  -0.46537  -4e-05  3.958117  0.0
C  C165  1  0.80159530  0.44045221  0.97918760  1  -0.064604  7.1e-05  -0.229188  -0.465111  -4e-05  3.958155  0.0
C  C166  1  0.80159269  0.55954244  0.52081192  1  -0.063985  7.1e-05  -0.229244  -0.465162  -4e-05  3.958303  0.0
C  C167  1  0.69840577  0.94045467  0.02081157  1  -0.064509  7.1e-05  -0.229304  -0.46525  -4e-05  3.958047  0.0
C  C168  1  0.46393676  0.60931315  0.55370373  1  -0.068354  -2.2e-05  -0.222984  -0.450249  -2.7e-05  3.955812  0.0
C  C169  1  0.03606230  0.89069111  0.05370621  1  -0.068511  -2.2e-05  -0.222964  -0.450232  -2.7e-05  3.956  0.0
C  C170  1  0.03606590  0.10930944  0.44629585  1  -0.068754  -2.2e-05  -0.223034  -0.45027  -2.7e-05  3.955836  0.0
C  C171  1  0.46393967  0.39069262  0.94629414  1  -0.068451  -2.2e-05  -0.222949  -0.450191  -2.7e-05  3.95588  0.0
C  C172  1  0.53606138  0.39068978  0.44629438  1  -0.068625  -2.2e-05  -0.222906  -0.450204  -2.7e-05  3.955843  0.0
C  C173  1  0.96393811  0.10930740  0.94629091  1  -0.068586  -2.2e-05  -0.222932  -0.450215  -2.7e-05  3.955863  0.0
C  C174  1  0.96393375  0.89068833  0.55370424  1  -0.068709  -2.2e-05  -0.222973  -0.450229  -2.7e-05  3.955855  0.0
C  C175  1  0.53606225  0.60930884  0.05370446  1  -0.068364  -2.2e-05  -0.222973  -0.450208  -2.7e-05  3.95586  0.0
N  N176  1  0.34983086  0.83315245  0.61712143  1  -0.77151  -0.000105  -0.24512  -0.250115  0.000241  3.408947  0.001
N  N177  1  0.15016178  0.66684678  0.11712638  1  -0.77205  -0.000107  -0.245271  -0.250314  0.00024  3.409249  0.001
N  N178  1  0.15017126  0.33314759  0.38287986  1  -0.771871  -0.000105  -0.245196  -0.25027  0.000242  3.409433  0.001
N  N179  1  0.34983468  0.16685359  0.88287475  1  -0.772494  -0.000104  -0.245149  -0.250106  0.000243  3.40935  0.001
N  N180  1  0.65016728  0.16684975  0.38287470  1  -0.771971  -0.000109  -0.245154  -0.250177  0.000239  3.409177  0.001
N  N181  1  0.84983333  0.33315099  0.88287322  1  -0.772019  -0.000106  -0.245235  -0.25024  0.000241  3.409252  0.001
N  N182  1  0.84983369  0.66684723  0.61712371  1  -0.772063  -0.000106  -0.245151  -0.250187  0.000241  3.40911  0.001
N  N183  1  0.65016649  0.83315082  0.11712584  1  -0.77194  -0.000107  -0.245185  -0.250175  0.00024  3.409158  0.001
N  N184  1  0.39446697  0.74224806  0.62671442  1  -0.672689  -0.000111  -0.235946  -0.25004  -0.000136  3.137516  0.0
N  N185  1  0.10553015  0.75775340  0.12672354  1  -0.672673  -0.000111  -0.235876  -0.249939  -0.000136  3.137718  0.0
N  N186  1  0.10553687  0.24224330  0.37328529  1  -0.672386  -0.000111  -0.235856  -0.249922  -0.000136  3.137781  0.0
N  N187  1  0.39446836  0.25775786  0.87327917  1  -0.672288  -0.000111  -0.235888  -0.249948  -0.000136  3.137744  0.0
N  N188  1  0.60553192  0.25775339  0.37328022  1  -0.672556  -0.000111  -0.2359  -0.249978  -0.000136  3.137685  0.0
N  N189  1  0.89446723  0.24224511  0.87327656  1  -0.672571  -0.000111  -0.235946  -0.250055  -0.000136  3.137669  0.0
N  N190  1  0.89446959  0.75775300  0.62671678  1  -0.672476  -0.000111  -0.235884  -0.249918  -0.000136  3.137722  0.0
N  N191  1  0.60553129  0.74224580  0.12672192  1  -0.672695  -0.000111  -0.23594  -0.250019  -0.000136  3.137668  0.0
N  N192  1  0.38491298  0.77204128  0.51920857  1  -1.242541  0.000334  -0.225912  -0.146207  0.000183  3.706767  0.0
N  N193  1  0.11508250  0.72796216  0.01921863  1  -1.242372  0.000334  -0.225963  -0.146442  0.000183  3.706665  0.0
N  N194  1  0.11508550  0.27203967  0.48078869  1  -1.242564  0.000334  -0.225944  -0.14637  0.000182  3.706876  0.0
N  N195  1  0.38491609  0.22796246  0.98078405  1  -1.242344  0.000334  -0.225948  -0.146407  0.000183  3.706854  0.0
N  N196  1  0.61508440  0.22796018  0.48078458  1  -1.242272  0.000334  -0.225864  -0.146351  0.000182  3.707108  0.0
N  N197  1  0.88492397  0.27204003  0.98078147  1  -1.242874  0.000334  -0.225974  -0.146382  0.000182  3.706716  0.0
N  N198  1  0.88490810  0.72796105  0.51921140  1  -1.242464  0.000334  -0.225912  -0.146359  0.000182  3.707013  0.0
N  N199  1  0.61508205  0.77203900  0.01921704  1  -1.242416  0.000334  -0.225919  -0.146387  0.000182  3.707076  0.0
O  O200  1  0.27677164  0.52771875  0.33668746  1  -1.118398  0.088958  -0.313248  -0.531743  0.055834  2.354512  0.081
O  O201  1  0.22322881  0.97228317  0.83669238  1  -1.117931  0.088955  -0.313257  -0.531666  0.055833  2.354647  0.081
O  O202  1  0.22323122  0.02771875  0.66331304  1  -1.11833  0.088983  -0.313268  -0.531623  0.055849  2.35433  0.081
O  O203  1  0.27676161  0.47227459  0.16331252  1  -1.118561  0.088963  -0.313316  -0.531633  0.055837  2.354443  0.081
O  O204  1  0.72323256  0.47228050  0.66331313  1  -1.118291  0.088971  -0.313309  -0.531666  0.055842  2.354376  0.081
O  O205  1  0.77677008  0.02772345  0.16330921  1  -1.118699  0.088949  -0.313206  -0.531603  0.055829  2.354552  0.081
O  O206  1  0.77676768  0.97228050  0.33668358  1  -1.118248  0.088965  -0.313279  -0.531629  0.055839  2.354462  0.081
O  O207  1  0.72323047  0.52772392  0.83669005  1  -1.118726  0.08894  -0.313228  -0.531604  0.055824  2.354588  0.081
O  O208  1  0.26377183  0.63714930  0.25103169  1  -1.093909  0.09457  -0.303939  -0.4989  0.059493  2.34946  0.086
O  O209  1  0.23623214  0.86285022  0.75103846  1  -1.093763  0.094592  -0.303895  -0.498821  0.059508  2.34948  0.086
O  O210  1  0.23623454  0.13715461  0.74896990  1  -1.093863  0.094572  -0.303894  -0.498675  0.059495  2.349332  0.086
O  O211  1  0.26376157  0.36283744  0.24896782  1  -1.093843  0.094581  -0.303849  -0.498704  0.059502  2.349191  0.086
O  O212  1  0.73623236  0.36284552  0.74896791  1  -1.093757  0.09458  -0.3039  -0.498669  0.0595  2.349347  0.086
O  O213  1  0.76377432  0.13716009  0.24896213  1  -1.093886  0.094588  -0.304017  -0.498865  0.059504  2.349305  0.086
O  O214  1  0.76377117  0.86284832  0.25102672  1  -1.093993  0.094576  -0.303899  -0.498697  0.059496  2.349245  0.086
O  O215  1  0.73623202  0.63715886  0.75103624  1  -1.093919  0.094599  -0.30391  -0.498784  0.059511  2.349345  0.086
O  O216  1  0.57004592  0.96749678  0.34511982  1  -1.107309  0.100435  -0.316932  -0.521347  0.063201  2.352722  0.091
O  O217  1  0.92995370  0.53250765  0.84513571  1  -1.107322  0.100452  -0.316915  -0.521332  0.06321  2.352819  0.091
O  O218  1  0.92995509  0.46749627  0.65487292  1  -1.107471  0.100426  -0.316887  -0.521282  0.063195  2.352925  0.091
O  O219  1  0.57004684  0.03250766  0.15486802  1  -1.107236  0.100436  -0.316878  -0.521305  0.0632  2.352829  0.091
O  O220  1  0.42995676  0.03250320  0.65487035  1  -1.107489  0.100439  -0.31689  -0.521256  0.063203  2.352855  0.091
O  O221  1  0.07005125  0.46748643  0.15487679  1  -1.107574  0.100442  -0.316885  -0.521284  0.063204  2.352872  0.091
O  O222  1  0.07005062  0.53250224  0.34513263  1  -1.107458  0.100445  -0.316927  -0.521345  0.063206  2.352706  0.091
O  O223  1  0.42995054  0.96749969  0.84514397  1  -1.107236  0.100465  -0.317009  -0.521381  0.063218  2.352712  0.091
O  O224  1  0.55152289  0.87813075  0.25017541  1  -1.100041  0.086984  -0.300864  -0.502667  0.054355  2.36335  0.079
O  O225  1  0.94847576  0.62187201  0.75018935  1  -1.099659  0.086961  -0.300759  -0.502443  0.054342  2.363174  0.079
O  O226  1  0.94847455  0.37813409  0.74981874  1  -1.099702  0.08698  -0.300756  -0.50251  0.054353  2.363355  0.079
O  O227  1  0.55152911  0.12187742  0.24981496  1  -1.099488  0.086986  -0.300779  -0.502519  0.054356  2.362838  0.079
O  O228  1  0.44847979  0.12186260  0.74981477  1  -1.099962  0.086946  -0.300706  -0.502418  0.054333  2.363598  0.079
O  O229  1  0.05151935  0.37812134  0.24982364  1  -1.099924  0.086981  -0.300811  -0.502548  0.054353  2.363164  0.079
O  O230  1  0.05152284  0.62186000  0.25018433  1  -1.099948  0.086954  -0.300702  -0.502489  0.054337  2.363553  0.079
O  O231  1  0.44846979  0.87814246  0.75019505  1  -1.099553  0.086938  -0.30077  -0.502582  0.054329  2.363455  0.079
