# generated using pymatgen
data_PrH11C9NO9
_symmetry_space_group_name_H-M   'P 1'
_cell_length_a   6.29824838
_cell_length_b   13.70697188
_cell_length_c   15.98610223
_cell_angle_alpha   90.00071594
_cell_angle_beta   96.08385794
_cell_angle_gamma   90.00047981
_symmetry_Int_Tables_number   1
_chemical_formula_structural   PrH11C9NO9
_chemical_formula_sum   'Pr4 H44 C36 N4 O36'
_cell_volume   1372.30599989
_cell_formula_units_Z   4
loop_
 _symmetry_equiv_pos_site_id
 _symmetry_equiv_pos_as_xyz
  1  'x, y, z'
loop_
 _atom_site_type_symbol
 _atom_site_label
 _atom_site_symmetry_multiplicity
 _atom_site_fract_x
 _atom_site_fract_y
 _atom_site_fract_z
 _atom_site_occupancy
 _atom_site_pbe_bader_charge
 _atom_site_pbe_bader_spin_density
 _atom_site_pbe_cm5_charge
 _atom_site_pbe_ddec_charge
 _atom_site_pbe_ddec_spin_density
 _atom_site_pbe_ddec_sum_bond_order
 _atom_site_pbe_magmom
Pr  Pr0  1  0.96489103  0.06401272  0.24849703  1  2.260265  0  1.462704  2.090234  0  2.07705  0
Pr  Pr1  1  0.53510917  0.56401514  0.75150342  1  2.260187  0  1.462641  2.090155  0  2.077168  0
Pr  Pr2  1  0.03511214  0.93598691  0.75150376  1  2.26027  0  1.462741  2.090238  0  2.077059  0
Pr  Pr3  1  0.46488762  0.43598523  0.24849707  1  2.260263  0  1.462634  2.090129  0  2.077235  0
H  H4  1  0.34783935  0.05862244  0.46779872  1  0.129878  0  0.125733  0.107135  0  1.006874  0
H  H5  1  0.15214933  0.55862502  0.53219510  1  0.12998  0  0.125735  0.107121  0  1.006875  0
H  H6  1  0.65215422  0.94137646  0.53220224  1  0.129767  0  0.125695  0.107084  0  1.006975  0
H  H7  1  0.84784576  0.44137535  0.46780781  1  0.13017  0  0.125724  0.107103  0  1.006816  0
H  H8  1  0.45965330  0.20073305  0.69804734  1  0.150323  0  0.127086  0.103603  0  0.973199  0
H  H9  1  0.04033522  0.70073255  0.30194735  1  0.15039  0  0.127047  0.103586  0  0.973113  0
H  H10  1  0.54034663  0.79926732  0.30195455  1  0.150356  0  0.127076  0.103573  0  0.973206  0
H  H11  1  0.95965521  0.29926271  0.69805221  1  0.150228  0  0.127112  0.103656  0  0.973187  0
H  H12  1  0.39671883  0.37296844  0.47186679  1  0.153096  0  0.124538  0.130877  0  0.990575  0
H  H13  1  0.10326850  0.87296785  0.52813090  1  0.153105  0  0.124583  0.130916  0  0.990618  0
H  H14  1  0.60328118  0.62703120  0.52813322  1  0.15312  0  0.124537  0.130864  0  0.9906  0
H  H15  1  0.89672040  0.12703106  0.47186671  1  0.153083  0  0.124561  0.130896  0  0.990636  0
H  H16  1  0.34592995  0.07769857  0.02894457  1  0.090401  0  0.109139  0.129164  0  0.985297  0
H  H17  1  0.15407655  0.57770320  0.97105406  1  0.090412  0  0.109125  0.129133  0  0.985302  0
H  H18  1  0.65409290  0.92230544  0.97104403  1  0.090902  0  0.109135  0.12912  0  0.985357  0
H  H19  1  0.84591525  0.42230665  0.02895120  1  0.090965  0  0.109155  0.129183  0  0.985394  0
H  H20  1  0.56654907  0.10277928  0.97375613  1  0.068605  0  0.11135  0.131021  0  0.949624  0
H  H21  1  0.93346315  0.60278211  0.02624468  1  0.068831  0  0.111369  0.131018  0  0.949625  0
H  H22  1  0.43348478  0.89722254  0.02623737  1  0.068828  0  0.111397  0.13109  0  0.949697  0
H  H23  1  0.06652394  0.39722774  0.97375847  1  0.068892  0  0.111388  0.13111  0  0.949618  0
H  H24  1  0.51935793  0.06818758  0.31269815  1  0.636932  0  0.305919  0.395823  0  0.943827  0
H  H25  1  0.98064707  0.56818786  0.68730444  1  0.636932  0  0.305927  0.395859  0  0.943791  0
H  H26  1  0.48064532  0.93181133  0.68730077  1  0.636907  0  0.305932  0.395856  0  0.943791  0
H  H27  1  0.01935453  0.43180813  0.31269565  1  0.63691  0  0.305902  0.395898  0  0.943751  0
H  H28  1  0.61099463  0.96587791  0.35011564  1  0.633016  0  0.287835  0.334458  0  1.036113  0
H  H29  1  0.88901562  0.46587743  0.64989077  1  0.63323  0  0.287814  0.334423  0  1.036174  0
H  H30  1  0.38900697  0.03412245  0.64988445  1  0.63302  0  0.28784  0.33447  0  1.036097  0
H  H31  1  0.11098432  0.53412002  0.35011112  1  0.633154  0  0.287878  0.334545  0  1.036008  0
H  H32  1  0.22142709  0.90567818  0.19361998  1  0.633942  0  0.326592  0.413777  0  0.881064  0
H  H33  1  0.27858482  0.40568102  0.80638049  1  0.634016  0  0.326612  0.413797  0  0.881034  0
H  H34  1  0.77857618  0.09431708  0.80637831  1  0.634055  0  0.326646  0.413863  0  0.880932  0
H  H35  1  0.72142476  0.59431862  0.19361999  1  0.634042  0  0.326642  0.413867  0  0.88094  0
H  H36  1  0.41380549  0.97617429  0.22512877  1  0.643622  0  0.30185  0.394769  0  0.94085  0
H  H37  1  0.08620149  0.47617519  0.77487345  1  0.643603  0  0.301863  0.394825  0  0.940763  0
H  H38  1  0.58619452  0.02382242  0.77487124  1  0.643636  0  0.301834  0.394769  0  0.940868  0
H  H39  1  0.91380326  0.52382225  0.22512804  1  0.643655  0  0.301816  0.394789  0  0.94082  0
H  H40  1  0.12292288  0.24554420  0.14193895  1  0.630397  0  0.301893  0.408666  0  0.919958  0
H  H41  1  0.37708401  0.74554877  0.85806085  1  0.630357  0  0.301858  0.408693  0  0.91992  0
H  H42  1  0.87708194  0.75445543  0.85806067  1  0.630381  0  0.30189  0.408667  0  0.919957  0
H  H43  1  0.62292234  0.25445086  0.14194073  1  0.630335  0  0.301845  0.408635  0  0.919989  0
H  H44  1  0.28506104  0.15804017  0.14600350  1  0.622467  0  0.313863  0.400964  0  0.914734  0
H  H45  1  0.21494542  0.65804332  0.85399972  1  0.62255  0  0.313804  0.400901  0  0.91481  0
H  H46  1  0.71494062  0.84195727  0.85399534  1  0.622492  0  0.31382  0.400847  0  0.914899  0
H  H47  1  0.78506249  0.34195631  0.14600255  1  0.622503  0  0.313796  0.400879  0  0.914841  0
C  C48  1  0.34199896  0.21757727  0.36349814  1  1.625061  0  0.241566  0.654354  0  4.160706  0
C  C49  1  0.15798840  0.71758869  0.63649479  1  1.62517  0  0.241298  0.654093  0  4.160996  0
C  C50  1  0.65799940  0.78242309  0.63650305  1  1.625182  0  0.241593  0.654393  0  4.160689  0
C  C51  1  0.84201802  0.28241313  0.36350491  1  1.625189  0  0.241439  0.654336  0  4.160808  0
C  C52  1  0.37502460  0.21565273  0.45796047  1  -0.013389  0  -0.011865  -0.104226  0  3.959517  0
C  C53  1  0.12497060  0.71565024  0.54203532  1  -0.013615  0  -0.011766  -0.104054  0  3.959531  0
C  C54  1  0.62497060  0.78434618  0.54203995  1  -0.013367  0  -0.011976  -0.10455  0  3.959797  0
C  C55  1  0.87501661  0.28434721  0.45796471  1  -0.013777  0  -0.011866  -0.104303  0  3.959843  0
C  C56  1  0.37769137  0.12724257  0.50166467  1  0.501216  0  0.065711  0.093641  0  3.867147  0
C  C57  1  0.12229867  0.62724673  0.49833245  1  0.501287  0  0.065784  0.09374  0  3.867511  0
C  C58  1  0.62230535  0.87275633  0.49833769  1  0.501278  0  0.065811  0.09384  0  3.867359  0
C  C59  1  0.87769650  0.37275218  0.50166859  1  0.501177  0  0.065741  0.093767  0  3.86749  0
C  C60  1  0.43648207  0.20630923  0.62959139  1  0.485774  0  0.065269  0.084344  0  3.903852  0
C  C61  1  0.06350328  0.70631055  0.37040571  1  0.485659  0  0.0653  0.084327  0  3.903925  0
C  C62  1  0.56351789  0.79369260  0.37040987  1  0.485563  0  0.065319  0.084418  0  3.903758  0
C  C63  1  0.93649506  0.29368690  0.62959611  1  0.483926  0  0.065199  0.08414  0  3.903895  0
C  C64  1  0.43096672  0.29831467  0.59144242  1  -0.017168  0  -0.011319  -0.076241  0  3.966003  0
C  C65  1  0.06903497  0.79831074  0.40855580  1  -0.017137  0  -0.011366  -0.076374  0  3.966033  0
C  C66  1  0.56902208  0.70168643  0.40855769  1  -0.016847  0  -0.011384  -0.076361  0  3.965967  0
C  C67  1  0.93095703  0.20168598  0.59144446  1  -0.015297  0  -0.011343  -0.076209  0  3.966018  0
C  C68  1  0.39996214  0.30266650  0.50394902  1  -0.038656  0  -0.048116  -0.054113  0  3.893328  0
C  C69  1  0.10003470  0.80266907  0.49605278  1  -0.038649  0  -0.048147  -0.054111  0  3.893085  0
C  C70  1  0.60003627  0.69733168  0.49605092  1  -0.038724  0  -0.04805  -0.053939  0  3.893305  0
C  C71  1  0.89996845  0.19732983  0.50394864  1  -0.038502  0  -0.048073  -0.054017  0  3.893264  0
C  C72  1  0.46303884  0.38821098  0.64493623  1  1.559589  0  0.186812  0.558745  0  4.287501  0
C  C73  1  0.03695834  0.88821489  0.35506335  1  1.559684  0  0.186772  0.558741  0  4.287746  0
C  C74  1  0.53695967  0.61178793  0.35506121  1  1.559622  0  0.186762  0.558682  0  4.287616  0
C  C75  1  0.96304174  0.11178547  0.64493480  1  1.559595  0  0.186815  0.558718  0  4.287688  0
C  C76  1  0.65175470  0.05821835  0.09927308  1  1.5253  0  0.206935  0.644567  0  4.137296  0
C  C77  1  0.84824201  0.55822416  0.90073152  1  1.523944  0  0.20682  0.644471  0  4.137524  0
C  C78  1  0.34825982  0.94178128  0.90072388  1  1.526383  0  0.206967  0.644547  0  4.137291  0
C  C79  1  0.15175146  0.44178204  0.09927194  1  1.523246  0  0.206906  0.644664  0  4.137149  0
C  C80  1  0.50551731  0.05129107  0.01854413  1  -0.043919  0  -0.155963  -0.268616  0  3.920702  0
C  C81  1  0.99449063  0.55129426  0.98145593  1  -0.016917  0  -0.155936  -0.268516  0  3.920596  0
C  C82  1  0.49451008  0.94871513  0.98145094  1  -0.019953  0  -0.156019  -0.268659  0  3.920942  0
C  C83  1  0.00549648  0.44871632  0.01854660  1  -0.042321  0  -0.156043  -0.268814  0  3.920746  0
N  N84  1  0.40915459  0.12302861  0.58606253  1  -1.268542  0  -0.306224  -0.22884  0  3.433579  0
N  N85  1  0.09083684  0.62302921  0.41393774  1  -1.268727  0  -0.306254  -0.228868  0  3.433539  0
N  N86  1  0.59083894  0.87697176  0.41393968  1  -1.268605  0  -0.306291  -0.228913  0  3.433564  0
N  N87  1  0.90915352  0.37696896  0.58606369  1  -1.268648  0  -0.306156  -0.228762  0  3.4335  0
O  O88  1  0.30499429  0.13684793  0.32491627  1  -1.224402  0  -0.37093  -0.670578  0  2.339694  0
O  O89  1  0.19501668  0.63685057  0.67508257  1  -1.224065  0  -0.370877  -0.670647  0  2.339295  0
O  O90  1  0.69500728  0.86315317  0.67508445  1  -1.224426  0  -0.370884  -0.670558  0  2.339789  0
O  O91  1  0.80497856  0.36314906  0.32491659  1  -1.224093  0  -0.370929  -0.670722  0  2.339262  0
O  O92  1  0.35228829  0.29947915  0.32792937  1  -1.209806  0  -0.394078  -0.654033  0  2.310867  0
O  O93  1  0.14769449  0.79947354  0.67206233  1  -1.210166  0  -0.393963  -0.653892  0  2.311491  0
O  O94  1  0.64771811  0.70052049  0.67207095  1  -1.209938  0  -0.3941  -0.654025  0  2.310874  0
O  O95  1  0.85230392  0.20052610  0.32793761  1  -1.210164  0  -0.394006  -0.654026  0  2.311435  0
O  O96  1  0.51908483  0.37708813  0.72357985  1  -1.175455  0  -0.372384  -0.634952  0  2.170683  0
O  O97  1  0.98091426  0.87708970  0.27641759  1  -1.175523  0  -0.372374  -0.634965  0  2.170649  0
O  O98  1  0.48091039  0.62291443  0.27641994  1  -1.175543  0  -0.372358  -0.634913  0  2.170706  0
O  O99  1  0.01906659  0.12290702  0.72358151  1  -1.175494  0  -0.372367  -0.634979  0  2.17068  0
O  O100  1  0.43675905  0.47179953  0.61073242  1  -1.175065  0  -0.365407  -0.618624  0  2.19874  0
O  O101  1  0.06323681  0.97179748  0.38926548  1  -1.175119  0  -0.365384  -0.618579  0  2.199211  0
O  O102  1  0.56322664  0.52820230  0.38926567  1  -1.175051  0  -0.36537  -0.61852  0  2.198813  0
O  O103  1  0.93676959  0.02820070  0.61073484  1  -1.175101  0  -0.365431  -0.618574  0  2.199149  0
O  O104  1  0.79086905  0.99250754  0.11809359  1  -1.171424  0  -0.389368  -0.609311  0  2.137621  0
O  O105  1  0.70911951  0.49251778  0.88190957  1  -1.172485  0  -0.389337  -0.609272  0  2.137715  0
O  O106  1  0.20914240  0.00748845  0.88190009  1  -1.172388  0  -0.38938  -0.60935  0  2.137725  0
O  O107  1  0.29087068  0.50748916  0.11809624  1  -1.171858  0  -0.389347  -0.609299  0  2.137604  0
O  O108  1  0.63504949  0.13146243  0.14948166  1  -1.22311  0  -0.365426  -0.664608  0  2.196372  0
O  O109  1  0.86495378  0.63146685  0.85051840  1  -1.223184  0  -0.365358  -0.664591  0  2.196392  0
O  O110  1  0.36495071  0.86853574  0.85051336  1  -1.223246  0  -0.365474  -0.664563  0  2.196274  0
O  O111  1  0.13504627  0.36853571  0.14948037  1  -1.223113  0  -0.365419  -0.664687  0  2.196343  0
O  O112  1  0.61544335  0.01350893  0.30030000  1  -1.28637  0  -0.627261  -0.845673  0  2.197188  0
O  O113  1  0.88456519  0.51351121  0.69970469  1  -1.286446  0  -0.627263  -0.845664  0  2.197254  0
O  O114  1  0.38456145  0.98648998  0.69970024  1  -1.286357  0  -0.627273  -0.84573  0  2.197149  0
O  O115  1  0.11543636  0.48648697  0.30029665  1  -1.28641  0  -0.62729  -0.845798  0  2.197135  0
O  O116  1  0.27393671  0.97234067  0.18926037  1  -1.264665  0  -0.614248  -0.801026  0  2.002524  0
O  O117  1  0.22606856  0.47234264  0.81074236  1  -1.264748  0  -0.614289  -0.80109  0  2.002504  0
O  O118  1  0.72606003  0.02765531  0.81074137  1  -1.264821  0  -0.614299  -0.80113  0  2.002431  0
O  O119  1  0.77393454  0.52765554  0.18926030  1  -1.264812  0  -0.614269  -0.80114  0  2.002461  0
O  O120  1  0.13226047  0.17281118  0.14430197  1  -1.250188  0  -0.632158  -0.845199  0  1.994805  0
O  O121  1  0.36774959  0.67281714  0.85569909  1  -1.25015  0  -0.632067  -0.845184  0  1.994695  0
O  O122  1  0.86774278  0.82718773  0.85569696  1  -1.250216  0  -0.632128  -0.845093  0  1.994863  0
O  O123  1  0.63225675  0.32718396  0.14430248  1  -1.250151  0  -0.632043  -0.845099  0  1.994806  0
