# generated using pymatgen
data_BiH8C10Br3N2
_symmetry_space_group_name_H-M   'P 1'
_cell_length_a   7.26644080
_cell_length_b   10.14233867
_cell_length_c   10.30293656
_cell_angle_alpha   117.00037449
_cell_angle_beta   91.02211921
_cell_angle_gamma   92.90874105
_symmetry_Int_Tables_number   1
_chemical_formula_structural   BiH8C10Br3N2
_chemical_formula_sum   'Bi2 H16 C20 Br6 N4'
_cell_volume   674.96573078
_cell_formula_units_Z   2
loop_
 _symmetry_equiv_pos_site_id
 _symmetry_equiv_pos_as_xyz
  1  'x, y, z'
loop_
 _atom_site_type_symbol
 _atom_site_label
 _atom_site_symmetry_multiplicity
 _atom_site_fract_x
 _atom_site_fract_y
 _atom_site_fract_z
 _atom_site_occupancy
 _atom_site_hle17_bader_spin_density
 _atom_site_hle17_ddec_charge
 _atom_site_hle17_ddec_spin_density
 _atom_site_hle17_ddec_sum_bond_order
 _atom_site_hle17_magmom
 _atom_site_hse06_10hf_bader_spin_density
 _atom_site_hse06_10hf_ddec_charge
 _atom_site_hse06_10hf_ddec_spin_density
 _atom_site_hse06_10hf_ddec_sum_bond_order
 _atom_site_hse06_10hf_magmom
 _atom_site_hse06_bader_spin_density
 _atom_site_hse06_ddec_charge
 _atom_site_hse06_ddec_spin_density
 _atom_site_hse06_ddec_sum_bond_order
 _atom_site_hse06_magmom
 _atom_site_pbe_bader_spin_density
 _atom_site_pbe_cm5_charge
 _atom_site_pbe_ddec_charge
 _atom_site_pbe_ddec_spin_density
 _atom_site_pbe_ddec_sum_bond_order
 _atom_site_pbe_magmom
Bi  Bi0  1  0.95540053  0.39772057  0.26029315  1  0  1.170743  0  2.455273  0  0  1.00077  0  2.94641  0  0  1.063124  0  2.91585  0  0  0.570152  0.957717  0  2.966757  0
Bi  Bi1  1  0.04461095  0.60226761  0.73965854  1  0  1.170649  0  2.455478  0  0  1.000667  0  2.946609  0  0  1.063019  0  2.916056  0  0  0.570134  0.957617  0  2.966952  0
H  H2  1  0.60074350  0.73486787  0.32839293  1  0  0.10208  0  0.979263  0  0  0.109316  0  1.048523  0  0  0.113134  0  1.045942  0  0  0.094018  0.106634  0  1.050134  0
H  H3  1  0.39925835  0.26514369  0.67162647  1  0  0.102083  0  0.979281  0  0  0.109347  0  1.048521  0  0  0.113133  0  1.04597  0  0  0.094024  0.106666  0  1.050131  0
H  H4  1  0.32066431  0.02067990  0.14196921  1  0  0.111071  0  0.963695  0  0  0.118028  0  1.030455  0  0  0.121545  0  1.028775  0  0  0.10008  0.115287  0  1.032117  0
H  H5  1  0.67934106  0.97934385  0.85805435  1  0  0.111078  0  0.963731  0  0  0.118004  0  1.030513  0  0  0.121509  0  1.028843  0  0  0.100028  0.115261  0  1.032175  0
H  H6  1  0.53523091  0.21546699  0.13936429  1  0  0.072696  0  0.987249  0  0  0.0744  0  1.065756  0  0  0.07744  0  1.062666  0  0  0.096079  0.072032  0  1.068035  0
H  H7  1  0.46477977  0.78455598  0.86066490  1  0  0.072775  0  0.987184  0  0  0.074443  0  1.065669  0  0  0.077482  0  1.062582  0  0  0.096108  0.072079  0  1.067943  0
H  H8  1  0.12582286  0.92399647  0.23306725  1  0  0.108272  0  0.963558  0  0  0.117242  0  1.027437  0  0  0.12047  0  1.026203  0  0  0.101749  0.114703  0  1.028952  0
H  H9  1  0.87418090  0.07599448  0.76692717  1  0  0.108257  0  0.963421  0  0  0.117201  0  1.027365  0  0  0.120435  0  1.026122  0  0  0.101715  0.114663  0  1.028878  0
H  H10  1  0.73006257  0.95459588  0.41482474  1  0  0.104203  0  0.951548  0  0  0.116241  0  1.009212  0  0  0.118756  0  1.009536  0  0  0.105723  0.114313  0  1.009404  0
H  H11  1  0.26994995  0.04540660  0.58518243  1  0  0.104176  0  0.95148  0  0  0.116203  0  1.009178  0  0  0.118715  0  1.009506  0  0  0.105713  0.114274  0  1.009371  0
H  H12  1  0.93420967  0.71284067  0.22827249  1  0  0.074138  0  0.969292  0  0  0.076729  0  1.04699  0  0  0.079834  0  1.043573  0  0  0.100383  0.074607  0  1.049032  0
H  H13  1  0.06579147  0.28714626  0.77170466  1  0  0.074099  0  0.96925  0  0  0.076702  0  1.046984  0  0  0.079802  0  1.043575  0  0  0.100381  0.074585  0  1.049019  0
H  H14  1  0.92953050  0.15311085  0.39915181  1  0  0.068361  0  0.96934  0  0  0.073357  0  1.043267  0  0  0.07627  0  1.040563  0  0  0.09892  0.071029  0  1.045447  0
H  H15  1  0.07047368  0.84689168  0.60085906  1  0  0.068398  0  0.969232  0  0  0.073397  0  1.043175  0  0  0.076307  0  1.040476  0  0  0.098956  0.071085  0  1.045342  0
H  H16  1  0.38905478  0.53669348  0.32596735  1  0  0.078775  0  0.958816  0  0  0.081627  0  1.034648  0  0  0.084816  0  1.030967  0  0  0.100514  0.079054  0  1.037567  0
H  H17  1  0.61095228  0.46330884  0.67403767  1  0  0.07886  0  0.958884  0  0  0.081713  0  1.034686  0  0  0.084901  0  1.031006  0  0  0.100543  0.079138  0  1.037604  0
C  C18  1  0.45384676  0.73869150  0.30977206  1  0  -0.133516  0  3.689992  0  0  -0.154651  0  3.938934  0  0  -0.161237  0  3.957824  0  0  -0.08252  -0.149923  0  3.925652  0
C  C19  1  0.54615325  0.26130978  0.69023624  1  0  -0.13344  0  3.690173  0  0  -0.154626  0  3.939106  0  0  -0.161182  0  3.958016  0  0  -0.082552  -0.149901  0  3.925823  0
C  C20  1  0.50606789  0.96837673  0.27890785  1  0  0.104624  0  3.72811  0  0  0.115815  0  3.955694  0  0  0.120005  0  3.976177  0  0  0.014992  0.113004  0  3.941674  0
C  C21  1  0.49393149  0.03163671  0.72110548  1  0  0.104515  0  3.728356  0  0  0.115812  0  3.955792  0  0  0.120002  0  3.976269  0  0  0.015028  0.113  0  3.941773  0
C  C22  1  0.45354843  0.04476393  0.20147019  1  0  -0.133296  0  3.668758  0  0  -0.15055  0  3.914186  0  0  -0.157477  0  3.933927  0  0  -0.078834  -0.146394  0  3.901253  0
C  C23  1  0.54646471  0.95525222  0.79855139  1  0  -0.133199  0  3.668465  0  0  -0.150441  0  3.913802  0  0  -0.157371  0  3.933582  0  0  -0.078778  -0.146283  0  3.900866  0
C  C24  1  0.38276577  0.85046316  0.28338412  1  0  0.094567  0  3.747845  0  0  0.108339  0  3.974174  0  0  0.112598  0  3.99454  0  0  0.011805  0.105487  0  3.96017  0
C  C25  1  0.61723743  0.14954476  0.71662605  1  0  0.094436  0  3.74826  0  0  0.108175  0  3.97455  0  0  0.112434  0  3.994911  0  0  0.011726  0.105323  0  3.960545  0
C  C26  1  0.57384015  0.15432337  0.19862348  1  0  0.138077  0  3.704489  0  0  0.105331  0  3.958495  0  0  0.11322  0  3.976175  0  0  0.045224  0.100419  0  3.946597  0
C  C27  1  0.42616302  0.84568833  0.80139893  1  0  0.137879  0  3.704373  0  0  0.105184  0  3.95837  0  0  0.113071  0  3.976048  0  0  0.045162  0.100272  0  3.946471  0
C  C28  1  0.19126316  0.84278513  0.25689754  1  0  -0.151534  0  3.70498  0  0  -0.169134  0  3.95016  0  0  -0.176386  0  3.970179  0  0  -0.083882  -0.164577  0  3.937387  0
C  C29  1  0.80873885  0.15722118  0.74310026  1  0  -0.151507  0  3.705078  0  0  -0.16905  0  3.950193  0  0  -0.176301  0  3.970211  0  0  -0.083806  -0.164494  0  3.937417  0
C  C30  1  0.68143983  0.00761733  0.35061212  1  0  -0.144764  0  3.693463  0  0  -0.16082  0  3.937489  0  0  -0.168446  0  3.959638  0  0  -0.081682  -0.156012  0  3.922995  0
C  C31  1  0.31856706  0.99238655  0.64940424  1  0  -0.144615  0  3.693565  0  0  -0.160685  0  3.937572  0  0  -0.168306  0  3.959711  0  0  -0.081607  -0.155877  0  3.923082  0
C  C32  1  0.08209967  0.72560095  0.25507533  1  0  0.12399  0  3.734961  0  0  0.090205  0  3.992201  0  0  0.098075  0  4.010186  0  0  0.039198  0.085035  0  3.980149  0
C  C33  1  0.91789651  0.27439847  0.74491560  1  0  0.12411  0  3.734955  0  0  0.090246  0  3.992259  0  0  0.098115  0  4.010249  0  0  0.039173  0.085076  0  3.980205  0
C  C34  1  0.79366420  0.11837758  0.34286852  1  0  0.12754  0  3.721581  0  0  0.095321  0  3.976712  0  0  0.102471  0  3.99568  0  0  0.039178  0.090753  0  3.964287  0
C  C35  1  0.20634840  0.88162847  0.65714597  1  0  0.127506  0  3.721692  0  0  0.095229  0  3.976903  0  0  0.102381  0  3.995868  0  0  0.039149  0.090647  0  3.964472  0
C  C36  1  0.33587770  0.62536981  0.30707059  1  0  0.139692  0  3.704277  0  0  0.104706  0  3.962785  0  0  0.113316  0  3.97965  0  0  0.043999  0.099275  0  3.95144  0
C  C37  1  0.66411999  0.37463430  0.69292814  1  0  0.139528  0  3.704413  0  0  0.104591  0  3.962865  0  0  0.113205  0  3.979711  0  0  0.044026  0.099152  0  3.951542  0
Br  Br38  1  0.77567173  0.62914194  0.52340204  1  0  -0.526094  0  0.933713  0  0  -0.472181  0  1.204747  0  0  -0.495359  0  1.190618  0  0  -0.223642  -0.454525  0  1.214317  0
Br  Br39  1  0.22430141  0.37080727  0.47654034  1  0  -0.52606  0  0.93371  0  0  -0.472109  0  1.20469  0  0  -0.495291  0  1.190556  0  0  -0.223634  -0.454452  0  1.214254  0
Br  Br40  1  0.70195999  0.44091628  0.08942035  1  0  -0.413505  0  0.994785  0  0  -0.3644  0  1.270128  0  0  -0.381123  0  1.257661  0  0  -0.17851  -0.353312  0  1.27832  0
Br  Br41  1  0.29796984  0.55905807  0.91056437  1  0  -0.413517  0  0.994959  0  0  -0.364359  0  1.270206  0  0  -0.381081  0  1.257739  0  0  -0.178495  -0.353273  0  1.278395  0
Br  Br42  1  0.14899075  0.20581354  0.03188487  1  0  -0.46728  0  0.90686  0  0  -0.426706  0  1.173986  0  0  -0.442814  0  1.16074  0  0  -0.224909  -0.413907  0  1.182607  0
Br  Br43  1  0.85101634  0.79415425  0.96807480  1  0  -0.467237  0  0.906867  0  0  -0.426673  0  1.173956  0  0  -0.442778  0  1.160711  0  0  -0.224918  -0.413876  0  1.182579  0
N  N44  1  0.74099596  0.19062633  0.26782975  1  0  -0.324079  0  3.251264  0  0  -0.245209  0  3.498264  0  0  -0.266466  0  3.521942  0  0  -0.303253  -0.231347  0  3.482303  0
N  N45  1  0.25901295  0.80938500  0.73218196  1  0  -0.324013  0  3.251459  0  0  -0.245105  0  3.498428  0  0  -0.266359  0  3.522109  0  0  -0.30324  -0.231244  0  3.482474  0
N  N46  1  0.15325493  0.61870711  0.27981584  1  0  -0.32478  0  3.289849  0  0  -0.243827  0  3.536083  0  0  -0.26581  0  3.56098  0  0  -0.304795  -0.229397  0  3.519549  0
N  N47  1  0.84674666  0.38129009  0.72017236  1  0  -0.324746  0  3.289891  0  0  -0.243818  0  3.536182  0  0  -0.265799  0  3.561081  0  0  -0.30482  -0.229391  0  3.519645  0
