# generated using pymatgen
data_K2Zn3H26C18(NO14)2
_symmetry_space_group_name_H-M   'P 1'
_cell_length_a   8.17813656
_cell_length_b   9.84007064
_cell_length_c   10.65672771
_cell_angle_alpha   104.98914907
_cell_angle_beta   94.25745303
_cell_angle_gamma   102.28609237
_symmetry_Int_Tables_number   1
_chemical_formula_structural   K2Zn3H26C18(NO14)2
_chemical_formula_sum   'K2 Zn3 H26 C18 N2 O28'
_cell_volume   801.80326700
_cell_formula_units_Z   1
loop_
 _symmetry_equiv_pos_site_id
 _symmetry_equiv_pos_as_xyz
  1  'x, y, z'
loop_
 _atom_site_type_symbol
 _atom_site_label
 _atom_site_symmetry_multiplicity
 _atom_site_fract_x
 _atom_site_fract_y
 _atom_site_fract_z
 _atom_site_occupancy
 _atom_site_hle17_bader_spin_density
 _atom_site_hle17_ddec_charge
 _atom_site_hle17_ddec_spin_density
 _atom_site_hle17_ddec_sum_bond_order
 _atom_site_hle17_magmom
 _atom_site_hse06_10hf_bader_spin_density
 _atom_site_hse06_10hf_ddec_charge
 _atom_site_hse06_10hf_ddec_spin_density
 _atom_site_hse06_10hf_ddec_sum_bond_order
 _atom_site_hse06_10hf_magmom
 _atom_site_hse06_bader_spin_density
 _atom_site_hse06_ddec_charge
 _atom_site_hse06_ddec_spin_density
 _atom_site_hse06_ddec_sum_bond_order
 _atom_site_hse06_magmom
 _atom_site_pbe_bader_spin_density
 _atom_site_pbe_cm5_charge
 _atom_site_pbe_ddec_charge
 _atom_site_pbe_ddec_spin_density
 _atom_site_pbe_ddec_sum_bond_order
 _atom_site_pbe_magmom
K  K0  1  0.09302783  0.19759608  0.97124670  1  0  0.916029  0  0.465323  0  0  0.87442  0  0.641306  0  0  0.886806  0  0.618647  0  0  0.74034  0.864499  0  0.658394  0
K  K1  1  0.90697510  0.80240126  0.02875150  1  0  0.916033  0  0.465321  0  0  0.874429  0  0.641299  0  0  0.886807  0  0.618648  0  0  0.740345  0.864503  0  0.658389  0
Zn  Zn2  1  0.86691873  0.71474453  0.64942673  1  0  1.099341  0  1.769513  0  0  0.918099  0  2.237957  0  0  0.966391  0  2.180758  0  0  0.698388  0.884024  0  2.277365  0
Zn  Zn3  1  0.13307868  0.28525498  0.35057168  1  0  1.099367  0  1.769492  0  0  0.918129  0  2.237929  0  0  0.966421  0  2.180729  0  0  0.698405  0.884053  0  2.277335  0
Zn  Zn4  1  0.50000073  0.50000020  0.00000067  1  0  1.221985  0  1.65429  0  0  1.075751  0  2.090985  0  0  1.121257  0  2.030987  0  0  0.677483  1.043691  0  2.131856  0
H  H5  1  0.79547760  0.43885991  0.96225977  1  0  0.433228  0  0.873934  0  0  0.403042  0  0.934752  0  0  0.41447  0  0.918493  0  0  0.290226  0.394994  0  0.946193  0
H  H6  1  0.20452379  0.56114069  0.03774099  1  0  0.433232  0  0.873924  0  0  0.403062  0  0.934715  0  0  0.414487  0  0.918457  0  0  0.290262  0.395014  0  0.946155  0
H  H7  1  0.79663052  0.50776354  0.11625849  1  0  0.428266  0  0.872608  0  0  0.398876  0  0.933281  0  0  0.408785  0  0.918953  0  0  0.301445  0.392026  0  0.943196  0
H  H8  1  0.20337057  0.49223597  0.88374013  1  0  0.428276  0  0.872591  0  0  0.398887  0  0.933266  0  0  0.408794  0  0.91894  0  0  0.30144  0.392037  0  0.943182  0
H  H9  1  0.51381520  0.77983747  0.12395448  1  0  0.430457  0  0.863476  0  0  0.400955  0  0.923824  0  0  0.411123  0  0.908995  0  0  0.302058  0.393791  0  0.934295  0
H  H10  1  0.48618466  0.22016204  0.87604500  1  0  0.430444  0  0.863491  0  0  0.400941  0  0.923841  0  0  0.411111  0  0.909008  0  0  0.302054  0.393777  0  0.934311  0
H  H11  1  0.49229134  0.76403502  0.97138410  1  0  0.439053  0  0.852144  0  0  0.407622  0  0.916263  0  0  0.418027  0  0.900885  0  0  0.304484  0.40034  0  0.927027  0
H  H12  1  0.50770822  0.23596341  0.02861511  1  0  0.439079  0  0.852106  0  0  0.407605  0  0.916287  0  0  0.418025  0  0.900893  0  0  0.304477  0.400323  0  0.92705  0
H  H13  1  0.72273703  0.06230450  0.99379252  1  0  0.417499  0  0.883541  0  0  0.3869  0  0.946476  0  0  0.398086  0  0.929903  0  0  0.288429  0.378914  0  0.958339  0
H  H14  1  0.27726375  0.93769393  0.00620676  1  0  0.417506  0  0.88355  0  0  0.386907  0  0.946482  0  0  0.398093  0  0.92991  0  0  0.288439  0.378922  0  0.958343  0
H  H15  1  0.72467527  0.97169293  0.84675234  1  0  0.426979  0  0.852958  0  0  0.403351  0  0.907574  0  0  0.412312  0  0.894173  0  0  0.300853  0.396853  0  0.917322  0
H  H16  1  0.27532642  0.02830875  0.15324870  1  0  0.426994  0  0.853002  0  0  0.403363  0  0.907572  0  0  0.412325  0  0.89417  0  0  0.300851  0.396865  0  0.917319  0
H  H17  1  0.57883683  0.10174154  0.37636940  1  0  0.12543  0  0.947141  0  0  0.127772  0  1.017861  0  0  0.132897  0  1.013375  0  0  0.116899  0.123997  0  1.02117  0
H  H18  1  0.42116181  0.89825798  0.62363095  1  0  0.125424  0  0.947142  0  0  0.127769  0  1.017857  0  0  0.132893  0  1.013372  0  0  0.116902  0.123993  0  1.021166  0
H  H19  1  0.90585393  0.98019013  0.67035296  1  0  0.434691  0  0.868506  0  0  0.403507  0  0.930498  0  0  0.415315  0  0.913705  0  0  0.29319  0.395163  0  0.942365  0
H  H20  1  0.09414623  0.01981047  0.32964680  1  0  0.434707  0  0.868482  0  0  0.403524  0  0.93047  0  0  0.415332  0  0.913679  0  0  0.293203  0.395182  0  0.942336  0
H  H21  1  0.73548616  0.89303633  0.57030043  1  0  0.417113  0  0.898627  0  0  0.380112  0  0.972284  0  0  0.39155  0  0.956185  0  0  0.285806  0.3721  0  0.983503  0
H  H22  1  0.26451401  0.10696427  0.42969933  1  0  0.417109  0  0.898635  0  0  0.380111  0  0.972288  0  0  0.391549  0  0.956188  0  0  0.285802  0.372102  0  0.983506  0
H  H23  1  0.03819274  0.18082232  0.64340264  1  0  0.421693  0  0.876086  0  0  0.39226  0  0.937087  0  0  0.402768  0  0.921572  0  0  0.294749  0.384705  0  0.948266  0
H  H24  1  0.96180743  0.81917827  0.35659712  1  0  0.421687  0  0.876095  0  0  0.392254  0  0.937095  0  0  0.402761  0  0.921581  0  0  0.294747  0.3847  0  0.948274  0
H  H25  1  0.16814652  0.08940168  0.65436420  1  0  0.425945  0  0.868961  0  0  0.395935  0  0.92973  0  0  0.406562  0  0.914183  0  0  0.296816  0.388338  0  0.940854  0
H  H26  1  0.83185427  0.91059675  0.34563414  1  0  0.425946  0  0.868938  0  0  0.395937  0  0.929707  0  0  0.406564  0  0.914161  0  0  0.296821  0.388341  0  0.940831  0
H  H27  1  0.75577500  0.25921512  0.79933345  1  0  0.414445  0  0.896348  0  0  0.381038  0  0.96418  0  0  0.391747  0  0.948713  0  0  0.287828  0.37349  0  0.975078  0
H  H28  1  0.24422609  0.74078439  0.20066704  1  0  0.414354  0  0.896475  0  0  0.380977  0  0.964262  0  0  0.391685  0  0.948797  0  0  0.287801  0.37343  0  0.975159  0
H  H29  1  0.93053717  0.37511184  0.80736614  1  0  0.407733  0  0.904431  0  0  0.373802  0  0.973724  0  0  0.384832  0  0.95758  0  0  0.288445  0.36596  0  0.985208  0
H  H30  1  0.06946299  0.62488876  0.19263456  1  0  0.407756  0  0.904395  0  0  0.373826  0  0.973693  0  0  0.384856  0  0.957549  0  0  0.288455  0.365984  0  0.985176  0
C  C31  1  0.89553699  0.56168902  0.37157662  1  0  0.623255  0  3.923239  0  0  0.563204  0  4.234236  0  0  0.59565  0  4.227027  0  0  0.214548  0.541588  0  4.237903  0
C  C32  1  0.10446502  0.43831375  0.62842657  1  0  0.623208  0  3.923329  0  0  0.563207  0  4.234256  0  0  0.595651  0  4.227046  0  0  0.214583  0.54159  0  4.237925  0
C  C33  1  0.78426826  0.45240967  0.42428308  1  0  0.087418  0  3.737081  0  0  0.075227  0  3.990188  0  0  0.077899  0  4.007698  0  0  0.112755  0.073412  0  3.978344  0
C  C34  1  0.21573190  0.54759093  0.57571668  1  0  0.087403  0  3.73707  0  0  0.075225  0  3.990154  0  0  0.077902  0  4.007655  0  0  0.112734  0.073394  0  3.978302  0
C  C35  1  0.72532723  0.30431451  0.35937823  1  0  -0.065001  0  3.656503  0  0  -0.050768  0  3.90141  0  0  -0.055092  0  3.916673  0  0  0.012926  -0.049134  0  3.892212  0
C  C36  1  0.27466926  0.69568608  0.64062039  1  0  -0.065031  0  3.656443  0  0  -0.050836  0  3.901444  0  0  -0.055165  0  3.916702  0  0  0.012921  -0.04915  0  3.89218  0
C  C37  1  0.77188026  0.23147051  0.22826996  1  0  0.692147  0  3.889745  0  0  0.631338  0  4.198878  0  0  0.666581  0  4.18931  0  0  0.231005  0.60728  0  4.204942  0
C  C38  1  0.22811837  0.76852900  0.77172852  1  0  0.692327  0  3.88947  0  0  0.631467  0  4.198715  0  0  0.666723  0  4.189128  0  0  0.231104  0.607394  0  4.204784  0
C  C39  1  0.62528315  0.21763636  0.42401102  1  0  -0.013325  0  3.587486  0  0  -0.051849  0  3.84179  0  0  -0.046681  0  3.852608  0  0  -0.048798  -0.054806  0  3.834939  0
C  C40  1  0.37471671  0.78236316  0.57598753  1  0  -0.013266  0  3.587462  0  0  -0.051785  0  3.841788  0  0  -0.046616  0  3.852604  0  0  -0.048774  -0.054757  0  3.834923  0
C  C41  1  0.58901148  0.27660323  0.55033065  1  0  -0.066048  0  3.632873  0  0  -0.052704  0  3.880417  0  0  -0.057257  0  3.895539  0  0  0.011789  -0.050786  0  3.871193  0
C  C42  1  0.41098869  0.72339737  0.44966911  1  0  -0.066102  0  3.63287  0  0  -0.05274  0  3.880423  0  0  -0.057295  0  3.895546  0  0  0.011786  -0.050824  0  3.871203  0
C  C43  1  0.49288356  0.17609691  0.62071789  1  0  0.683568  0  3.89279  0  0  0.620282  0  4.208171  0  0  0.654594  0  4.198907  0  0  0.227209  0.597161  0  4.213733  0
C  C44  1  0.50711630  0.82390260  0.37928160  1  0  0.683522  0  3.892859  0  0  0.620219  0  4.208267  0  0  0.654531  0  4.199004  0  0  0.227182  0.597099  0  4.213829  0
C  C45  1  0.65029910  0.42663931  0.60713174  1  0  0.100719  0  3.695442  0  0  0.0881  0  3.945749  0  0  0.091824  0  3.961946  0  0  0.120189  0.085572  0  3.934835  0
C  C46  1  0.34970076  0.57336021  0.39286681  1  0  0.100839  0  3.695303  0  0  0.088175  0  3.94565  0  0  0.091899  0  3.961846  0  0  0.120191  0.085648  0  3.934737  0
C  C47  1  0.62016915  0.51374109  0.73945346  1  0  0.63256  0  3.916785  0  0  0.579815  0  4.217733  0  0  0.612962  0  4.210829  0  0  0.216108  0.557631  0  4.221228  0
C  C48  1  0.37983041  0.48625734  0.26054669  1  0  0.632526  0  3.916823  0  0  0.579818  0  4.217732  0  0  0.612966  0  4.210827  0  0  0.216115  0.557633  0  4.221228  0
N  N49  1  0.74516678  0.50761957  0.54350077  1  0  -0.369443  0  3.413864  0  0  -0.300183  0  3.689489  0  0  -0.31748  0  3.705695  0  0  -0.327639  -0.287993  0  3.678176  0
N  N50  1  0.25483308  0.49237994  0.45649965  1  0  -0.369501  0  3.413843  0  0  -0.300219  0  3.689462  0  0  -0.317516  0  3.705664  0  0  -0.327642  -0.288029  0  3.678153  0
O  O51  1  0.95193363  0.68920497  0.44887579  1  0  -0.637781  0  2.034594  0  0  -0.57389  0  2.282418  0  0  -0.600308  0  2.271184  0  0  -0.302911  -0.555316  0  2.289611  0
O  O52  1  0.04806714  0.31079779  0.55112640  1  0  -0.637753  0  2.034555  0  0  -0.573892  0  2.282366  0  0  -0.600312  0  2.271132  0  0  -0.302931  -0.555316  0  2.289554  0
O  O53  1  0.92671190  0.51856600  0.25563609  1  0  -0.605074  0  2.049011  0  0  -0.540613  0  2.267466  0  0  -0.5643  0  2.257893  0  0  -0.285437  -0.524188  0  2.273622  0
O  O54  1  0.07328857  0.48143568  0.74436582  1  0  -0.605036  0  2.049106  0  0  -0.540595  0  2.267539  0  0  -0.564281  0  2.257965  0  0  -0.285444  -0.524172  0  2.273695  0
O  O55  1  0.92076250  0.20869541  0.22660765  1  0  -0.652136  0  2.050614  0  0  -0.577567  0  2.324458  0  0  -0.608347  0  2.309305  0  0  -0.322906  -0.555653  0  2.334139  0
O  O56  1  0.07923584  0.79130302  0.77339150  1  0  -0.652169  0  2.050575  0  0  -0.577582  0  2.324464  0  0  -0.608367  0  2.309306  0  0  -0.322898  -0.555662  0  2.334134  0
O  O57  1  0.65956332  0.18639933  0.13058063  1  0  -0.592732  0  1.951125  0  0  -0.53039  0  2.159642  0  0  -0.555324  0  2.148186  0  0  -0.280382  -0.513198  0  2.167383  0
O  O58  1  0.34043379  0.81359910  0.86941938  1  0  -0.592837  0  1.950943  0  0  -0.530485  0  2.159492  0  0  -0.555421  0  2.148023  0  0  -0.280477  -0.513294  0  2.167241  0
O  O59  1  0.34371792  0.10669384  0.56763227  1  0  -0.630537  0  2.023806  0  0  -0.566364  0  2.24652  0  0  -0.593926  0  2.236104  0  0  -0.299313  -0.546955  0  2.252969  0
O  O60  1  0.65628164  0.89330459  0.43236694  1  0  -0.630521  0  2.023852  0  0  -0.566323  0  2.246544  0  0  -0.593892  0  2.236146  0  0  -0.299294  -0.546912  0  2.252992  0
O  O61  1  0.56722421  0.16008365  0.72219021  1  0  -0.61886  0  1.998358  0  0  -0.557739  0  2.216974  0  0  -0.583056  0  2.205692  0  0  -0.2971  -0.540239  0  2.224504  0
O  O62  1  0.43277565  0.83991586  0.27780928  1  0  -0.618829  0  1.998379  0  0  -0.55771  0  2.216986  0  0  -0.583027  0  2.205708  0  0  -0.297098  -0.54021  0  2.224517  0
O  O63  1  0.50367941  0.45350468  0.79283803  1  0  -0.613202  0  2.028918  0  0  -0.550964  0  2.277749  0  0  -0.577559  0  2.267053  0  0  -0.301415  -0.532604  0  2.284228  0
O  O64  1  0.49632046  0.54649483  0.20716239  1  0  -0.613228  0  2.02891  0  0  -0.550997  0  2.277721  0  0  -0.57759  0  2.267017  0  0  -0.301436  -0.532636  0  2.284203  0
O  O65  1  0.71376305  0.64129424  0.78415660  1  0  -0.626837  0  2.026978  0  0  -0.566805  0  2.287627  0  0  -0.592591  0  2.27542  0  0  -0.347411  -0.548645  0  2.295289  0
O  O66  1  0.28623682  0.35870528  0.21584288  1  0  -0.626814  0  2.027022  0  0  -0.566802  0  2.287667  0  0  -0.59259  0  2.275459  0  0  -0.347402  -0.548648  0  2.295346  0
O  O67  1  0.80015357  0.89812015  0.65725246  1  0  -0.840412  0  1.937065  0  0  -0.75837  0  2.157829  0  0  -0.784149  0  2.120217  0  0  -0.565145  -0.740197  0  2.18397  0
O  O68  1  0.19984537  0.10188045  0.34274723  1  0  -0.840431  0  1.937087  0  0  -0.758385  0  2.157836  0  0  -0.784166  0  2.120225  0  0  -0.565148  -0.740214  0  2.183968  0
O  O69  1  0.75606405  0.51596766  0.02949255  1  0  -0.885821  0  1.936806  0  0  -0.822304  0  2.149461  0  0  -0.846072  0  2.11561  0  0  -0.625195  -0.805704  0  2.172733  0
O  O70  1  0.24393581  0.48403185  0.97050788  1  0  -0.88587  0  1.936752  0  0  -0.822364  0  2.149409  0  0  -0.846129  0  2.115565  0  0  -0.625229  -0.805764  0  2.172682  0
O  O71  1  0.55261757  0.73571154  0.04064289  1  0  -0.863239  0  1.904473  0  0  -0.808764  0  2.102512  0  0  -0.829288  0  2.067723  0  0  -0.610999  -0.794245  0  2.126579  0
O  O72  1  0.44738230  0.26428798  0.95935659  1  0  -0.863254  0  1.904423  0  0  -0.80874  0  2.102527  0  0  -0.829286  0  2.067695  0  0  -0.610997  -0.794222  0  2.126594  0
O  O73  1  0.06436022  0.11051158  0.68920754  1  0  -0.838667  0  1.8361  0  0  -0.783091  0  1.987915  0  0  -0.802425  0  1.956545  0  0  -0.613222  -0.76933  0  2.010256  0
O  O74  1  0.93564087  0.88948794  0.31079201  1  0  -0.838661  0  1.836079  0  0  -0.783094  0  1.987897  0  0  -0.802424  0  1.95653  0  0  -0.613223  -0.769333  0  2.010236  0
O  O75  1  0.85726595  0.32433075  0.86003147  1  0  -0.851516  0  1.872093  0  0  -0.794967  0  2.040806  0  0  -0.81476  0  2.009268  0  0  -0.628859  -0.78089  0  2.063062  0
O  O76  1  0.14273513  0.67566876  0.13996808  1  0  -0.851435  0  1.872144  0  0  -0.794919  0  2.040797  0  0  -0.814711  0  2.009262  0  0  -0.628845  -0.78084  0  2.063049  0
O  O77  1  0.78398429  0.00115505  0.93593043  1  0  -0.897952  0  1.801909  0  0  -0.856211  0  1.965276  0  0  -0.8732  0  1.934317  0  0  -0.718506  -0.843815  0  1.987278  0
O  O78  1  0.21601802  0.99884446  0.06407013  1  0  -0.897971  0  1.801968  0  0  -0.856234  0  1.965313  0  0  -0.873214  0  1.934333  0  0  -0.718511  -0.843835  0  1.987315  0
