# generated using pymatgen
data_KH5(C2O)4
_symmetry_space_group_name_H-M   'P 1'
_cell_length_a   6.42588500
_cell_length_b   9.57141595
_cell_length_c   13.28243860
_cell_angle_alpha   89.99997910
_cell_angle_beta   90.00005893
_cell_angle_gamma   90.00009418
_symmetry_Int_Tables_number   1
_chemical_formula_structural   KH5(C2O)4
_chemical_formula_sum   'K4 H20 C32 O16'
_cell_volume   816.93397023
_cell_formula_units_Z   4
loop_
 _symmetry_equiv_pos_site_id
 _symmetry_equiv_pos_as_xyz
  1  'x, y, z'
loop_
 _atom_site_type_symbol
 _atom_site_label
 _atom_site_symmetry_multiplicity
 _atom_site_fract_x
 _atom_site_fract_y
 _atom_site_fract_z
 _atom_site_occupancy
 _atom_site_hle17_bader_spin_density
 _atom_site_hle17_ddec_charge
 _atom_site_hle17_ddec_spin_density
 _atom_site_hle17_ddec_sum_bond_order
 _atom_site_hle17_magmom
 _atom_site_hse06_10hf_bader_spin_density
 _atom_site_hse06_10hf_ddec_charge
 _atom_site_hse06_10hf_ddec_spin_density
 _atom_site_hse06_10hf_ddec_sum_bond_order
 _atom_site_hse06_10hf_magmom
 _atom_site_hse06_bader_spin_density
 _atom_site_hse06_ddec_charge
 _atom_site_hse06_ddec_spin_density
 _atom_site_hse06_ddec_sum_bond_order
 _atom_site_hse06_magmom
 _atom_site_pbe_bader_spin_density
 _atom_site_pbe_cm5_charge
 _atom_site_pbe_ddec_charge
 _atom_site_pbe_ddec_spin_density
 _atom_site_pbe_ddec_sum_bond_order
 _atom_site_pbe_magmom
K  K0  1  0.32214089  0.90258752  0.46236762  1  0  0.94125  0  0.463601  0  0  0.893563  0  0.650046  0  0  0.908047  0  0.62697  0  0  0.806247  0.882687  0  0.666606  0
K  K1  1  0.82213959  0.09741119  0.53763415  1  0  0.941252  0  0.463608  0  0  0.893572  0  0.650048  0  0  0.908052  0  0.626973  0  0  0.806241  0.882695  0  0.666607  0
K  K2  1  0.32214191  0.40258938  0.53763323  1  0  0.941254  0  0.463594  0  0  0.893554  0  0.650065  0  0  0.908036  0  0.62699  0  0  0.806232  0.882677  0  0.666625  0
K  K3  1  0.82214946  0.59741247  0.46236552  1  0  0.941243  0  0.463603  0  0  0.893567  0  0.650039  0  0  0.908049  0  0.626964  0  0  0.806239  0.882691  0  0.666598  0
H  H4  1  0.31662372  0.26347300  0.80434933  1  0  0.09711  0  0.962954  0  0  0.108038  0  1.021999  0  0  0.110474  0  1.022442  0  0  0.106535  0.106319  0  1.021868  0
H  H5  1  0.81662326  0.73652779  0.19565093  1  0  0.097131  0  0.96295  0  0  0.108059  0  1.021995  0  0  0.110495  0  1.022438  0  0  0.106542  0.106339  0  1.021864  0
H  H6  1  0.31662368  0.76347337  0.19565080  1  0  0.097126  0  0.962943  0  0  0.108055  0  1.021984  0  0  0.11049  0  1.022427  0  0  0.106542  0.106335  0  1.021854  0
H  H7  1  0.81662330  0.23652742  0.80434946  1  0  0.09712  0  0.962958  0  0  0.108049  0  1.022002  0  0  0.110485  0  1.022444  0  0  0.106537  0.106329  0  1.02187  0
H  H8  1  0.16302792  0.25351824  0.97514775  1  0  0.085822  0  0.964739  0  0  0.097233  0  1.027563  0  0  0.099242  0  1.027452  0  0  0.100786  0.095834  0  1.02763  0
H  H9  1  0.66302713  0.74648239  0.02485243  1  0  0.085864  0  0.964715  0  0  0.097263  0  1.027555  0  0  0.099272  0  1.027443  0  0  0.100791  0.095864  0  1.027623  0
H  H10  1  0.16302752  0.75351764  0.02485231  1  0  0.085829  0  0.964746  0  0  0.097241  0  1.02757  0  0  0.09925  0  1.027459  0  0  0.100786  0.095842  0  1.027637  0
H  H11  1  0.66302597  0.24648194  0.97514787  1  0  0.085921  0  0.964646  0  0  0.097273  0  1.027544  0  0  0.099283  0  1.027431  0  0  0.100804  0.095874  0  1.027611  0
H  H12  1  0.95832100  0.04454983  0.02876152  1  0  0.096869  0  0.955887  0  0  0.106659  0  1.016265  0  0  0.109152  0  1.016582  0  0  0.101032  0.104802  0  1.016254  0
H  H13  1  0.45832040  0.95545007  0.97123806  1  0  0.096889  0  0.955892  0  0  0.10667  0  1.016274  0  0  0.109164  0  1.016591  0  0  0.101039  0.104814  0  1.016263  0
H  H14  1  0.95831951  0.54454981  0.97123823  1  0  0.09689  0  0.955892  0  0  0.106684  0  1.016258  0  0  0.10918  0  1.016575  0  0  0.101042  0.104828  0  1.016247  0
H  H15  1  0.45831878  0.45544905  0.02876209  1  0  0.096889  0  0.955874  0  0  0.10667  0  1.016257  0  0  0.109164  0  1.016574  0  0  0.101024  0.104814  0  1.016246  0
H  H16  1  0.90883558  0.84706303  0.90837021  1  0  0.098845  0  0.95934  0  0  0.107646  0  1.02524  0  0  0.110677  0  1.023373  0  0  0.104164  0.105346  0  1.026863  0
H  H17  1  0.40883736  0.15293682  0.09162934  1  0  0.098863  0  0.959319  0  0  0.107671  0  1.025211  0  0  0.110701  0  1.023345  0  0  0.104166  0.105375  0  1.026827  0
H  H18  1  0.90883565  0.34706302  0.09162944  1  0  0.098862  0  0.959311  0  0  0.10767  0  1.025198  0  0  0.1107  0  1.023332  0  0  0.104164  0.105369  0  1.02682  0
H  H19  1  0.40883573  0.65293683  0.90837086  1  0  0.098852  0  0.959326  0  0  0.107656  0  1.025223  0  0  0.110687  0  1.023358  0  0  0.104156  0.10536  0  1.026841  0
H  H20  1  0.02356248  0.61685736  0.71359554  1  0  0.403796  0  0.895539  0  0  0.372461  0  0.973528  0  0  0.385729  0  0.956616  0  0  0.300291  0.363201  0  0.982919  0
H  H21  1  0.52356134  0.38314206  0.28640457  1  0  0.40377  0  0.895561  0  0  0.372412  0  0.973594  0  0  0.385681  0  0.956686  0  0  0.300286  0.36315  0  0.982983  0
H  H22  1  0.02356141  0.11685726  0.28640448  1  0  0.40376  0  0.89558  0  0  0.372416  0  0.973581  0  0  0.385684  0  0.956679  0  0  0.300273  0.363155  0  0.98297  0
H  H23  1  0.52356086  0.88314217  0.71359563  1  0  0.403786  0  0.89554  0  0  0.372449  0  0.97353  0  0  0.385717  0  0.956629  0  0  0.30029  0.363191  0  0.982919  0
C  C24  1  0.09227878  0.94101736  0.79123789  1  0  -0.095152  0  3.748247  0  0  -0.083094  0  3.984334  0  0  -0.089402  0  4.004989  0  0  -0.014085  -0.079152  0  3.970536  0
C  C25  1  0.59227980  0.05898319  0.20876226  1  0  -0.095153  0  3.748276  0  0  -0.083091  0  3.984361  0  0  -0.0894  0  4.005017  0  0  -0.014103  -0.07915  0  3.970566  0
C  C26  1  0.09227910  0.44101730  0.20876133  1  0  -0.095126  0  3.748257  0  0  -0.083074  0  3.984338  0  0  -0.089382  0  4.004992  0  0  -0.014073  -0.079132  0  3.97054  0
C  C27  1  0.59227948  0.55898325  0.79123806  1  0  -0.095116  0  3.748219  0  0  -0.083053  0  3.984309  0  0  -0.089362  0  4.004965  0  0  -0.014072  -0.079112  0  3.970515  0
C  C28  1  0.20618572  0.05955746  0.76113061  1  0  -0.057565  0  3.72098  0  0  -0.042077  0  3.952092  0  0  -0.04391  0  3.97007  0  0  -0.003555  -0.040578  0  3.939756  0
C  C29  1  0.70618585  0.94044321  0.23886959  1  0  -0.057532  0  3.720952  0  0  -0.042051  0  3.952064  0  0  -0.043883  0  3.970042  0  0  -0.003549  -0.040552  0  3.939727  0
C  C30  1  0.20618577  0.55955885  0.23886876  1  0  -0.057456  0  3.720969  0  0  -0.042003  0  3.952073  0  0  -0.043837  0  3.97005  0  0  -0.003545  -0.040504  0  3.939735  0
C  C31  1  0.70618424  0.44044182  0.76113068  1  0  -0.057534  0  3.720889  0  0  -0.042038  0  3.952014  0  0  -0.043871  0  3.969992  0  0  -0.003555  -0.04054  0  3.93968  0
C  C32  1  0.22893143  0.17161820  0.82775165  1  0  -0.093174  0  3.735893  0  0  -0.113541  0  3.981852  0  0  -0.115797  0  4.001552  0  0  -0.083975  -0.112057  0  3.968424  0
C  C33  1  0.72893115  0.82838249  0.17224781  1  0  -0.093197  0  3.735925  0  0  -0.113558  0  3.981882  0  0  -0.115816  0  4.001581  0  0  -0.083985  -0.112074  0  3.968453  0
C  C34  1  0.22893290  0.67161858  0.17224771  1  0  -0.093195  0  3.735917  0  0  -0.113554  0  3.981885  0  0  -0.115809  0  4.001583  0  0  -0.083984  -0.112071  0  3.968457  0
C  C35  1  0.72893123  0.32838212  0.82775175  1  0  -0.093207  0  3.735943  0  0  -0.113567  0  3.981882  0  0  -0.115824  0  4.001581  0  0  -0.083978  -0.112083  0  3.968454  0
C  C36  1  0.14228821  0.16563678  0.92392599  1  0  -0.052367  0  3.760917  0  0  -0.068498  0  4.014162  0  0  -0.068891  0  4.03452  0  0  -0.083269  -0.068087  0  3.999952  0
C  C37  1  0.64228773  0.83436278  0.07607343  1  0  -0.052428  0  3.760981  0  0  -0.068563  0  4.014238  0  0  -0.068956  0  4.034596  0  0  -0.083285  -0.068154  0  4.000031  0
C  C38  1  0.14228791  0.66563721  0.07607408  1  0  -0.052417  0  3.76099  0  0  -0.06856  0  4.014247  0  0  -0.068953  0  4.034605  0  0  -0.083292  -0.06815  0  4.000039  0
C  C39  1  0.64228802  0.33436235  0.92392609  1  0  -0.052389  0  3.760873  0  0  -0.06848  0  4.014119  0  0  -0.068873  0  4.034477  0  0  -0.083253  -0.068069  0  3.999909  0
C  C40  1  0.02774667  0.04874805  0.95390616  1  0  -0.082204  0  3.764055  0  0  -0.094766  0  4.016318  0  0  -0.097778  0  4.037391  0  0  -0.09067  -0.092611  0  4.001905  0
C  C41  1  0.52774642  0.95125138  0.04609320  1  0  -0.082146  0  3.764081  0  0  -0.094684  0  4.016313  0  0  -0.097697  0  4.037387  0  0  -0.09062  -0.09253  0  4.001902  0
C  C42  1  0.02774476  0.54874849  0.04609313  1  0  -0.082164  0  3.764092  0  0  -0.094719  0  4.016329  0  0  -0.097734  0  4.037405  0  0  -0.090643  -0.092565  0  4.001918  0
C  C43  1  0.52774522  0.45125094  0.95390623  1  0  -0.082255  0  3.764117  0  0  -0.094801  0  4.016345  0  0  -0.097815  0  4.037419  0  0  -0.090661  -0.092646  0  4.001932  0
C  C44  1  0.00228038  0.93735325  0.88739717  1  0  -0.06894  0  3.735864  0  0  -0.093855  0  3.988272  0  0  -0.093042  0  4.007109  0  0  -0.082857  -0.094454  0  3.975894  0
C  C45  1  0.50228121  0.06264615  0.11260293  1  0  -0.069048  0  3.735967  0  0  -0.093974  0  3.988379  0  0  -0.093159  0  4.007216  0  0  -0.082906  -0.094574  0  3.975997  0
C  C46  1  0.00228050  0.43735428  0.11260276  1  0  -0.069039  0  3.735988  0  0  -0.093962  0  3.988408  0  0  -0.093148  0  4.007246  0  0  -0.0829  -0.094561  0  3.97603  0
C  C47  1  0.50227954  0.56264617  0.88739734  1  0  -0.069013  0  3.735964  0  0  -0.093937  0  3.988379  0  0  -0.093123  0  4.007217  0  0  -0.082892  -0.094538  0  3.976  0
C  C48  1  0.06267953  0.82207362  0.71990160  1  0  0.670735  0  3.826643  0  0  0.621671  0  4.127188  0  0  0.655005  0  4.117309  0  0  0.234633  0.599079  0  4.133199  0
C  C49  1  0.56267943  0.17792585  0.28009778  1  0  0.670685  0  3.826618  0  0  0.621626  0  4.127166  0  0  0.654962  0  4.117287  0  0  0.234606  0.599035  0  4.133177  0
C  C50  1  0.06268000  0.32207352  0.28009764  1  0  0.670657  0  3.82676  0  0  0.621628  0  4.127248  0  0  0.654963  0  4.11737  0  0  0.234615  0.599036  0  4.133259  0
C  C51  1  0.56268052  0.67792595  0.71990174  1  0  0.670732  0  3.826651  0  0  0.621664  0  4.127202  0  0  0.655  0  4.117321  0  0  0.23464  0.599072  0  4.133214  0
C  C52  1  0.30959239  0.06933980  0.65957022  1  0  0.673635  0  3.950293  0  0  0.62127  0  4.259044  0  0  0.65478  0  4.248475  0  0  0.188683  0.598411  0  4.265572  0
C  C53  1  0.80959272  0.93065995  0.34043003  1  0  0.673604  0  3.950363  0  0  0.621254  0  4.259094  0  0  0.654764  0  4.248526  0  0  0.188688  0.598395  0  4.26562  0
C  C54  1  0.30959422  0.56934009  0.34042921  1  0  0.673389  0  3.950609  0  0  0.621107  0  4.259228  0  0  0.654618  0  4.248663  0  0  0.188623  0.598248  0  4.265752  0
C  C55  1  0.80959244  0.43066070  0.65956954  1  0  0.67368  0  3.95022  0  0  0.621274  0  4.259041  0  0  0.654783  0  4.248472  0  0  0.188709  0.598416  0  4.265567  0
O  O56  1  0.05197740  0.69909180  0.76494304  1  0  -0.557151  0  2.080787  0  0  -0.503375  0  2.299633  0  0  -0.527737  0  2.285204  0  0  -0.323787  -0.486404  0  2.307472  0
O  O57  1  0.55197751  0.30090766  0.23505708  1  0  -0.55711  0  2.080779  0  0  -0.503345  0  2.29967  0  0  -0.527708  0  2.285243  0  0  -0.323774  -0.486372  0  2.30751  0
O  O58  1  0.05197777  0.19909172  0.23505697  1  0  -0.557109  0  2.080845  0  0  -0.503336  0  2.29967  0  0  -0.527698  0  2.285249  0  0  -0.323773  -0.486363  0  2.307509  0
O  O59  1  0.55197713  0.80090773  0.76494315  1  0  -0.55714  0  2.080808  0  0  -0.503357  0  2.29965  0  0  -0.527721  0  2.285229  0  0  -0.323785  -0.486388  0  2.307489  0
O  O60  1  0.05006640  0.83988292  0.62741632  1  0  -0.630103  0  1.91724  0  0  -0.593221  0  2.143617  0  0  -0.611837  0  2.133205  0  0  -0.347688  -0.580173  0  2.150433  0
O  O61  1  0.55006646  0.16011758  0.37258456  1  0  -0.63009  0  1.917183  0  0  -0.593198  0  2.143545  0  0  -0.611815  0  2.133132  0  0  -0.347681  -0.58015  0  2.150361  0
O  O62  1  0.05006707  0.33988277  0.37258366  1  0  -0.630057  0  1.91726  0  0  -0.593191  0  2.143626  0  0  -0.611808  0  2.133215  0  0  -0.347674  -0.580144  0  2.150442  0
O  O63  1  0.55006735  0.66011773  0.62741571  1  0  -0.630125  0  1.917209  0  0  -0.593245  0  2.143595  0  0  -0.611862  0  2.133181  0  0  -0.347701  -0.580198  0  2.150411  0
O  O64  1  0.22833979  0.14728226  0.59416352  1  0  -0.729983  0  1.968101  0  0  -0.689595  0  2.21415  0  0  -0.712145  0  2.201769  0  0  -0.491899  -0.673614  0  2.222141  0
O  O65  1  0.72834007  0.85271739  0.40583594  1  0  -0.729955  0  1.968143  0  0  -0.689577  0  2.21418  0  0  -0.712125  0  2.201801  0  0  -0.491877  -0.673596  0  2.22217  0
O  O66  1  0.22834332  0.64728461  0.40583509  1  0  -0.729851  0  1.968285  0  0  -0.689485  0  2.214275  0  0  -0.712035  0  2.201896  0  0  -0.491825  -0.673505  0  2.222264  0
O  O67  1  0.72833966  0.35271818  0.59416362  1  0  -0.73001  0  1.968113  0  0  -0.689607  0  2.214179  0  0  -0.712155  0  2.201798  0  0  -0.491903  -0.673626  0  2.222169  0
O  O68  1  0.47858814  0.99994828  0.64568037  1  0  -0.701413  0  2.016059  0  0  -0.646508  0  2.246209  0  0  -0.672554  0  2.234376  0  0  -0.420572  -0.628538  0  2.253528  0
O  O69  1  0.97858932  0.00005269  0.35431997  1  0  -0.701403  0  2.016051  0  0  -0.646503  0  2.246193  0  0  -0.672549  0  2.234361  0  0  -0.420588  -0.62853  0  2.253512  0
O  O70  1  0.47859188  0.49994710  0.35431978  1  0  -0.701346  0  2.016072  0  0  -0.646453  0  2.246182  0  0  -0.672499  0  2.23435  0  0  -0.420581  -0.62848  0  2.2535  0
O  O71  1  0.97858869  0.50005283  0.64568056  1  0  -0.701447  0  2.016035  0  0  -0.646529  0  2.246204  0  0  -0.672574  0  2.23437  0  0  -0.420596  -0.628557  0  2.253523  0
