# generated using pymatgen
data_NiH10C10(NO)4
_symmetry_space_group_name_H-M   'P 1'
_cell_length_a   5.05144514
_cell_length_b   8.19123085
_cell_length_c   11.97703422
_cell_angle_alpha   92.65011466
_cell_angle_beta   90.00005737
_cell_angle_gamma   89.99988677
_symmetry_Int_Tables_number   1
_chemical_formula_structural   NiH10C10(NO)4
_chemical_formula_sum   'Ni2 H20 C20 N8 O8'
_cell_volume   495.05035247
_cell_formula_units_Z   2
loop_
 _symmetry_equiv_pos_site_id
 _symmetry_equiv_pos_as_xyz
  1  'x, y, z'
loop_
 _atom_site_type_symbol
 _atom_site_label
 _atom_site_symmetry_multiplicity
 _atom_site_fract_x
 _atom_site_fract_y
 _atom_site_fract_z
 _atom_site_occupancy
 _atom_site_hle17_ddec_charge
 _atom_site_hle17_ddec_spin_density
 _atom_site_hle17_ddec_sum_bond_order
 _atom_site_hle17_magmom
 _atom_site_hse06_10hf_ddec_charge
 _atom_site_hse06_10hf_ddec_spin_density
 _atom_site_hse06_10hf_ddec_sum_bond_order
 _atom_site_hse06_10hf_magmom
 _atom_site_hse06_ddec_charge
 _atom_site_hse06_ddec_spin_density
 _atom_site_hse06_ddec_sum_bond_order
 _atom_site_hse06_magmom
 _atom_site_pbe_cm5_charge
 _atom_site_pbe_ddec_charge
 _atom_site_pbe_ddec_spin_density
 _atom_site_pbe_ddec_sum_bond_order
 _atom_site_pbe_magmom
Ni  Ni0  1  0.00000220  0.00000067  0.99999919  1  0.909998  1.760692  1.885527  1.531  0.91656  1.829783  2.26434  1.66  1.004659  1.882294  2.199039  1.745  0.648797  0.838521  1.777645  2.327699  1.578
Ni  Ni1  1  0.50000249  0.49999958  0.49999857  1  0.909806  1.760592  1.885565  1.531  0.916538  1.829781  2.264357  1.66  1.004704  1.882313  2.199057  1.746  0.648795  0.838517  1.777638  2.327697  1.578
H  H2  1  0.35092631  0.48676739  0.25154175  1  0.115698  0.000275  0.960516  0.001  0.118634  0.000343  1.03957  0.001  0.120978  0.000165  1.038347  0.0  0.117062  0.117316  0.000565  1.039895  0.001
H  H3  1  0.85092286  0.01322331  0.24845439  1  0.115671  0.000284  0.960496  0.001  0.118626  0.000343  1.039507  0.001  0.120967  0.000165  1.038286  0.0  0.117058  0.117311  0.000565  1.039832  0.001
H  H4  1  0.64907669  0.51322069  0.74845182  1  0.115739  0.000283  0.960556  0.001  0.118692  0.000343  1.039585  0.001  0.121036  0.000165  1.038362  0.0  0.117075  0.117373  0.000564  1.039908  0.001
H  H5  1  0.14908014  0.98678330  0.75154792  1  0.115759  0.000275  0.960389  0.001  0.118574  0.000343  1.039595  0.001  0.120914  0.000165  1.038377  0.0  0.117053  0.117256  0.000565  1.039919  0.001
H  H6  1  0.15013658  0.32574853  0.19378951  1  0.126442  -0.00048  0.930477  0.0  0.140455  -0.000123  0.988318  0.0  0.143069  -0.000133  0.986982  0.0  0.121048  0.138448  -0.000115  0.989539  0.0
H  H7  1  0.65014236  0.17424603  0.30620824  1  0.126393  -0.00046  0.930503  0.0  0.140394  -0.000122  0.988337  0.0  0.143009  -0.000133  0.987003  0.0  0.121047  0.138386  -0.000115  0.989562  0.0
H  H8  1  0.84983870  0.67424576  0.80620837  1  0.126478  -0.000449  0.930497  0.0  0.140443  -0.000122  0.98837  0.0  0.143061  -0.000134  0.98704  0.0  0.121026  0.138428  -0.000116  0.989603  0.0
H  H9  1  0.34985074  0.82575933  0.69379321  1  0.126336  -0.00049  0.930566  0.0  0.140365  -0.000123  0.988346  0.0  0.142983  -0.000133  0.987015  0.0  0.121039  0.138353  -0.000116  0.989577  0.0
H  H10  1  0.28125652  0.76634139  0.18025878  1  0.09161  -9.3e-05  0.986674  0.0  0.095322  -1.2e-05  1.058688  0.0  0.097368  -4.4e-05  1.056888  0.0  0.130686  0.093478  3.8e-05  1.060512  0.0
H  H11  1  0.78124820  0.73365199  0.31973915  1  0.091538  -0.000101  0.986661  0.0  0.095251  -1.2e-05  1.05868  0.0  0.097297  -4.4e-05  1.056874  0.0  0.130673  0.093407  3.8e-05  1.060502  0.0
H  H12  1  0.71875439  0.23365288  0.81973826  1  0.091554  -0.000102  0.986612  0.0  0.09526  -1.2e-05  1.058645  0.0  0.097304  -4.4e-05  1.056841  0.0  0.13069  0.093417  3.7e-05  1.060463  0.0
H  H13  1  0.21875480  0.26635209  0.68025976  1  0.091538  -0.000109  0.986691  0.0  0.095272  -1.2e-05  1.05867  0.0  0.09732  -4.4e-05  1.056868  0.0  0.130704  0.093429  3.7e-05  1.060489  0.0
H  H14  1  0.56910889  0.70883670  0.00145719  1  0.109034  0.000174  1.018  0.0  0.115667  0.000215  1.081438  0.0  0.119319  0.000109  1.078989  0.0  0.114228  0.112876  0.000378  1.083508  0.001
H  H15  1  0.06910537  0.79116303  0.49854406  1  0.10909  0.000173  1.017967  0.0  0.115686  0.000215  1.081452  0.0  0.119339  0.000109  1.079  0.0  0.114242  0.1129  0.000378  1.083523  0.001
H  H16  1  0.43089411  0.29116624  0.99854505  1  0.109068  0.000172  1.017993  0.0  0.115652  0.000215  1.081496  0.0  0.119305  0.000109  1.079048  0.0  0.114229  0.112865  0.000378  1.083566  0.001
H  H17  1  0.93089169  0.20883002  0.50145295  1  0.109068  0.000178  1.01801  0.0  0.115682  0.000215  1.081459  0.0  0.119335  0.000109  1.079005  0.0  0.114255  0.1129  0.000378  1.083523  0.001
H  H18  1  0.68380741  0.41748107  0.10879832  1  0.122099  0.000316  0.967744  0.001  0.133576  0.000274  1.024969  0.0  0.136369  0.000193  1.02368  0.0  0.123452  0.130762  0.000433  1.027191  0.0
H  H19  1  0.18381661  0.08251476  0.39120282  1  0.122093  0.000317  0.967805  0.001  0.133567  0.000274  1.025027  0.0  0.13635  0.000193  1.023755  0.0  0.123454  0.130754  0.000433  1.027251  0.0
H  H20  1  0.31618173  0.58252315  0.89120645  1  0.122098  0.000317  0.967719  0.001  0.133533  0.000274  1.025001  0.0  0.136316  0.000193  1.023731  0.0  0.123461  0.130719  0.000433  1.027223  0.0
H  H21  1  0.81618638  0.91747961  0.60879840  1  0.12211  0.00032  0.967749  0.001  0.133575  0.000273  1.024984  0.0  0.136359  0.000193  1.023726  0.0  0.123447  0.130762  0.000433  1.027207  0.0
C  C22  1  0.01206898  0.42555166  0.35061131  1  0.686015  -0.004315  3.805487  -0.003  0.646093  0.003595  4.114715  0.004  0.683861  0.002772  4.105633  0.004  0.219366  0.618261  0.004491  4.12  0.005
C  C23  1  0.51206720  0.07444548  0.14938806  1  0.68603  -0.004289  3.80552  -0.003  0.646053  0.003596  4.1148  0.004  0.683816  0.002768  4.105728  0.004  0.219351  0.618225  0.004491  4.120074  0.005
C  C24  1  0.98793006  0.57444878  0.64938837  1  0.685896  -0.004282  3.805476  -0.003  0.645978  0.003596  4.114687  0.004  0.683744  0.002772  4.10561  0.004  0.219321  0.61816  0.004491  4.119945  0.005
C  C25  1  0.48793184  0.92555502  0.85061413  1  0.686101  -0.004295  3.805386  -0.003  0.646114  0.003596  4.114659  0.004  0.683883  0.002771  4.105585  0.004  0.219386  0.618295  0.004491  4.119916  0.005
C  C26  1  0.14608402  0.44735220  0.23722595  1  -0.17577  0.004916  3.610673  0.007  -0.236081  0.002746  3.854347  0.004  -0.237595  0.001632  3.860372  0.002  -0.058716  -0.234697  0.004055  3.850413  0.005
C  C27  1  0.64608040  0.05264112  0.26277094  1  -0.175723  0.004869  3.610745  0.007  -0.236011  0.002745  3.854406  0.004  -0.237519  0.001632  3.860425  0.002  -0.058733  -0.234632  0.004054  3.850472  0.005
C  C28  1  0.85390710  0.55264331  0.76277196  1  -0.175811  0.004859  3.610677  0.007  -0.236063  0.002745  3.854264  0.004  -0.237583  0.001632  3.860298  0.002  -0.058692  -0.234682  0.004054  3.850323  0.005
C  C29  1  0.35391665  0.94736184  0.73723214  1  -0.175698  0.004921  3.610618  0.007  -0.235869  0.002745  3.854188  0.004  -0.237389  0.001632  3.860222  0.002  -0.058676  -0.23449  0.004054  3.850246  0.005
C  C30  1  0.10100326  0.71437208  0.14570618  1  0.15189  -0.008392  3.645647  -0.005  0.097904  -0.002919  3.918286  -0.001  0.113287  -0.003381  3.931073  -0.002  0.135966  0.087641  -0.00253  3.908813  -0.001
C  C31  1  0.60099868  0.78562268  0.35429249  1  0.1521  -0.008278  3.645473  -0.005  0.098114  -0.002919  3.918136  -0.001  0.113502  -0.003384  3.930917  -0.002  0.136062  0.087852  -0.002531  3.908661  -0.001
C  C32  1  0.89900172  0.28562594  0.85429428  1  0.152028  -0.008279  3.645524  -0.005  0.098052  -0.002919  3.91819  -0.001  0.113438  -0.003383  3.930974  -0.002  0.135992  0.087792  -0.002531  3.90871  -0.001
C  C33  1  0.39900431  0.21437774  0.64570636  1  0.152054  -0.008209  3.645394  -0.005  0.098053  -0.002918  3.918063  -0.001  0.113436  -0.003387  3.930847  -0.002  0.13603  0.087794  -0.002531  3.908582  -0.001
C  C34  1  0.73395685  0.67499414  0.05320466  1  -0.021376  -0.001404  3.737474  0.0  -0.053975  -0.0007  4.017673  0.0  -0.05132  -0.001409  4.0361  -0.001  -0.013348  -0.055838  7.3e-05  4.004933  0.001
C  C35  1  0.23395514  0.82499936  0.44679658  1  -0.021376  -0.001329  3.737171  0.0  -0.05395  -0.000702  4.017402  0.0  -0.051291  -0.001409  4.035816  -0.001  -0.013327  -0.05582  7.2e-05  4.004673  0.001
C  C36  1  0.26604219  0.32500392  0.94679747  1  -0.021417  -0.001346  3.737297  0.0  -0.053975  -0.000702  4.017511  0.0  -0.051321  -0.001409  4.035936  -0.001  -0.013353  -0.055845  7.2e-05  4.004777  0.001
C  C37  1  0.76604786  0.17499499  0.55320380  1  -0.021412  -0.001388  3.737286  0.0  -0.054005  -0.000702  4.017537  0.0  -0.051342  -0.001405  4.035953  -0.001  -0.0134  -0.055879  7.3e-05  4.004814  0.001
C  C38  1  0.78348556  0.53416317  0.10760806  1  -0.055919  0.002781  3.66161  0.003  -0.097302  0.001429  3.923093  0.002  -0.095226  0.001179  3.940413  0.001  -0.001146  -0.09895  0.001627  3.912749  0.002
C  C39  1  0.28349115  0.96584008  0.39239426  1  -0.055898  0.002729  3.661484  0.003  -0.097287  0.00143  3.922971  0.002  -0.095203  0.00118  3.940273  0.001  -0.001176  -0.098938  0.001627  3.912638  0.002
C  C40  1  0.21650753  0.46584225  0.89239590  1  -0.055921  0.002744  3.661565  0.003  -0.097283  0.00143  3.923069  0.002  -0.095201  0.001179  3.940381  0.001  -0.001194  -0.098941  0.001627  3.912743  0.002
C  C41  1  0.71650987  0.03416044  0.60760876  1  -0.055976  0.002749  3.661476  0.003  -0.097353  0.00143  3.922992  0.002  -0.095281  0.001178  3.9403  0.001  -0.001156  -0.099002  0.001627  3.912657  0.002
N  N42  1  0.01610314  0.56106422  0.16577476  1  -0.042592  -0.000235  3.617707  0.001  0.05313  -2.2e-05  3.826187  0.001  0.039198  -0.000141  3.852241  0.0  -0.247145  0.062253  0.000174  3.808695  0.001
N  N43  1  0.51609987  0.93893185  0.33422470  1  -0.042664  -0.000234  3.617756  0.001  0.053052  -2.1e-05  3.826228  0.001  0.039116  -0.00014  3.852281  0.0  -0.247153  0.062177  0.000175  3.808736  0.001
N  N44  1  0.98390382  0.43893628  0.83422742  1  -0.042593  -0.000243  3.617716  0.001  0.053118  -2.1e-05  3.826195  0.001  0.039183  -0.00014  3.852251  0.0  -0.247125  0.062237  0.000175  3.8087  0.001
N  N45  1  0.48390114  0.06107109  0.66577754  1  -0.042618  -0.00028  3.617508  0.001  0.053079  -2.2e-05  3.825968  0.001  0.039146  -0.000139  3.852022  0.0  -0.247192  0.0622  0.000174  3.808475  0.001
N  N46  1  0.93419238  0.78636271  0.07707987  1  -0.350314  0.042796  3.310828  0.069  -0.315265  0.02736  3.622333  0.044  -0.34332  0.021397  3.640489  0.037  -0.3576  -0.293632  0.031687  3.609028  0.049
N  N47  1  0.43418718  0.71363055  0.42291819  1  -0.350452  0.04277  3.310883  0.069  -0.315421  0.02736  3.622416  0.044  -0.34349  0.021397  3.640581  0.037  -0.357677  -0.293789  0.031686  3.609115  0.049
N  N48  1  0.06581061  0.21363647  0.92291811  1  -0.350425  0.042768  3.310912  0.069  -0.315368  0.02736  3.622396  0.044  -0.343422  0.021398  3.640549  0.037  -0.357634  -0.293737  0.031688  3.609092  0.049
N  N49  1  0.56581977  0.28636618  0.57707975  1  -0.35037  0.042769  3.310688  0.069  -0.315332  0.027359  3.622224  0.044  -0.343402  0.021396  3.640391  0.037  -0.357618  -0.293702  0.031686  3.608924  0.049
O  O50  1  0.76169800  0.43843748  0.35635996  1  -0.600163  0.049624  2.027858  0.084  -0.572539  0.031287  2.296918  0.054  -0.60842  0.021578  2.288093  0.039  -0.297988  -0.542483  0.041669  2.30148  0.068
O  O51  1  0.26169531  0.06156066  0.14363795  1  -0.600215  0.049612  2.027894  0.084  -0.572545  0.031286  2.296975  0.054  -0.608426  0.021577  2.288166  0.039  -0.298005  -0.542488  0.041666  2.301533  0.068
O  O52  1  0.23830104  0.56156420  0.64364058  1  -0.600085  0.049622  2.027847  0.084  -0.572482  0.031286  2.296916  0.054  -0.608353  0.021576  2.288074  0.039  -0.297965  -0.542428  0.041668  2.301465  0.068
O  O53  1  0.73830967  0.93843737  0.85636335  1  -0.600268  0.049612  2.027843  0.084  -0.572581  0.031289  2.296899  0.054  -0.608443  0.021579  2.288036  0.039  -0.298014  -0.542525  0.04167  2.30145  0.068
O  O54  1  0.16388109  0.38302100  0.42864727  1  -0.611558  0.033649  2.096933  0.058  -0.583857  0.021637  2.373439  0.038  -0.619877  0.014933  2.364494  0.028  -0.31026  -0.554655  0.028638  2.379196  0.047
O  O55  1  0.66387513  0.11697353  0.07134966  1  -0.611569  0.033643  2.096913  0.058  -0.583816  0.021636  2.373449  0.038  -0.61982  0.014936  2.364478  0.028  -0.310209  -0.554612  0.028638  2.379203  0.047
O  O56  1  0.83611795  0.61697942  0.57135158  1  -0.611548  0.033643  2.096922  0.058  -0.583833  0.021637  2.373403  0.038  -0.619864  0.014935  2.364486  0.028  -0.310249  -0.554634  0.02864  2.379148  0.047
O  O57  1  0.33612390  0.88302449  0.92865081  1  -0.611604  0.03364  2.096913  0.058  -0.583871  0.021636  2.373475  0.038  -0.619863  0.014935  2.364476  0.028  -0.310241  -0.55467  0.028638  2.379222  0.047
