# generated using pymatgen
data_KCrH6C14(NO4)2
_symmetry_space_group_name_H-M   'P 1'
_cell_length_a   6.86876639
_cell_length_b   6.87253882
_cell_length_c   15.65728299
_cell_angle_alpha   102.73909144
_cell_angle_beta   102.65074076
_cell_angle_gamma   89.91130397
_symmetry_Int_Tables_number   1
_chemical_formula_structural   KCrH6C14(NO4)2
_chemical_formula_sum   'K2 Cr2 H12 C28 N4 O16'
_cell_volume   702.57102368
_cell_formula_units_Z   2
loop_
 _symmetry_equiv_pos_site_id
 _symmetry_equiv_pos_as_xyz
  1  'x, y, z'
loop_
 _atom_site_type_symbol
 _atom_site_label
 _atom_site_symmetry_multiplicity
 _atom_site_fract_x
 _atom_site_fract_y
 _atom_site_fract_z
 _atom_site_occupancy
 _atom_site_pbe_cm5_charge
 _atom_site_pbe_ddec_charge
 _atom_site_pbe_ddec_spin_density
 _atom_site_pbe_ddec_sum_bond_order
 _atom_site_pbe_magmom
K  K0  1  0.12579155  0.37454820  0.24986755  1  0.775528  0.862794  -0.000191  0.614924  0.0
K  K1  1  0.87484326  0.62572412  0.75018127  1  0.774333  0.861814  0.001665  0.617641  0.001
Cr  Cr2  1  0.62469718  0.87442549  0.24922641  1  1.132119  1.315181  1.054459  3.009968  1.014
Cr  Cr3  1  0.37491860  0.12515817  0.74996596  1  1.107749  1.308742  2.812101  2.885572  2.625
H  H4  1  0.65152491  0.31963221  0.55272583  1  0.123837  0.144704  -0.000534  1.015954  0.0
H  H5  1  0.23495113  0.15056693  0.05286755  1  0.123152  0.143022  -0.000425  1.014992  0.0
H  H6  1  0.90093749  0.73398873  0.55269763  1  0.123616  0.144119  -0.000531  1.015159  0.0
H  H7  1  0.81884399  0.40201049  0.05257643  1  0.123514  0.143215  -0.00043  1.015439  0.0
H  H8  1  0.34915645  0.68077339  0.44696078  1  0.123266  0.143707  -9.1e-05  1.015578  0.0
H  H9  1  0.76564933  0.84869152  0.94755373  1  0.122953  0.142588  0.000529  1.015253  0.0
H  H10  1  0.09903442  0.26571928  0.44703807  1  0.123244  0.143381  -9.2e-05  1.014494  0.0
H  H11  1  0.18106761  0.59900863  0.94766970  1  0.123389  0.143939  0.000542  1.013531  0.0
H  H12  1  0.81876548  0.06994457  0.63915095  1  0.122507  0.12312  -0.000137  0.985992  0.0
H  H13  1  0.57021923  0.31895127  0.13873079  1  0.120526  0.120298  -0.00036  0.985648  0.0
H  H14  1  0.18178279  0.93032080  0.36096306  1  0.121728  0.121951  0.000266  0.986202  0.0
H  H15  1  0.42997638  0.68109860  0.86125559  1  0.119828  0.120746  -0.000885  0.989679  0.001
C  C16  1  0.64525328  0.12041650  0.42552562  1  0.120713  0.119321  0.024989  3.959845  0.019
C  C17  1  0.30559019  0.14424732  0.92536994  1  0.122402  0.11824  0.02731  3.956216  0.024
C  C18  1  0.78120776  0.80592287  0.42551261  1  0.12056  0.114735  0.025006  3.963022  0.019
C  C19  1  0.62000263  0.28168096  0.92521107  1  0.12151  0.118809  0.027388  3.953267  0.024
C  C20  1  0.35554021  0.87941640  0.57445799  1  0.122034  0.120485  0.02815  3.95279  0.024
C  C21  1  0.69484308  0.85533789  0.07479648  1  0.113292  0.105936  -0.056242  3.962023  -0.033
C  C22  1  0.21873150  0.19440486  0.57447720  1  0.122666  0.117956  0.028159  3.958138  0.024
C  C23  1  0.37947499  0.71864951  0.07490111  1  0.11481  0.110382  -0.05499  3.96072  -0.033
C  C24  1  0.53377727  0.23484449  0.36042586  1  0.206389  0.543257  0.009116  4.208685  0.005
C  C25  1  0.12503756  0.03270774  0.86022456  1  0.206558  0.547967  0.008274  4.215672  0.006
C  C26  1  0.82678496  0.62571457  0.36037694  1  0.209008  0.549376  0.009469  4.205178  0.006
C  C27  1  0.73511635  0.32804903  0.85993622  1  0.206222  0.543762  0.008274  4.212942  0.006
C  C28  1  0.46723427  0.76415773  0.63968626  1  0.204413  0.542301  0.009074  4.218531  0.007
C  C29  1  0.87452517  0.96627321  0.13965433  1  0.206964  0.548629  -0.001438  4.207872  0.003
C  C30  1  0.17193686  0.37505504  0.63968672  1  0.206925  0.546728  0.009063  4.213913  0.007
C  C31  1  0.26453906  0.67280882  0.13983772  1  0.204122  0.543687  0.002508  4.212806  0.005
C  C32  1  0.69105927  0.17361633  0.51900230  1  -0.054183  -0.104402  -0.007082  3.858915  -0.006
C  C33  1  0.34641950  0.19030449  0.01887509  1  -0.053944  -0.102334  -0.013419  3.861404  -0.01
C  C34  1  0.82807792  0.84631520  0.51899388  1  -0.053656  -0.101776  -0.0071  3.859986  -0.006
C  C35  1  0.67321497  0.32862147  0.01869782  1  -0.054996  -0.103634  -0.013491  3.860158  -0.01
C  C36  1  0.30971513  0.82653129  0.48094634  1  -0.054721  -0.105805  -0.008801  3.860683  -0.007
C  C37  1  0.65378223  0.80926089  0.98141748  1  -0.055326  -0.099933  0.016412  3.870385  0.016
C  C38  1  0.17208772  0.15385548  0.48097629  1  -0.05515  -0.104506  -0.008839  3.8644  -0.007
C  C39  1  0.32690205  0.67202424  0.98153858  1  -0.057415  -0.104693  0.016201  3.870699  0.016
C  C40  1  0.78258249  0.03328633  0.56574286  1  -0.057698  -0.0355  0.033998  3.894  0.025
C  C41  1  0.53326237  0.28253863  0.06534530  1  -0.055976  -0.03382  0.03026  3.898205  0.023
C  C42  1  0.21795769  0.96696704  0.43436028  1  -0.058122  -0.035165  0.030725  3.898406  0.023
C  C43  1  0.46678401  0.71744865  0.93463750  1  -0.061222  -0.043903  -0.073225  3.902367  -0.042
N  N44  1  0.69160074  0.94138389  0.38202493  1  -0.378455  -0.337105  -0.009665  3.702374  -0.022
N  N45  1  0.44118185  0.19154354  0.88227192  1  -0.380185  -0.336293  -0.030336  3.702765  -0.047
N  N46  1  0.30850103  0.05844170  0.61746229  1  -0.379775  -0.335779  -0.021265  3.702987  -0.041
N  N47  1  0.55914812  0.80881149  0.11869401  1  -0.390573  -0.345529  -0.025065  3.705066  0.0
O  O48  1  0.51234241  0.13879404  0.27592855  1  -0.349568  -0.585403  -0.050425  2.29288  -0.042
O  O49  1  0.13287082  0.01161936  0.77547316  1  -0.35589  -0.599716  0.0176  2.277447  -0.001
O  O50  1  0.76066542  0.63541967  0.27587413  1  -0.348733  -0.586027  -0.051165  2.290139  -0.042
O  O51  1  0.64244424  0.26420312  0.77523721  1  -0.356452  -0.598539  0.017648  2.276402  -0.001
O  O52  1  0.48869514  0.85715382  0.72433483  1  -0.35443  -0.596023  0.017126  2.278759  -0.001
O  O53  1  0.86489339  0.98650656  0.22443380  1  -0.355955  -0.595729  0.045392  2.28659  0.03
O  O54  1  0.23535780  0.36733702  0.72434667  1  -0.355035  -0.596592  0.01716  2.27621  -0.001
O  O55  1  0.35902973  0.73727841  0.22451209  1  -0.354196  -0.594346  0.044424  2.28722  0.026
O  O56  1  0.46076269  0.39727539  0.38426778  1  -0.352803  -0.5204  0.017647  2.176804  0.019
O  O57  1  0.98836286  0.96001564  0.88532238  1  -0.355392  -0.525852  0.009902  2.175703  0.011
O  O58  1  0.92509238  0.48799215  0.38417438  1  -0.354164  -0.523164  0.018406  2.172999  0.02
O  O59  1  0.89683935  0.42590277  0.88489945  1  -0.354364  -0.522827  0.009864  2.176191  0.011
O  O60  1  0.54001799  0.60210592  0.61451352  1  -0.353699  -0.524296  0.01028  2.177956  0.012
O  O61  1  0.01238861  0.04028191  0.11580017  1  -0.356316  -0.525034  -0.011845  2.173416  -0.01
O  O62  1  0.07365289  0.51156447  0.61445159  1  -0.355307  -0.526332  0.010245  2.174078  0.011
O  O63  1  0.10254960  0.57538206  0.11593482  1  -0.356177  -0.524436  -0.001565  2.176492  -0.001
