# generated using pymatgen
data_AlH3C8(SO3)2
_symmetry_space_group_name_H-M   'P 1'
_cell_length_a   6.64641773
_cell_length_b   14.33298956
_cell_length_c   19.92824555
_cell_angle_alpha   89.70978086
_cell_angle_beta   87.59702382
_cell_angle_gamma   92.08408712
_symmetry_Int_Tables_number   1
_chemical_formula_structural   AlH3C8(SO3)2
_chemical_formula_sum   'Al4 H12 C32 S8 O24'
_cell_volume   1895.45986870
_cell_formula_units_Z   4
loop_
 _symmetry_equiv_pos_site_id
 _symmetry_equiv_pos_as_xyz
  1  'x, y, z'
loop_
 _atom_site_type_symbol
 _atom_site_label
 _atom_site_symmetry_multiplicity
 _atom_site_fract_x
 _atom_site_fract_y
 _atom_site_fract_z
 _atom_site_occupancy
 _atom_site_pbe_bader_charge
 _atom_site_pbe_bader_spin_density
 _atom_site_pbe_cm5_charge
 _atom_site_pbe_ddec_charge
 _atom_site_pbe_ddec_spin_density
 _atom_site_pbe_ddec_sum_bond_order
 _atom_site_pbe_magmom
Al  Al0  1  0.02864464  0.99657386  0.50007622  1  2.501891  0  0.394455  1.637733  0  2.584926  0
Al  Al1  1  0.52950787  0.00318436  0.50130721  1  2.500413  0  0.39624  1.638149  0  2.564334  0
Al  Al2  1  0.97136655  0.49975015  0.00247765  1  2.49961  0  0.395579  1.644401  0  2.574691  0
Al  Al3  1  0.47142925  0.49863624  0.00213800  1  2.502094  0  0.395273  1.64463  0  2.58395  0
H  H4  1  0.80261376  0.11589275  0.47355999  1  0.637446  0  0.347919  0.432512  0  0.859196  0
H  H5  1  0.28821883  0.88764449  0.46710499  1  0.64544  0  0.348117  0.432907  0  0.857401  0
H  H6  1  0.71876456  0.38486364  0.97338947  1  0.630499  0  0.353128  0.431951  0  0.850963  0
H  H7  1  0.23507829  0.61596699  0.97722515  1  0.626301  0  0.353854  0.432524  0  0.850384  0
H  H8  1  0.53870744  0.29441037  0.84042778  1  0.103555  0  0.109828  0.129621  0  1.010639  0
H  H9  1  0.03554896  0.70172074  0.15414056  1  0.174729  0  0.117623  0.14218  0  0.989753  0
H  H10  1  0.44341565  0.71439391  0.84685895  1  0.11813  0  0.112586  0.132449  0  0.999032  0
H  H11  1  0.52571591  0.30571165  0.15107106  1  0.135065  0  0.120329  0.147257  0  0.982428  0
H  H12  1  0.80576682  0.23151617  0.67700706  1  0.613315  0  0.302153  0.320444  0  0.980604  0
H  H13  1  0.30507615  0.77026034  0.32885998  1  0.592813  0  0.301355  0.319063  0  0.983973  0
H  H14  1  0.19813191  0.76224742  0.67335304  1  0.599329  0  0.303513  0.319384  0  0.976378  0
H  H15  1  0.81769163  0.22793823  0.33674209  1  0.611717  0  0.300751  0.317548  0  0.986872  0
C  C16  1  0.29815692  0.11411386  0.41121297  1  1.613961  0  0.252523  0.657917  0  4.159406  0
C  C17  1  0.26267857  0.10013382  0.59570713  1  1.589423  0  0.260692  0.663788  0  4.139794  0
C  C18  1  0.75192574  0.89041358  0.59059172  1  1.640891  0  0.259442  0.659579  0  4.14517  0
C  C19  1  0.78533490  0.89530223  0.40594474  1  1.631109  0  0.253667  0.659176  0  4.151175  0
C  C20  1  0.19846503  0.39258625  0.09502089  1  1.57737  0  0.26045  0.6449  0  4.156036  0
C  C21  1  0.22888577  0.39333945  0.90735855  1  1.577962  0  0.257235  0.650824  0  4.141974  0
C  C22  1  0.74587970  0.61017509  0.90982085  1  1.586869  0  0.256535  0.648398  0  4.148562  0
C  C23  1  0.71052735  0.60239687  0.09622877  1  1.59168  0  0.261099  0.646374  0  4.151902  0
C  C24  1  0.09136256  0.20648390  0.68210373  1  0.613752  0  0.087137  0.278097  0  4.100616  0
C  C25  1  0.39153488  0.29099795  0.81851193  1  0.021964  0  -0.092351  -0.135632  0  3.986781  0
C  C26  1  0.25653588  0.15965451  0.65559667  1  -0.079521  0  -0.030865  -0.230537  0  3.90458  0
C  C27  1  0.22848291  0.33650357  0.84628111  1  -0.152225  0  -0.023494  -0.119177  0  3.966034  0
C  C28  1  0.33959235  0.24205440  0.76024605  1  -0.154616  0  -0.027741  -0.003055  0  4.127263  0
C  C29  1  0.13868657  0.25291344  0.74289705  1  -0.162801  0  -0.034889  -0.141774  0  4.074319  0
C  C30  1  0.59578564  0.79139993  0.32292106  1  0.593372  0  0.089561  0.286229  0  4.076794  0
C  C31  1  0.88876141  0.70549568  0.18004163  1  -0.013431  0  -0.087013  -0.131955  0  3.96827  0
C  C32  1  0.76815351  0.83719525  0.34616838  1  -0.143219  0  -0.034292  -0.235757  0  3.909121  0
C  C33  1  0.71878457  0.65981485  0.15683740  1  -0.156506  0  -0.019932  -0.119127  0  3.967656  0
C  C34  1  0.84331155  0.75414687  0.23970748  1  -0.189752  0  -0.024682  0.006397  0  4.114031  0
C  C35  1  0.63971158  0.74388580  0.26168388  1  -0.101585  0  -0.035632  -0.148497  0  4.079042  0
C  C36  1  0.91155814  0.78535252  0.67738277  1  0.540773  0  0.090403  0.284222  0  4.086651  0
C  C37  1  0.59230391  0.71373031  0.82208499  1  0.091883  0  -0.089418  -0.130048  0  3.974331  0
C  C38  1  0.75224297  0.83306779  0.65152459  1  -0.098136  0  -0.030079  -0.231943  0  3.90162  0
C  C39  1  0.74922345  0.66608101  0.84796302  1  -0.184586  0  -0.023341  -0.121524  0  3.969758  0
C  C40  1  0.65241364  0.75856873  0.76096997  1  -0.160464  0  -0.026474  -0.00093  0  4.116791  0
C  C41  1  0.85358240  0.74305633  0.74048362  1  -0.173023  0  -0.03534  -0.143519  0  4.078923  0
C  C42  1  0.10540046  0.21089000  0.32850792  1  0.559704  0  0.090734  0.287058  0  4.072751  0
C  C43  1  0.38240410  0.29886736  0.17936183  1  0.002947  0  -0.08547  -0.131057  0  3.958078  0
C  C44  1  0.27947695  0.17069086  0.35066743  1  -0.059114  0  -0.034446  -0.236978  0  3.910393  0
C  C45  1  0.20963660  0.33815504  0.15724623  1  -0.111464  0  -0.019432  -0.117706  0  3.963911  0
C  C46  1  0.34450145  0.25213405  0.24119994  1  -0.143411  0  -0.022942  0.011438  0  4.10698  0
C  C47  1  0.14366843  0.25730887  0.26567672  1  -0.171398  0  -0.0346  -0.147596  0  4.08186  0
S  S48  1  0.46808955  0.17313405  0.70371508  1  0.228113  0  0.090919  0.115135  0  2.875792  0
S  S49  1  0.01160208  0.32120425  0.80062671  1  0.228073  0  0.075841  0.120122  0  2.769139  0
S  S50  1  0.98031116  0.82363490  0.29294444  1  0.20512  0  0.079672  0.099067  0  2.869193  0
S  S51  1  0.50318251  0.67484932  0.20784527  1  0.237456  0  0.083134  0.13167  0  2.767428  0
S  S52  1  0.53513688  0.82707940  0.70407565  1  0.214929  0  0.086099  0.1081  0  2.85959  0
S  S53  1  0.97006154  0.67450843  0.79752821  1  0.237802  0  0.076156  0.122111  0  2.786639  0
S  S54  1  0.48575214  0.18803053  0.29421585  1  0.201322  0  0.076004  0.090508  0  2.869678  0
S  S55  1  0.00075413  0.31940814  0.21190922  1  0.223808  0  0.082032  0.127367  0  2.777125  0
O  O56  1  0.13572953  0.09909076  0.44632409  1  -1.256359  0  -0.236665  -0.590215  0  2.378198  0
O  O57  1  0.43389981  0.09219019  0.56502268  1  -1.255493  0  -0.237998  -0.589488  0  2.317381  0
O  O58  1  0.58613237  0.92792828  0.57813671  1  -1.244674  0  -0.235232  -0.574556  0  2.315315  0
O  O59  1  0.96178847  0.92722202  0.41911218  1  -1.251729  0  -0.246088  -0.597875  0  2.298434  0
O  O60  1  0.91521282  0.89854038  0.55498115  1  -1.24935  0  -0.231068  -0.573437  0  2.341567  0
O  O61  1  0.62259011  0.90871593  0.43989339  1  -1.25319  0  -0.235074  -0.586951  0  2.363564  0
O  O62  1  0.47177132  0.08453119  0.42430733  1  -1.253113  0  -0.246636  -0.594619  0  2.281035  0
O  O63  1  0.09691126  0.06147763  0.57982180  1  -1.234157  0  -0.223707  -0.554102  0  2.332964  0
O  O64  1  0.78555220  0.05833305  0.49946156  1  -1.43553  0  -0.448278  -0.987017  0  2.176882  0
O  O65  1  0.27836121  0.94207980  0.49574386  1  -1.445101  0  -0.447283  -0.986884  0  2.173845  0
O  O66  1  0.02914551  0.42345533  0.07908117  1  -1.245365  0  -0.236598  -0.577603  0  2.303197  0
O  O67  1  0.40149162  0.42203983  0.92618130  1  -1.25899  0  -0.240847  -0.594285  0  2.320397  0
O  O68  1  0.57565010  0.59633245  0.94125680  1  -1.25737  0  -0.242935  -0.601598  0  2.314919  0
O  O69  1  0.87745694  0.59103108  0.06401069  1  -1.255815  0  -0.236129  -0.583898  0  2.336247  0
O  O70  1  0.91470604  0.57981141  0.92711002  1  -1.256365  0  -0.244582  -0.603797  0  2.34904  0
O  O71  1  0.53868408  0.56923105  0.08017487  1  -1.254683  0  -0.236194  -0.580987  0  2.325957  0
O  O72  1  0.36424350  0.40403629  0.06109930  1  -1.260662  0  -0.23605  -0.585828  0  2.357045  0
O  O73  1  0.05844688  0.40876883  0.93667866  1  -1.259412  0  -0.245519  -0.610478  0  2.336377  0
O  O74  1  0.71811350  0.44142460  0.99987757  1  -1.433616  0  -0.447104  -0.98725  0  2.188419  0
O  O75  1  0.22642437  0.55700810  0.00141462  1  -1.429328  0  -0.447329  -0.987768  0  2.191153  0
O  O76  1  0.91823463  0.20834097  0.64942403  1  -1.121004  0  -0.329742  -0.387976  0  2.365573  0
O  O77  1  0.41522905  0.79248279  0.35656730  1  -1.108955  0  -0.328716  -0.392699  0  2.358175  0
O  O78  1  0.09130110  0.78030714  0.64403769  1  -1.10365  0  -0.325031  -0.379363  0  2.353549  0
O  O79  1  0.92711642  0.20608263  0.36365643  1  -1.123468  0  -0.324801  -0.385743  0  2.355419  0
