# generated using pymatgen
data_CuMo2PH12C13(NO5)2
_symmetry_space_group_name_H-M   'P 1'
_cell_length_a   7.93551766
_cell_length_b   10.51491368
_cell_length_c   12.81141433
_cell_angle_alpha   100.89134240
_cell_angle_beta   103.92502163
_cell_angle_gamma   110.54064960
_symmetry_Int_Tables_number   1
_chemical_formula_structural   CuMo2PH12C13(NO5)2
_chemical_formula_sum   'Cu2 Mo4 P2 H24 C26 N4 O20'
_cell_volume   926.62458137
_cell_formula_units_Z   2
loop_
 _symmetry_equiv_pos_site_id
 _symmetry_equiv_pos_as_xyz
  1  'x, y, z'
loop_
 _atom_site_type_symbol
 _atom_site_label
 _atom_site_symmetry_multiplicity
 _atom_site_fract_x
 _atom_site_fract_y
 _atom_site_fract_z
 _atom_site_occupancy
 _atom_site_hle17_ddec_charge
 _atom_site_hle17_ddec_spin_density
 _atom_site_hle17_ddec_sum_bond_order
 _atom_site_hle17_magmom
 _atom_site_hse06_10hf_ddec_charge
 _atom_site_hse06_10hf_ddec_spin_density
 _atom_site_hse06_10hf_ddec_sum_bond_order
 _atom_site_hse06_10hf_magmom
 _atom_site_hse06_ddec_charge
 _atom_site_hse06_ddec_spin_density
 _atom_site_hse06_ddec_sum_bond_order
 _atom_site_hse06_magmom
 _atom_site_pbe_cm5_charge
 _atom_site_pbe_ddec_charge
 _atom_site_pbe_ddec_spin_density
 _atom_site_pbe_ddec_sum_bond_order
 _atom_site_pbe_magmom
Cu  Cu0  1  0.38071651  0.83570724  0.29453243  1  0.973885  0.742695  1.760358  0.531  0.956437  0.819406  2.144419  0.646  1.041511  0.893257  2.071707  0.729  0.775107  0.905561  0.753939  2.190311  0.582
Cu  Cu1  1  0.61928342  0.16429323  0.70546679  1  0.973915  -0.742691  1.760346  -0.531  0.956502  -0.819397  2.144327  -0.646  1.041503  -0.893256  2.071681  -0.729  0.775147  0.90563  -0.753941  2.190219  -0.582
Mo  Mo2  1  0.52094704  0.53145415  0.38078010  1  2.209682  -0.002355  4.053882  -0.003  2.207104  -0.00142  4.618108  -0.002  2.309723  -0.001185  4.574592  -0.002  1.514999  2.131893  -0.001712  4.654272  -0.002
Mo  Mo3  1  0.47905737  0.46854740  0.61922074  1  2.209554  0.002271  4.053937  0.003  2.206977  0.001409  4.618176  0.002  2.309607  0.001189  4.574642  0.002  1.514941  2.131767  0.001712  4.654337  0.002
Mo  Mo4  1  0.71794158  0.81264764  0.68431690  1  2.2136  0.000854  4.081768  0.001  2.212915  0.000462  4.621185  0.001  2.306962  0.000372  4.591028  0.001  1.546809  2.144715  0.000756  4.647438  0.001
Mo  Mo5  1  0.28205905  0.18735177  0.31568382  1  2.213565  -0.000901  4.081835  -0.001  2.212901  -0.000487  4.621251  -0.001  2.306947  -0.000364  4.591095  -0.001  1.546795  2.144709  -0.000756  4.647478  -0.001
P  P6  1  0.74810079  0.03037723  0.51984152  1  1.523772  2e-05  4.752089  0.001  1.387393  -0.000261  5.250588  0.0  1.442616  -0.000198  5.212386  0.0  0.35343  1.347798  -0.000293  5.276745  0.0
P  P7  1  0.25190173  0.96962325  0.48015887  1  1.523736  -1.5e-05  4.752036  -0.001  1.387366  0.000266  5.250565  0.0  1.442587  0.000198  5.212377  0.0  0.353411  1.347767  0.000292  5.276718  0.0
H  H8  1  0.94383446  0.67958606  0.25949414  1  0.108273  0.001808  0.935679  0.003  0.116202  0.001257  0.995343  0.002  0.117772  0.000859  0.993101  0.002  0.125087  0.11481  0.001573  0.997109  0.003
H  H9  1  0.05616475  0.32041548  0.74050436  1  0.108247  -0.001808  0.935647  -0.003  0.116184  -0.001256  0.99531  -0.002  0.117751  -0.000859  0.993077  -0.002  0.125071  0.11479  -0.001573  0.997082  -0.003
H  H10  1  0.65143414  0.56393810  0.08770828  1  0.105428  0.000555  0.94127  0.001  0.118477  0.00055  0.995713  0.001  0.120586  0.000389  0.996429  0.0  0.111024  0.116977  0.000668  0.995404  0.001
H  H11  1  0.34856436  0.43606450  0.91229106  1  0.105466  -0.000556  0.941261  -0.001  0.118516  -0.00055  0.995696  -0.001  0.120624  -0.000389  0.996414  0.0  0.111061  0.117012  -0.000668  0.995386  -0.001
H  H12  1  0.68638235  0.54723508  0.89519122  1  0.113686  0.000455  0.940856  0.001  0.12413  2.5e-05  1.00178  0.0  0.126894  -1e-05  0.999046  0.0  0.110804  0.122053  7.4e-05  1.003877  0.0
H  H13  1  0.31361745  0.45276752  0.10480831  1  0.113725  -0.000452  0.940798  -0.001  0.124152  -2.4e-05  1.001739  0.0  0.126913  1e-05  0.999007  0.0  0.110836  0.122081  -7.4e-05  1.00384  0.0
H  H14  1  0.91341392  0.59390212  0.78118777  1  0.109164  0.000464  0.960784  0.001  0.117492  0.00028  1.023779  0.0  0.119532  0.000163  1.023258  0.0  0.107959  0.115952  0.000393  1.024225  0.001
H  H15  1  0.08658198  0.40610047  0.21881039  1  0.109167  -0.000468  0.960736  -0.001  0.117488  -0.000281  1.023737  0.0  0.119527  -0.000163  1.023216  0.0  0.107956  0.115953  -0.000393  1.024183  -0.001
H  H16  1  0.24429949  0.70092223  0.77820970  1  0.128928  0.000434  0.941799  0.001  0.140107  0.000265  0.996117  0.0  0.14271  0.000155  0.995076  0.0  0.112275  0.138092  0.000369  0.997103  0.001
H  H17  1  0.75569641  0.29908036  0.22178768  1  0.12894  -0.000436  0.941694  -0.001  0.1401  -0.000265  0.996034  0.0  0.142701  -0.000155  0.994995  0.0  0.112286  0.138092  -0.000369  0.997022  -0.001
H  H18  1  0.60234064  0.84136267  0.88990227  1  0.122099  0.000412  0.976637  0.001  0.133774  2.7e-05  1.034506  0.0  0.136451  -1.5e-05  1.032004  0.0  0.109379  0.131798  8.5e-05  1.036329  0.0
H  H19  1  0.39765726  0.15863886  0.11009759  1  0.122133  -0.000408  0.9766  -0.001  0.133805  -2.7e-05  1.034462  0.0  0.136482  1.5e-05  1.031959  0.0  0.109385  0.131805  -8.5e-05  1.036317  0.0
H  H20  1  0.85930139  0.96282617  0.07942023  1  0.118746  0.000588  0.933623  0.001  0.130504  0.000561  0.98703  0.001  0.13339  0.0004  0.986848  0.0  0.114944  0.128438  0.00068  0.987396  0.001
H  H21  1  0.14069475  0.03717216  0.92057887  1  0.118726  -0.000588  0.933555  -0.001  0.130484  -0.000562  0.98697  -0.001  0.133369  -0.0004  0.986788  0.0  0.114929  0.128417  -0.000681  0.987337  -0.001
H  H22  1  0.76914832  0.96325466  0.25319386  1  0.101428  0.001766  0.961119  0.003  0.109149  0.00122  1.022834  0.002  0.110873  0.000824  1.020435  0.002  0.121582  0.107624  0.001541  1.024752  0.003
H  H23  1  0.23084936  0.03673942  0.74680480  1  0.101444  -0.001764  0.961123  -0.003  0.109133  -0.00122  1.022857  -0.002  0.110862  -0.000824  1.020452  -0.002  0.121571  0.107609  -0.00154  1.024772  -0.003
H  H24  1  0.07591113  0.10528781  0.62021081  1  0.125162  0.000707  0.940888  0.001  0.138673  0.000536  1.001562  0.001  0.139999  0.000375  1.002299  0.0  0.108901  0.137868  0.000665  1.001001  0.001
H  H25  1  0.92408393  0.89470625  0.37979293  1  0.125203  -0.000703  0.940911  -0.001  0.138711  -0.000537  1.001602  -0.001  0.140039  -0.000374  1.002336  0.0  0.108882  0.137904  -0.000665  1.001042  -0.001
H  H26  1  0.04228320  0.15440706  0.49495040  1  0.147263  -6.5e-05  0.940147  0.0  0.159092  -2.4e-05  0.998927  0.0  0.161397  -1.7e-05  0.998593  0.0  0.111241  0.157487  -2.7e-05  0.999208  0.0
H  H27  1  0.95772639  0.84559449  0.50505824  1  0.147236  6.1e-05  0.940099  0.0  0.159099  2.3e-05  0.998867  0.0  0.161406  1.7e-05  0.998532  0.0  0.111214  0.157488  2.7e-05  0.999144  0.0
H  H28  1  0.32111821  0.71022272  0.55949440  1  0.434994  2.9e-05  0.80625  0.0  0.417413  2.9e-05  0.861232  0.0  0.426605  1.5e-05  0.850631  0.0  0.32005  0.410678  4.1e-05  0.869089  0.0
H  H29  1  0.67888417  0.28977988  0.44050864  1  0.434972  -2.8e-05  0.806312  0.0  0.417392  -2.9e-05  0.861289  0.0  0.426582  -1.5e-05  0.850693  0.0  0.320046  0.410657  -4.1e-05  0.869144  0.0
H  H30  1  0.37506855  0.86115813  0.63445325  1  0.426718  0.000133  0.87815  0.0  0.398831  7.3e-05  0.937426  0.0  0.410444  8.5e-05  0.920606  0.0  0.295597  0.390361  6.1e-05  0.949695  0.0
H  H31  1  0.62493255  0.13884447  0.36554725  1  0.42674  -0.000132  0.878114  0.0  0.398873  -7.2e-05  0.937358  0.0  0.410485  -8.5e-05  0.920538  0.0  0.295616  0.390405  -6.1e-05  0.949624  0.0
C  C32  1  0.95420730  0.67185511  0.17532366  1  0.156185  -0.009916  3.645368  -0.011  0.127211  -0.001265  3.904174  -0.003  0.13867  -0.002437  3.921651  -0.004  0.06754  0.119702  -0.000428  3.893054  -0.002
C  C33  1  0.04579451  0.32814643  0.82467679  1  0.156229  0.009939  3.645267  0.011  0.127255  0.001267  3.904106  0.003  0.138714  0.002437  3.921576  0.004  0.06758  0.11975  0.000428  3.892985  0.002
C  C34  1  0.79108266  0.60619842  0.07763004  1  -0.124984  0.012303  3.74356  0.013  -0.141034  0.004736  4.005442  0.006  -0.149519  0.004062  4.028096  0.005  -0.081508  -0.135882  0.005274  3.991013  0.006
C  C35  1  0.20892104  0.39380419  0.92237007  1  -0.125038  -0.01232  3.743595  -0.013  -0.141084  -0.004738  4.005492  -0.006  -0.14957  -0.004061  4.028143  -0.005  -0.081567  -0.135925  -0.005274  3.991062  -0.006
C  C36  1  0.80999930  0.59624133  0.97217718  1  -0.030477  -0.011115  3.649442  -0.01  -0.057896  -0.003241  3.901598  -0.003  -0.053184  -0.00339  3.917443  -0.003  -0.057204  -0.061055  -0.003158  3.891403  -0.003
C  C37  1  0.19000062  0.40375914  0.02782126  1  -0.030548  0.011123  3.649415  0.01  -0.05794  0.003242  3.901573  0.003  -0.053223  0.003389  3.917414  0.003  -0.057248  -0.061105  0.003158  3.89139  0.003
C  C38  1  0.99460045  0.65225011  0.96348453  1  0.035952  0.006581  3.762303  0.007  0.053349  0.002673  3.990535  0.003  0.050346  0.002171  4.014523  0.003  0.005033  0.055187  0.003084  3.97427  0.004
C  C39  1  0.00539451  0.34774610  0.03651406  1  0.035969  -0.006577  3.762222  -0.007  0.053356  -0.002674  3.990465  -0.003  0.050347  -0.002171  4.014458  -0.003  0.00509  0.055196  -0.003083  3.974207  -0.004
C  C40  1  0.15002304  0.71774591  0.06588823  1  0.126532  -0.00163  3.778159  -0.002  0.12233  0.001034  4.016221  0.0  0.127803  3.4e-05  4.038755  -0.001  0.11509  0.118848  0.001764  4.001306  0.001
C  C41  1  0.84997393  0.28224923  0.93411206  1  0.126549  0.001631  3.778109  0.002  0.12235  -0.001033  4.016222  0.0  0.127825  -3.2e-05  4.03875  0.001  0.115059  0.118874  -0.001764  4.001307  -0.001
C  C42  1  0.03370349  0.64641567  0.85952486  1  -0.081367  0.000918  3.70064  0.001  -0.104402  0.000674  3.953637  0.001  -0.107654  0.000497  3.977846  0.0  -0.076876  -0.102139  0.000838  3.93753  0.001
C  C43  1  0.96629396  0.35358268  0.14047209  1  -0.081393  -0.000914  3.700654  -0.001  -0.104403  -0.000671  3.953637  -0.001  -0.107653  -0.000498  3.977848  0.0  -0.076879  -0.102149  -0.000839  3.937553  -0.001
C  C44  1  0.21645691  0.70503336  0.85791778  1  -0.085774  0.001794  3.68035  0.002  -0.106887  0.000822  3.930117  0.001  -0.110993  0.000683  3.954163  0.001  -0.073829  -0.104205  0.000982  3.914504  0.001
C  C45  1  0.78353983  0.29496605  0.14207846  1  -0.085762  -0.001792  3.68032  -0.002  -0.106867  -0.000824  3.930084  -0.001  -0.110974  -0.000681  3.954133  -0.001  -0.073841  -0.104187  -0.000982  3.914476  -0.001
C  C46  1  0.37538218  0.77444478  0.96093942  1  0.028047  0.005849  3.79347  0.006  0.043142  0.002494  4.027213  0.003  0.039791  0.001997  4.052509  0.002  0.00161  0.045135  0.002891  4.010575  0.003
C  C47  1  0.62461728  0.22555250  0.03906001  1  0.028006  -0.005839  3.79347  -0.006  0.04311  -0.002495  4.027212  -0.003  0.039758  -0.001997  4.052511  -0.002  0.001619  0.045105  -0.002892  4.010568  -0.003
C  C48  1  0.34022270  0.77938355  0.06442463  1  0.123075  -0.001196  3.787568  -0.002  0.118305  0.001015  4.027326  0.0  0.123535  4.7e-05  4.050518  -0.001  0.113618  0.114874  0.001739  4.012183  0.001
C  C49  1  0.65977416  0.22061373  0.93557207  1  0.123088  0.001202  3.787647  0.002  0.118306  -0.001016  4.027441  0.0  0.123534  -4.8e-05  4.050629  0.001  0.113601  0.114875  -0.001739  4.012295  -0.001
C  C50  1  0.56767086  0.84120543  0.96704897  1  -0.031994  -0.010421  3.633967  -0.01  -0.057517  -0.00318  3.877181  -0.003  -0.053145  -0.003319  3.893451  -0.003  -0.057854  -0.060282  -0.003089  3.866561  -0.003
C  C51  1  0.43232151  0.15879078  0.03294611  1  -0.032013  0.01039  3.634184  0.01  -0.057524  0.003181  3.877374  0.003  -0.053153  0.003318  3.893649  0.003  -0.057836  -0.060277  0.003088  3.866771  0.003
C  C52  1  0.70970657  0.90863229  0.07128911  1  -0.108187  0.011871  3.7068  0.013  -0.121693  0.004776  3.960797  0.006  -0.130158  0.004047  3.98218  0.005  -0.076331  -0.116519  0.005345  3.947163  0.007
C  C53  1  0.29029465  0.09136818  0.92871187  1  -0.108158  -0.011852  3.706965  -0.013  -0.121669  -0.004776  3.960943  -0.006  -0.130135  -0.004046  3.982331  -0.005  -0.076367  -0.116493  -0.005345  3.947299  -0.007
C  C54  1  0.66162968  0.90810131  0.16994496  1  0.155708  -0.008668  3.645458  -0.01  0.125655  -0.000899  3.903257  -0.002  0.137291  -0.002071  3.920058  -0.003  0.061653  0.118024  -4.1e-05  3.892501  -0.001
C  C55  1  0.33836731  0.09189385  0.83005142  1  0.15563  0.008674  3.645397  0.01  0.125621  0.0009  3.903169  0.002  0.137253  0.002071  3.919964  0.003  0.061704  0.117993  4.1e-05  3.892408  0.001
C  C56  1  0.99133141  0.06633081  0.53006742  1  -0.396112  0.001419  3.70049  0.001  -0.416762  0.000915  3.94493  0.001  -0.426845  0.000609  3.956044  0.001  -0.163173  -0.40962  0.001199  3.936948  0.001
C  C57  1  0.00866909  0.93367073  0.46993439  1  -0.396176  -0.001412  3.700433  -0.001  -0.416892  -0.000911  3.944891  -0.001  -0.426979  -0.000611  3.956004  -0.001  -0.163136  -0.409734  -0.001199  3.936901  -0.001
N  N58  1  0.12853332  0.72671392  0.16876008  1  -0.313977  0.09216  3.309531  0.115  -0.276888  0.061153  3.60593  0.082  -0.308562  0.049856  3.626873  0.07  -0.332923  -0.257726  0.066952  3.592994  0.086
N  N59  1  0.87146744  0.27328337  0.83123876  1  -0.313998  -0.092178  3.309506  -0.115  -0.276951  -0.061157  3.605955  -0.082  -0.308606  -0.049861  3.626884  -0.07  -0.332925  -0.257785  -0.06695  3.593022  -0.086
N  N60  1  0.48178611  0.84400082  0.16606238  1  -0.322913  0.088999  3.319335  0.11  -0.285489  0.05963  3.618136  0.079  -0.317203  0.049005  3.638428  0.068  -0.340501  -0.26618  0.064909  3.605262  0.083
N  N61  1  0.51821594  0.15599647  0.83393666  1  -0.322847  -0.089005  3.319419  -0.11  -0.28544  -0.059632  3.618222  -0.079  -0.317138  -0.049006  3.638507  -0.068  -0.34053  -0.266132  -0.064909  3.605348  -0.083
O  O62  1  0.67435758  0.89809532  0.56147713  1  -0.850176  -0.000765  2.173087  -0.001  -0.800611  -0.000124  2.471337  0.0  -0.83321  4.2e-05  2.457375  0.0  -0.404072  -0.776863  -0.000285  2.480936  -0.001
O  O63  1  0.32564540  0.10190835  0.43852461  1  -0.850173  0.000758  2.173043  0.001  -0.800608  0.000122  2.471282  0.0  -0.833212  -4.1e-05  2.457325  0.0  -0.404091  -0.776856  0.000285  2.480882  0.001
O  O64  1  0.63121527  0.98952621  0.39395346  1  -0.834582  0.054331  2.075978  0.071  -0.771926  0.036989  2.358498  0.052  -0.811317  0.029318  2.336689  0.043  -0.371667  -0.74384  0.041335  2.372547  0.056
O  O65  1  0.36878451  0.01047638  0.60604919  1  -0.83452  -0.054328  2.075946  -0.071  -0.771875  -0.036992  2.358462  -0.052  -0.811246  -0.02932  2.336646  -0.043  -0.371626  -0.743821  -0.041334  2.372594  -0.056
O  O66  1  0.74450445  0.16301911  0.59156376  1  -0.807851  -0.062796  1.996135  -0.081  -0.763698  -0.03908  2.289298  -0.054  -0.803557  -0.030831  2.268287  -0.044  -0.380976  -0.735336  -0.043244  2.302873  -0.058
O  O67  1  0.25549358  0.83698030  0.40843345  1  -0.807805  0.062803  1.996142  0.081  -0.76364  0.039079  2.289327  0.054  -0.803517  0.03083  2.268319  0.044  -0.38093  -0.735273  0.043245  2.302895  0.058
O  O68  1  0.41688858  0.63013172  0.31725722  1  -0.759688  -0.000339  1.4937  0.001  -0.768749  -0.000505  1.780215  0.001  -0.798393  -0.000586  1.760463  0.001  -0.541044  -0.74868  -0.000404  1.795229  0.001
O  O69  1  0.58313167  0.36987733  0.68274405  1  -0.75962  0.000365  1.493663  -0.001  -0.768675  0.000507  1.780167  -0.001  -0.798313  0.000587  1.760417  -0.001  -0.541004  -0.748605  0.000404  1.795178  -0.001
O  O70  1  0.74613944  0.58054551  0.37262502  1  -0.689579  -1e-05  1.359557  0.0  -0.677513  -7.6e-05  1.580887  0.0  -0.701408  -7.7e-05  1.567663  0.0  -0.523089  -0.660945  -4.2e-05  1.591432  0.0
O  O71  1  0.25386568  0.41944327  0.62738018  1  -0.689538  4.6e-05  1.35952  0.0  -0.677493  8e-05  1.580873  0.0  -0.70139  7e-05  1.567649  0.0  -0.523097  -0.66093  4.2e-05  1.59142  0.0
O  O72  1  0.56445896  0.62382652  0.53690225  1  -1.039358  -0.000163  1.889144  0.0  -1.026508  -6.4e-05  2.202038  0.0  -1.070166  -2.4e-05  2.192751  0.0  -0.624383  -0.993655  -8.7e-05  2.208034  0.0
O  O73  1  0.43554058  0.37618033  0.46310103  1  -1.039328  0.000172  1.889165  0.0  -1.026486  6.4e-05  2.202073  0.0  -1.070145  2.4e-05  2.192779  0.0  -0.624399  -0.993642  8.7e-05  2.208076  0.0
O  O74  1  0.37658382  0.34994912  0.26333251  1  -0.901259  -0.000157  1.684283  0.0  -0.897465  -0.000111  1.975774  0.0  -0.938527  -7.9e-05  1.96941  0.0  -0.587418  -0.866921  -8.8e-05  1.980254  0.0
O  O75  1  0.62341063  0.65005558  0.73667045  1  -0.901249  0.000149  1.684231  0.0  -0.897471  0.000115  1.975759  0.0  -0.938547  8.1e-05  1.969421  0.0  -0.587419  -0.866927  8.8e-05  1.980242  0.0
O  O76  1  0.94457511  0.82966150  0.69435975  1  -0.679692  -1.6e-05  1.424925  0.0  -0.677823  -2.6e-05  1.663851  0.0  -0.702054  -3.7e-05  1.656529  0.0  -0.511053  -0.660957  -8.7e-05  1.669831  0.0
O  O77  1  0.05542187  0.17033365  0.30563820  1  -0.679658  6.8e-05  1.424936  0.0  -0.677801  3.8e-05  1.66386  0.0  -0.702029  2.3e-05  1.656536  0.0  -0.511042  -0.660936  8.7e-05  1.669838  0.0
O  O78  1  0.75083096  0.95062209  0.79542968  1  -0.712797  0.000133  1.445095  -0.001  -0.724021  0.000418  1.70043  0.0  -0.748943  0.000446  1.691  0.0  -0.524337  -0.706707  0.000284  1.70831  0.0
O  O79  1  0.24917357  0.04937733  0.20457085  1  -0.712802  -0.000147  1.445127  0.001  -0.724049  -0.000414  1.700482  0.0  -0.74898  -0.000439  1.691065  0.0  -0.524321  -0.706728  -0.000284  1.708351  0.0
O  O80  1  0.38144181  0.76872377  0.63834985  1  -0.817599  -7.9e-05  1.866809  0.0  -0.780811  1.5e-05  2.046836  0.0  -0.800038  4.3e-05  2.019987  0.0  -0.575516  -0.76637  -1.5e-05  2.065915  0.0
O  O81  1  0.61855856  0.23127989  0.36165461  1  -0.817577  7.4e-05  1.866801  0.0  -0.780806  -1.6e-05  2.046817  0.0  -0.80003  -4.1e-05  2.019967  0.0  -0.575521  -0.766367  1.5e-05  2.06589  0.0
