# generated using pymatgen
data_K2H52PdC44S4(NO3)4
_symmetry_space_group_name_H-M   'P 1'
_cell_length_a   8.96395623
_cell_length_b   12.53952641
_cell_length_c   12.88311549
_cell_angle_alpha   115.27847808
_cell_angle_beta   103.47962418
_cell_angle_gamma   96.39190959
_symmetry_Int_Tables_number   1
_chemical_formula_structural   K2H52PdC44S4(NO3)4
_chemical_formula_sum   'K2 H52 Pd1 C44 S4 N4 O12'
_cell_volume   1236.21773477
_cell_formula_units_Z   1
loop_
 _symmetry_equiv_pos_site_id
 _symmetry_equiv_pos_as_xyz
  1  'x, y, z'
loop_
 _atom_site_type_symbol
 _atom_site_label
 _atom_site_symmetry_multiplicity
 _atom_site_fract_x
 _atom_site_fract_y
 _atom_site_fract_z
 _atom_site_occupancy
 _atom_site_hle17_bader_spin_density
 _atom_site_hle17_ddec_charge
 _atom_site_hle17_ddec_spin_density
 _atom_site_hle17_ddec_sum_bond_order
 _atom_site_hle17_magmom
 _atom_site_hse06_10hf_bader_spin_density
 _atom_site_hse06_10hf_ddec_charge
 _atom_site_hse06_10hf_ddec_spin_density
 _atom_site_hse06_10hf_ddec_sum_bond_order
 _atom_site_hse06_10hf_magmom
 _atom_site_hse06_bader_spin_density
 _atom_site_hse06_ddec_charge
 _atom_site_hse06_ddec_spin_density
 _atom_site_hse06_ddec_sum_bond_order
 _atom_site_hse06_magmom
 _atom_site_pbe_bader_spin_density
 _atom_site_pbe_cm5_charge
 _atom_site_pbe_ddec_charge
 _atom_site_pbe_ddec_spin_density
 _atom_site_pbe_ddec_sum_bond_order
 _atom_site_pbe_magmom
K  K0  1  0.99202561  0.17861112  0.11798085  1  0  0.9005  0  0.542645  0  0  0.826364  0  0.7491  0  0  0.844705  0  0.726236  0  0  0.891811  0.812842  0  0.765378  0
K  K1  1  0.00797729  0.82138638  0.88201256  1  0  0.900529  0  0.542599  0  0  0.826382  0  0.749071  0  0  0.844725  0  0.726204  0  0  0.891812  0.812864  0  0.765348  0
H  H2  1  0.58765444  0.44449581  0.33896859  1  0  0.109286  0  0.980086  0  0  0.117454  0  1.049446  0  0  0.120054  0  1.048841  0  0  0.099971  0.115596  0  1.049952  0
H  H3  1  0.41234960  0.55550621  0.66104085  1  0  0.109247  0  0.980133  0  0  0.117409  0  1.049492  0  0  0.120007  0  1.048889  0  0  0.099943  0.115548  0  1.050002  0
H  H4  1  0.85763241  0.47302400  0.46413061  1  0  0.091965  0  0.962254  0  0  0.105304  0  1.022102  0  0  0.107843  0  1.020724  0  0  0.101255  0.103489  0  1.023148  0
H  H5  1  0.14236094  0.52697262  0.53586544  1  0  0.091871  0  0.962414  0  0  0.105264  0  1.022207  0  0  0.1078  0  1.020829  0  0  0.101246  0.103448  0  1.023255  0
H  H6  1  0.04060151  0.42621533  0.60805809  1  0  0.08005  0  0.975631  0  0  0.090703  0  1.039717  0  0  0.093253  0  1.038635  0  0  0.092493  0.088834  0  1.040658  0
H  H7  1  0.95940315  0.57378035  0.39193253  1  0  0.079977  0  0.975709  0  0  0.090646  0  1.039762  0  0  0.093196  0  1.038682  0  0  0.092463  0.08878  0  1.0407  0
H  H8  1  0.93678029  0.28946273  0.68069978  1  0  0.083681  0  0.974145  0  0  0.094351  0  1.038951  0  0  0.09683  0  1.03818  0  0  0.094162  0.092509  0  1.039673  0
H  H9  1  0.06323342  0.71054019  0.31930160  1  0  0.083679  0  0.974238  0  0  0.094386  0  1.038987  0  0  0.096865  0  1.038215  0  0  0.094174  0.092537  0  1.039716  0
H  H10  1  0.64468623  0.21218043  0.62473261  1  0  0.084378  0  0.964698  0  0  0.095467  0  1.025735  0  0  0.098805  0  1.023634  0  0  0.093202  0.093028  0  1.027389  0
H  H11  1  0.35532959  0.78782248  0.37527767  1  0  0.0844  0  0.96469  0  0  0.095491  0  1.025725  0  0  0.098833  0  1.023618  0  0  0.093203  0.093052  0  1.027379  0
H  H12  1  0.37321711  0.20768264  0.52278369  1  0  0.116883  0  0.979637  0  0  0.12629  0  1.044959  0  0  0.12913  0  1.043856  0  0  0.102862  0.1243  0  1.045754  0
H  H13  1  0.62678015  0.79231578  0.47721844  1  0  0.116925  0  0.979625  0  0  0.126296  0  1.044982  0  0  0.129132  0  1.043885  0  0  0.102873  0.124304  0  1.045777  0
H  H14  1  0.11001937  0.22733010  0.50700520  1  0  0.076779  0  0.93593  0  0  0.089697  0  1.001074  0  0  0.089166  0  1.001585  0  0  0.108006  0.090052  0  1.000739  0
H  H15  1  0.88997682  0.77266468  0.49299136  1  0  0.07679  0  0.936043  0  0  0.089711  0  1.001174  0  0  0.089183  0  1.00169  0  0  0.107996  0.090067  0  1.000835  0
H  H16  1  0.14311909  0.09463458  0.39727705  1  0  0.063553  0  0.923679  0  0  0.079815  0  0.983597  0  0  0.080022  0  0.982701  0  0  0.108239  0.079488  0  0.984484  0
H  H17  1  0.85688002  0.90536202  0.60271843  1  0  0.063584  0  0.923658  0  0  0.079831  0  0.983589  0  0  0.080051  0  0.982685  0  0  0.108241  0.079504  0  0.984482  0
H  H18  1  0.85831710  0.08054665  0.38705769  1  0  0.068491  0  0.914974  0  0  0.08398  0  0.974534  0  0  0.083845  0  0.974804  0  0  0.104638  0.084003  0  0.974444  0
H  H19  1  0.14168030  0.91945177  0.61293748  1  0  0.06846  0  0.915007  0  0  0.083957  0  0.974556  0  0  0.08382  0  0.97482  0  0  0.104627  0.083995  0  0.974447  0
H  H20  1  0.85897374  0.20201574  0.34855502  1  0  0.057409  0  0.945951  0  0  0.069901  0  1.012841  0  0  0.069834  0  1.013971  0  0  0.101847  0.069895  0  1.012148  0
H  H21  1  0.14102599  0.79798268  0.65143899  1  0  0.057352  0  0.946019  0  0  0.06987  0  1.012885  0  0  0.06978  0  1.014031  0  0  0.101829  0.069863  0  1.012193  0
H  H22  1  0.68009515  0.07608700  0.14589815  1  0  0.045734  0  0.959756  0  0  0.055497  0  1.038459  0  0  0.056492  0  1.036889  0  0  0.097194  0.054683  0  1.039737  0
H  H23  1  0.31990487  0.92391232  0.85409628  1  0  0.045733  0  0.959766  0  0  0.055507  0  1.038455  0  0  0.056498  0  1.03689  0  0  0.0972  0.054694  0  1.039729  0
H  H24  1  0.65780217  0.96267763  0.19437393  1  0  0.0557  0  0.944994  0  0  0.071568  0  1.008878  0  0  0.071013  0  1.010085  0  0  0.097651  0.071859  0  1.008158  0
H  H25  1  0.34219497  0.03732352  0.80562154  1  0  0.055716  0  0.944959  0  0  0.071602  0  1.008832  0  0  0.071048  0  1.010042  0  0  0.097649  0.071896  0  1.008114  0
H  H26  1  0.77172865  0.83207095  0.03440361  1  0  0.080782  0  0.956482  0  0  0.089191  0  1.024615  0  0  0.090752  0  1.023129  0  0  0.110519  0.087913  0  1.025888  0
H  H27  1  0.22826734  0.16792657  0.96559016  1  0  0.080713  0  0.956368  0  0  0.089161  0  1.024524  0  0  0.090723  0  1.023039  0  0  0.110523  0.087902  0  1.025779  0
H  H28  1  0.58141422  0.85113831  0.97837934  1  0  0.060019  0  0.944234  0  0  0.07099  0  1.016915  0  0  0.07062  0  1.017568  0  0  0.100022  0.071173  0  1.016584  0
H  H29  1  0.41858320  0.14886375  0.02161656  1  0  0.059941  0  0.944187  0  0  0.070962  0  1.016875  0  0  0.070589  0  1.017539  0  0  0.100016  0.071145  0  1.016545  0
H  H30  1  0.60043057  0.04084582  0.93984718  1  0  0.055323  0  0.939607  0  0  0.070774  0  1.007015  0  0  0.07087  0  1.007045  0  0  0.103483  0.07059  0  1.00716  0
H  H31  1  0.39956650  0.95915533  0.06015139  1  0  0.055312  0  0.939554  0  0  0.070767  0  1.00697  0  0  0.070863  0  1.007002  0  0  0.103496  0.070582  0  1.007116  0
H  H32  1  0.55751157  0.88988776  0.81676614  1  0  0.05921  0  0.928507  0  0  0.073442  0  0.993651  0  0  0.072988  0  0.99477  0  0  0.103421  0.073653  0  0.993038  0
H  H33  1  0.44248432  0.11011339  0.18323378  1  0  0.059207  0  0.928457  0  0  0.073427  0  0.993612  0  0  0.072978  0  0.994725  0  0  0.103419  0.073638  0  0.993  0
H  H34  1  0.78949630  0.96116717  0.76186281  1  0  0.053809  0  0.966223  0  0  0.06236  0  1.041525  0  0  0.063473  0  1.040631  0  0  0.103491  0.061441  0  1.042338  0
H  H35  1  0.21049706  0.03883308  0.23813398  1  0  0.053794  0  0.966255  0  0  0.062348  0  1.041529  0  0  0.063464  0  1.040632  0  0  0.103481  0.061426  0  1.042346  0
H  H36  1  0.62898915  0.03215847  0.74731163  1  0  0.052635  0  0.911362  0  0  0.069558  0  0.972082  0  0  0.069491  0  0.971833  0  0  0.099648  0.069502  0  0.972357  0
H  H37  1  0.37100792  0.96784631  0.25268844  1  0  0.052637  0  0.911343  0  0  0.069549  0  0.972065  0  0  0.069476  0  0.971829  0  0  0.099659  0.069496  0  0.972336  0
H  H38  1  0.80072255  0.20344660  0.77103990  1  0  0.046437  0  0.954995  0  0  0.060477  0  1.024338  0  0  0.059674  0  1.025232  0  0  0.097541  0.060981  0  1.023769  0
H  H39  1  0.19927336  0.79655092  0.22895774  1  0  0.046448  0  0.955019  0  0  0.060519  0  1.024345  0  0  0.059714  0  1.025239  0  0  0.09756  0.061022  0  1.023777  0
H  H40  1  0.97698028  0.15020906  0.79640164  1  0  0.06784  0  0.918972  0  0  0.079029  0  0.984649  0  0  0.080509  0  0.982897  0  0  0.104011  0.077813  0  0.986097  0
H  H41  1  0.02301735  0.84979027  0.20359705  1  0  0.067845  0  0.918995  0  0  0.07905  0  0.984682  0  0  0.08053  0  0.982928  0  0  0.104015  0.077838  0  0.986122  0
H  H42  1  0.02784168  0.37819886  0.89399874  1  0  0.044744  0  0.959533  0  0  0.054839  0  1.036246  0  0  0.054603  0  1.037104  0  0  0.090687  0.05491  0  1.035781  0
H  H43  1  0.97215544  0.62179866  0.10599600  1  0  0.044736  0  0.959548  0  0  0.05484  0  1.03627  0  0  0.054604  0  1.037127  0  0  0.090713  0.054912  0  1.035801  0
H  H44  1  0.89752686  0.37321147  0.97963845  1  0  0.049321  0  0.944475  0  0  0.060756  0  1.016568  0  0  0.06091  0  1.016762  0  0  0.094435  0.060488  0  1.016691  0
H  H45  1  0.10246911  0.62678968  0.02035760  1  0  0.049343  0  0.944405  0  0  0.060775  0  1.01653  0  0  0.060929  0  1.016725  0  0  0.094481  0.06051  0  1.016652  0
H  H46  1  0.10444842  0.48014998  0.17166120  1  0  0.055926  0  0.941964  0  0  0.068384  0  1.009264  0  0  0.068525  0  1.009997  0  0  0.100013  0.06821  0  1.008866  0
H  H47  1  0.89554804  0.51984935  0.82833806  1  0  0.055867  0  0.941961  0  0  0.068316  0  1.009253  0  0  0.068457  0  1.009988  0  0  0.099981  0.068145  0  1.00886  0
H  H48  1  0.23235591  0.50102686  0.09006169  1  0  0.043734  0  0.969635  0  0  0.048429  0  1.057153  0  0  0.049711  0  1.054633  0  0  0.083295  0.047327  0  1.059142  0
H  H49  1  0.76763828  0.49897247  0.90993641  1  0  0.043717  0  0.969633  0  0  0.048399  0  1.05714  0  0  0.04968  0  1.054621  0  0  0.083275  0.047293  0  1.059136  0
H  H50  1  0.40043522  0.37994218  0.15504844  1  0  0.060185  0  0.94277  0  0  0.067874  0  1.019193  0  0  0.068279  0  1.018074  0  0  0.096495  0.067472  0  1.020127  0
H  H51  1  0.59956328  0.62005987  0.84495075  1  0  0.060166  0  0.942753  0  0  0.067843  0  1.019169  0  0  0.068253  0  1.018054  0  0  0.096492  0.067444  0  1.020094  0
H  H52  1  0.39634031  0.52034573  0.27479254  1  0  0.066121  0  0.946348  0  0  0.078606  0  1.012735  0  0  0.07753  0  1.014831  0  0  0.102769  0.079328  0  1.011341  0
H  H53  1  0.60365737  0.47965724  0.72520533  1  0  0.066133  0  0.94638  0  0  0.078606  0  1.012762  0  0  0.077535  0  1.01486  0  0  0.102744  0.079327  0  1.011372  0
Pd  Pd54  1  0.50000449  0.50000076  0.00000485  1  0  0.188289  0  2.829867  0  0  0.177208  0  3.393008  0  0  0.19204  0  3.364533  0  0  0.511947  0.169164  0  3.412891  0
C  C55  1  0.37909823  0.34808272  0.34510806  1  0  0.187167  0  3.800615  0  0  0.175166  0  4.064228  0  0  0.183694  0  4.079636  0  0  0.076104  0.169142  0  4.053877  0
C  C56  1  0.62090509  0.65192023  0.65489543  1  0  0.187117  0  3.800792  0  0  0.175166  0  4.064308  0  0  0.183698  0  4.079706  0  0  0.076138  0.169138  0  4.053968  0
C  C57  1  0.53982569  0.39157428  0.37734505  1  0  -0.237525  0  3.760326  0  0  -0.269284  0  4.018828  0  0  -0.274309  0  4.039911  0  0  -0.111692  -0.265767  0  4.004624  0
C  C58  1  0.46017468  0.60842686  0.62266106  1  0  -0.23743  0  3.760302  0  0  -0.26921  0  4.018752  0  0  -0.274237  0  4.039842  0  0  -0.111651  -0.26569  0  4.004549  0
C  C59  1  0.64653193  0.36888296  0.46168121  1  0  0.067516  0  3.807077  0  0  0.084126  0  4.034705  0  0  0.084173  0  4.058489  0  0  -0.013592  0.084013  0  4.018736  0
C  C60  1  0.35346617  0.63111454  0.53832146  1  0  0.067351  0  3.807039  0  0  0.084037  0  4.034655  0  0  0.08408  0  4.058439  0  0  -0.013671  0.083927  0  4.018682  0
C  C61  1  0.81198989  0.41572252  0.49926312  1  0  -0.100082  0  3.71858  0  0  -0.123988  0  3.972488  0  0  -0.123685  0  3.989126  0  0  -0.08986  -0.124182  0  3.961321  0
C  C62  1  0.18800595  0.58427499  0.50073761  1  0  -0.099989  0  3.718559  0  0  -0.123962  0  3.972461  0  0  -0.12365  0  3.989088  0  0  -0.089853  -0.124161  0  3.961296  0
C  C63  1  0.91342792  0.38937763  0.57872118  1  0  -0.081619  0  3.797557  0  0  -0.100987  0  4.061039  0  0  -0.10205  0  4.079969  0  0  -0.100235  -0.100255  0  4.048273  0
C  C64  1  0.08657603  0.61061986  0.42127705  1  0  -0.081547  0  3.797503  0  0  -0.100932  0  4.061035  0  0  -0.101995  0  4.079957  0  0  -0.100238  -0.100209  0  4.048274  0
C  C65  1  0.85388021  0.31310909  0.62213044  1  0  -0.089178  0  3.8131  0  0  -0.103214  0  4.064419  0  0  -0.104349  0  4.085378  0  0  -0.102859  -0.102362  0  4.050227  0
C  C66  1  0.14612825  0.68689202  0.37787318  1  0  -0.089246  0  3.813194  0  0  -0.103297  0  4.064466  0  0  -0.104434  0  4.08543  0  0  -0.102884  -0.102438  0  4.050268  0
C  C67  1  0.69275197  0.26911924  0.58988723  1  0  -0.128495  0  3.762399  0  0  -0.143602  0  4.003842  0  0  -0.145874  0  4.023735  0  0  -0.099232  -0.142046  0  3.990419  0
C  C68  1  0.30725791  0.73087914  0.41011627  1  0  -0.128515  0  3.762464  0  0  -0.143611  0  4.003938  0  0  -0.145883  0  4.023832  0  0  -0.099201  -0.142054  0  3.990508  0
C  C69  1  0.58532757  0.29740836  0.51116600  1  0  0.064609  0  3.822979  0  0  0.082042  0  4.046485  0  0  0.082358  0  4.070808  0  0  -0.016961  0.081798  0  4.030054  0
C  C70  1  0.41467506  0.70258913  0.48883977  1  0  0.064829  0  3.822803  0  0  0.082168  0  4.046386  0  0  0.082486  0  4.070707  0  0  -0.016885  0.081922  0  4.029955  0
C  C71  1  0.41896760  0.25692291  0.48019818  1  0  -0.255795  0  3.762682  0  0  -0.284954  0  4.016301  0  0  -0.28994  0  4.036023  0  0  -0.117771  -0.28149  0  4.002972  0
C  C72  1  0.58103338  0.74307641  0.51980496  1  0  -0.255924  0  3.762426  0  0  -0.285036  0  4.016097  0  0  -0.290022  0  4.035818  0  0  -0.117815  -0.281568  0  4.002769  0
C  C73  1  0.31742086  0.28090030  0.39893464  1  0  0.181619  0  3.809995  0  0  0.170283  0  4.075218  0  0  0.179047  0  4.090595  0  0  0.075302  0.16415  0  4.064887  0
C  C74  1  0.68258242  0.71909900  0.60106888  1  0  0.181738  0  3.809977  0  0  0.170384  0  4.075165  0  0  0.179149  0  4.090539  0  0  0.07532  0.16425  0  4.064841  0
C  C75  1  0.08789809  0.17157016  0.40960666  1  0  0.061471  0  3.616965  0  0  -0.000667  0  3.886703  0  0  0.007363  0  3.890814  0  0  -0.068193  -0.006029  0  3.883788  0
C  C76  1  0.91209987  0.82842644  0.59038863  1  0  0.061354  0  3.617129  0  0  -0.000808  0  3.886877  0  0  0.007199  0  3.891001  0  0  -0.068218  -0.006181  0  3.883988  0
C  C77  1  0.91331945  0.12593533  0.34360541  1  0  0.050346  0  3.661565  0  0  -0.008985  0  3.932208  0  0  -0.003044  0  3.938863  0  0  -0.078539  -0.012991  0  3.92761  0
C  C78  1  0.08667911  0.87406309  0.65638918  1  0  0.050518  0  3.661579  0  0  -0.008797  0  3.932197  0  0  -0.002824  0  3.938844  0  0  -0.078452  -0.012811  0  3.927593  0
C  C79  1  0.72546146  0.99917454  0.15034459  1  0  0.033187  0  3.690385  0  0  -0.027534  0  3.961549  0  0  -0.021313  0  3.967969  0  0  -0.089627  -0.031668  0  3.957094  0
C  C80  1  0.27453593  0.00082388  0.84965135  1  0  0.032996  0  3.69039  0  0  -0.027701  0  3.961667  0  0  -0.021482  0  3.968092  0  0  -0.089689  -0.031845  0  3.957225  0
C  C81  1  0.70699041  0.89874817  0.02594354  1  0  0.037711  0  3.646232  0  0  -0.01724  0  3.914098  0  0  -0.011098  0  3.919459  0  0  -0.082038  -0.021337  0  3.910412  0
C  C82  1  0.29300842  0.10125116  0.97405224  1  0  0.038037  0  3.645757  0  0  -0.017077  0  3.913868  0  0  -0.010928  0  3.919206  0  0  -0.081988  -0.021177  0  3.91017  0
C  C83  1  0.65196852  0.97228358  0.88134899  1  0  0.052875  0  3.666419  0  0  -0.005799  0  3.937758  0  0  0.000509  0  3.943906  0  0  -0.075714  -0.010063  0  3.933591  0
C  C84  1  0.34802914  0.02771938  0.11864965  1  0  0.05294  0  3.666171  0  0  -0.005724  0  3.937518  0  0  0.000579  0  3.943668  0  0  -0.075743  -0.009991  0  3.933353  0
C  C85  1  0.72473074  0.02311244  0.81272425  1  0  0.058597  0  3.68454  0  0  -0.00214  0  3.961587  0  0  0.004227  0  3.967127  0  0  -0.074691  -0.006338  0  3.957708  0
C  C86  1  0.27526521  0.97688872  0.18727335  1  0  0.058529  0  3.684624  0  0  -0.00216  0  3.961616  0  0  0.004201  0  3.967162  0  0  -0.07469  -0.006361  0  3.957737  0
C  C87  1  0.89567877  0.19918005  0.84015807  1  0  0.056569  0  3.665035  0  0  -0.001573  0  3.934961  0  0  0.004872  0  3.940547  0  0  -0.075273  -0.005838  0  3.93104  0
C  C88  1  0.10431741  0.80081838  0.15984077  1  0  0.056528  0  3.665024  0  0  -0.001691  0  3.935071  0  0  0.004757  0  3.940647  0  0  -0.075318  -0.005957  0  3.931143  0
C  C89  1  0.98065771  0.32709644  0.93580167  1  0  0.059518  0  3.662395  0  0  0.001604  0  3.928457  0  0  0.00754  0  3.935455  0  0  -0.077912  -0.002387  0  3.923648  0
C  C90  1  0.01933735  0.67290199  0.06419543  1  0  0.059569  0  3.662214  0  0  0.001651  0  3.92835  0  0  0.007588  0  3.935341  0  0  -0.077939  -0.002344  0  3.923546  0
C  C91  1  0.18657190  0.43991674  0.12283237  1  0  0.05095  0  3.674668  0  0  -0.009304  0  3.94767  0  0  -0.002884  0  3.95266  0  0  -0.083851  -0.013572  0  3.944211  0
C  C92  1  0.81342258  0.56008350  0.87716615  1  0  0.051068  0  3.674661  0  0  -0.009087  0  3.947507  0  0  -0.002661  0  3.952506  0  0  -0.083767  -0.013354  0  3.944048  0
C  C93  1  0.32557267  0.42894140  0.20606959  1  0  0.06131  0  3.627711  0  0  0.001081  0  3.895425  0  0  0.008824  0  3.900294  0  0  -0.072958  -0.004141  0  3.891971  0
C  C94  1  0.67442469  0.57106065  0.79392940  1  0  0.061286  0  3.627879  0  0  0.00107  0  3.895549  0  0  0.008782  0  3.900456  0  0  -0.072947  -0.004153  0  3.892098  0
C  C95  1  0.72305219  0.38741802  0.15121393  1  0  0.244791  0  3.959476  0  0  0.24309  0  4.260578  0  0  0.259213  0  4.274213  0  0  0.133987  0.232082  0  4.251305  0
C  C96  1  0.27695812  0.61258217  0.84879738  1  0  0.244858  0  3.959325  0  0  0.243155  0  4.260425  0  0  0.259279  0  4.274062  0  0  0.134031  0.232148  0  4.251153  0
C  C97  1  0.35715526  0.22978426  0.76509983  1  0  0.23  0  3.954503  0  0  0.230791  0  4.251977  0  0  0.246287  0  4.266441  0  0  0.119691  0.220248  0  4.242129  0
C  C98  1  0.64284509  0.77021688  0.23490706  1  0  0.230171  0  3.954289  0  0  0.230961  0  4.251756  0  0  0.24646  0  4.266216  0  0  0.119681  0.220414  0  4.241899  0
S  S99  1  0.70757435  0.52286334  0.16427898  1  0  -0.210726  0  2.461394  0  0  -0.197354  0  2.845631  0  0  -0.209934  0  2.835911  0  0  -0.142527  -0.188969  0  2.852351  0
S  S100  1  0.29243511  0.47713777  0.83573178  1  0  -0.21069  0  2.461464  0  0  -0.197325  0  2.845724  0  0  -0.209897  0  2.835988  0  0  -0.142489  -0.188941  0  2.85245  0
S  S101  1  0.51270157  0.29779787  0.88917028  1  0  -0.210056  0  2.44752  0  0  -0.201875  0  2.832537  0  0  -0.213113  0  2.822774  0  0  -0.152976  -0.194532  0  2.839417  0
S  S102  1  0.48730595  0.70220051  0.11083593  1  0  -0.210011  0  2.447644  0  0  -0.201821  0  2.832638  0  0  -0.213057  0  2.822869  0  0  -0.152938  -0.19448  0  2.839515  0
N  N103  1  0.74070662  0.29518311  0.15045589  1  0  -0.487035  0  2.616413  0  0  -0.463671  0  2.853792  0  0  -0.47556  0  2.862904  0  0  -0.416376  -0.455581  0  2.847814  0
N  N104  1  0.25929779  0.70481619  0.84954861  1  0  -0.487115  0  2.616207  0  0  -0.463747  0  2.853581  0  0  -0.475638  0  2.862693  0  0  -0.416435  -0.455656  0  2.847601  0
N  N105  1  0.24809355  0.17542143  0.67612334  1  0  -0.445833  0  2.568174  0  0  -0.423696  0  2.781786  0  0  -0.435455  0  2.792179  0  0  -0.346906  -0.415727  0  2.774847  0
N  N106  1  0.75190553  0.82459061  0.32389405  1  0  -0.446023  0  2.567831  0  0  -0.423876  0  2.78143  0  0  -0.435634  0  2.79182  0  0  -0.346921  -0.415907  0  2.774486  0
O  O107  1  0.26798218  0.36364349  0.26332156  1  0  -0.299942  0  2.365262  0  0  -0.22688  0  2.601331  0  0  -0.244953  0  2.605388  0  0  -0.229643  -0.214034  0  2.598121  0
O  O108  1  0.73201767  0.63635946  0.73668211  1  0  -0.299959  0  2.3654  0  0  -0.226894  0  2.601423  0  0  -0.244956  0  2.605482  0  0  -0.229668  -0.214047  0  2.598217  0
O  O109  1  0.15608402  0.24266162  0.36098764  1  0  -0.306741  0  2.361455  0  0  -0.237577  0  2.603668  0  0  -0.255252  0  2.606334  0  0  -0.228807  -0.225023  0  2.60138  0
O  O110  1  0.84391847  0.75733860  0.63901303  1  0  -0.306786  0  2.361559  0  0  -0.237583  0  2.603746  0  0  -0.255257  0  2.606421  0  0  -0.228827  -0.225027  0  2.601465  0
O  O111  1  0.88964099  0.04100525  0.21984493  1  0  -0.337487  0  2.258938  0  0  -0.268092  0  2.513931  0  0  -0.283745  0  2.515431  0  0  -0.291358  -0.25697  0  2.512517  0
O  O112  1  0.11035844  0.95899225  0.78014943  1  0  -0.337436  0  2.259028  0  0  -0.268087  0  2.514054  0  0  -0.283744  0  2.515544  0  0  -0.291354  -0.25696  0  2.512649  0
O  O113  1  0.77012070  0.94209226  0.95366118  1  0  -0.360946  0  2.240848  0  0  -0.292535  0  2.493045  0  0  -0.307813  0  2.493133  0  0  -0.316546  -0.28167  0  2.492654  0
O  O114  1  0.22987612  0.05790798  0.04633541  1  0  -0.361056  0  2.240615  0  0  -0.292619  0  2.492864  0  0  -0.307895  0  2.492955  0  0  -0.316572  -0.281755  0  2.49248  0
O  O115  1  0.82854589  0.13852068  0.89637243  1  0  -0.341963  0  2.329804  0  0  -0.270568  0  2.58742  0  0  -0.286756  0  2.589963  0  0  -0.304805  -0.259109  0  2.585247  0
O  O116  1  0.17145289  0.86147865  0.10362646  1  0  -0.341937  0  2.329813  0  0  -0.270532  0  2.587429  0  0  -0.286713  0  2.589967  0  0  -0.304803  -0.259076  0  2.585259  0
O  O117  1  0.10726306  0.32240234  0.02368184  1  0  -0.329445  0  2.288772  0  0  -0.256399  0  2.538063  0  0  -0.271962  0  2.53945  0  0  -0.283267  -0.245339  0  2.536744  0
O  O118  1  0.89273172  0.67759882  0.97631634  1  0  -0.329501  0  2.288714  0  0  -0.256505  0  2.538035  0  0  -0.272067  0  2.539417  0  0  -0.283308  -0.245444  0  2.536715  0
