# generated using pymatgen
data_Ag2H10C7(N2O)4
_symmetry_space_group_name_H-M   'P 1'
_cell_length_a   13.99715180
_cell_length_b   13.99715990
_cell_length_c   13.99713518
_cell_angle_alpha   104.75696372
_cell_angle_beta   104.75697381
_cell_angle_gamma   104.75702581
_symmetry_Int_Tables_number   1
_chemical_formula_structural   Ag2H10C7(N2O)4
_chemical_formula_sum   'Ag12 H60 C42 N48 O24'
_cell_volume   2409.97036179
_cell_formula_units_Z   6
loop_
 _symmetry_equiv_pos_site_id
 _symmetry_equiv_pos_as_xyz
  1  'x, y, z'
loop_
 _atom_site_type_symbol
 _atom_site_label
 _atom_site_symmetry_multiplicity
 _atom_site_fract_x
 _atom_site_fract_y
 _atom_site_fract_z
 _atom_site_occupancy
 _atom_site_pbe_bader_charge
 _atom_site_pbe_bader_spin_density
 _atom_site_pbe_cm5_charge
 _atom_site_pbe_ddec_charge
 _atom_site_pbe_ddec_spin_density
 _atom_site_pbe_ddec_sum_bond_order
 _atom_site_pbe_magmom
Ag  Ag0  1  0.78895767  0.78895379  0.52708687  1  0.566826  0  0.489563  0.419074  0  1.781355  0
Ag  Ag1  1  0.78895371  0.52708649  0.78895651  1  0.566765  0  0.489552  0.419056  0  1.781363  0
Ag  Ag2  1  0.52708595  0.78895633  0.78895275  1  0.566783  0  0.489537  0.419035  0  1.781384  0
Ag  Ag3  1  0.21104485  0.47291272  0.21104654  1  0.566843  0  0.489533  0.419029  0  1.781382  0
Ag  Ag4  1  0.21104797  0.21104342  0.47291461  1  0.566782  0  0.489532  0.419024  0  1.781403  0
Ag  Ag5  1  0.47291497  0.21105108  0.21104370  1  0.566836  0  0.489537  0.419034  0  1.781372  0
Ag  Ag6  1  0.27445758  0.99999795  0.72554137  1  0.591607  0  0.468771  0.42358  0  1.83045  0
Ag  Ag7  1  0.99999952  0.72554358  0.27445876  1  0.591601  0  0.468761  0.423552  0  1.830473  0
Ag  Ag8  1  0.72554023  0.27445749  0.00000057  1  0.591584  0  0.468772  0.423598  0  1.830394  0
Ag  Ag9  1  0.72554650  0.00000167  0.27445462  1  0.591657  0  0.468829  0.423663  0  1.830337  0
Ag  Ag10  1  0.99999790  0.27444939  0.72554571  1  0.591669  0  0.468824  0.423615  0  1.830359  0
Ag  Ag11  1  0.27445302  0.72554635  0.00000171  1  0.591664  0  0.468825  0.42361  0  1.830322  0
H  H12  1  0.63629926  0.53158169  0.29404261  1  0.070411  0  0.10357  0.137023  0  0.997745  0
H  H13  1  0.53158155  0.29404112  0.63629693  1  0.070408  0  0.10357  0.137032  0  0.997759  0
H  H14  1  0.29404323  0.63629902  0.53158199  1  0.070403  0  0.103564  0.137018  0  0.997753  0
H  H15  1  0.36369776  0.70595119  0.46842080  1  0.073966  0  0.103595  0.137065  0  0.997669  0
H  H16  1  0.46842171  0.36369778  0.70594969  1  0.073982  0  0.103612  0.137097  0  0.997656  0
H  H17  1  0.70595142  0.46841994  0.36369801  1  0.073983  0  0.103594  0.137057  0  0.99766  0
H  H18  1  0.36369852  0.46841874  0.70596126  1  0.070414  0  0.103599  0.13704  0  0.997732  0
H  H19  1  0.46841780  0.70596207  0.36369875  1  0.070469  0  0.103582  0.137032  0  0.997718  0
H  H20  1  0.70596163  0.36370087  0.46841997  1  0.070479  0  0.103588  0.137044  0  0.997727  0
H  H21  1  0.63630474  0.29404568  0.53157908  1  0.073873  0  0.103612  0.137074  0  0.997722  0
H  H22  1  0.53157922  0.63630520  0.29404635  1  0.073871  0  0.103614  0.13708  0  0.997703  0
H  H23  1  0.29404558  0.53157947  0.63630468  1  0.073872  0  0.103609  0.137069  0  0.997723  0
H  H24  1  0.10762488  0.82002190  0.57497553  1  0.518346  0  0.301797  0.324916  0  0.97527  0
H  H25  1  0.82002193  0.57497549  0.10762473  1  0.518351  0  0.301795  0.324917  0  0.975261  0
H  H26  1  0.57497575  0.10762490  0.82002236  1  0.518257  0  0.301816  0.324948  0  0.975231  0
H  H27  1  0.89237529  0.42502439  0.17997706  1  0.51826  0  0.301816  0.324921  0  0.975264  0
H  H28  1  0.17997669  0.89237502  0.42502412  1  0.518264  0  0.301823  0.32494  0  0.975243  0
H  H29  1  0.42502432  0.17997702  0.89237428  1  0.518252  0  0.301793  0.324897  0  0.975297  0
H  H30  1  0.89238077  0.17997383  0.42502415  1  0.518291  0  0.301798  0.32497  0  0.975334  0
H  H31  1  0.17997270  0.42502311  0.89237930  1  0.518303  0  0.301816  0.325002  0  0.975248  0
H  H32  1  0.42502360  0.89238123  0.17997265  1  0.518342  0  0.301783  0.324957  0  0.975339  0
H  H33  1  0.10762013  0.57497670  0.82002781  1  0.518318  0  0.301773  0.324961  0  0.975376  0
H  H34  1  0.82002818  0.10762118  0.57497691  1  0.51829  0  0.30179  0.324962  0  0.975323  0
H  H35  1  0.57497661  0.82002817  0.10762160  1  0.518283  0  0.301781  0.324955  0  0.975322  0
H  H36  1  0.97120357  0.76158140  0.50691847  1  0.523724  0  0.291766  0.311774  0  1.006508  0
H  H37  1  0.76158088  0.50691717  0.97120293  1  0.523699  0  0.29176  0.31176  0  1.006497  0
H  H38  1  0.50691557  0.97120092  0.76157730  1  0.523662  0  0.291733  0.311749  0  1.006506  0
H  H39  1  0.02879817  0.49308444  0.23842393  1  0.523715  0  0.29173  0.311717  0  1.006542  0
H  H40  1  0.23842393  0.02879904  0.49308432  1  0.523706  0  0.291726  0.311722  0  1.006536  0
H  H41  1  0.49308381  0.23842335  0.02879773  1  0.523867  0  0.291754  0.311769  0  1.006472  0
H  H42  1  0.02879815  0.23841594  0.49308276  1  0.52373  0  0.291749  0.311815  0  1.006484  0
H  H43  1  0.23841533  0.49308271  0.02879826  1  0.523732  0  0.291751  0.311827  0  1.006473  0
H  H44  1  0.49308615  0.02880085  0.23842005  1  0.523628  0  0.291738  0.311779  0  1.006495  0
H  H45  1  0.97120118  0.50691578  0.76158029  1  0.523685  0  0.29174  0.311783  0  1.0065  0
H  H46  1  0.76158014  0.97120280  0.50691652  1  0.523705  0  0.291748  0.311786  0  1.006489  0
H  H47  1  0.50691476  0.76158030  0.97120287  1  0.523695  0  0.291735  0.311795  0  1.006529  0
H  H48  1  0.60237452  0.81173565  0.52168367  1  0.526828  0  0.289743  0.312121  0  1.006349  0
H  H49  1  0.81173587  0.52168377  0.60237459  1  0.526828  0  0.289726  0.312093  0  1.006382  0
H  H50  1  0.52168405  0.60237502  0.81173591  1  0.526828  0  0.289719  0.312092  0  1.006393  0
H  H51  1  0.39762486  0.47831861  0.18826620  1  0.526814  0  0.289752  0.312147  0  1.006394  0
H  H52  1  0.18826504  0.39762458  0.47831846  1  0.526806  0  0.289745  0.312127  0  1.006324  0
H  H53  1  0.47831843  0.18826539  0.39762563  1  0.526826  0  0.28976  0.312156  0  1.0064  0
H  H54  1  0.39762956  0.18826176  0.47831390  1  0.527018  0  0.289713  0.312104  0  1.006298  0
H  H55  1  0.18826269  0.47831249  0.39762985  1  0.527019  0  0.289747  0.31214  0  1.006257  0
H  H56  1  0.47831295  0.39762957  0.18826310  1  0.526907  0  0.289743  0.312134  0  1.00627  0
H  H57  1  0.60237055  0.52168470  0.81173637  1  0.526999  0  0.289728  0.312106  0  1.00631  0
H  H58  1  0.81173667  0.60237127  0.52168524  1  0.526886  0  0.289719  0.312091  0  1.006323  0
H  H59  1  0.52168564  0.81173645  0.60237092  1  0.526892  0  0.289722  0.312088  0  1.006318  0
H  H60  1  0.25509583  0.17587535  0.75177159  1  0.513451  0  0.28948  0.304199  0  1.016223  0
H  H61  1  0.17587551  0.75177144  0.25509575  1  0.513449  0  0.289477  0.304182  0  1.01626  0
H  H62  1  0.75177195  0.25509511  0.17587582  1  0.513441  0  0.289463  0.3042  0  1.016285  0
H  H63  1  0.74490190  0.24822666  0.82412239  1  0.513437  0  0.289488  0.304215  0  1.016267  0
H  H64  1  0.82412311  0.74490255  0.24822693  1  0.513447  0  0.289474  0.304199  0  1.016247  0
H  H65  1  0.24822820  0.82412385  0.74490474  1  0.513444  0  0.289469  0.304182  0  1.0163  0
H  H66  1  0.74490431  0.82412219  0.24822715  1  0.513494  0  0.289485  0.304241  0  1.016252  0
H  H67  1  0.82412227  0.24822677  0.74490398  1  0.513491  0  0.289475  0.304256  0  1.016238  0
H  H68  1  0.24822740  0.74490511  0.82412268  1  0.513508  0  0.289496  0.304279  0  1.016189  0
H  H69  1  0.25509589  0.75177377  0.17587933  1  0.513505  0  0.289489  0.304249  0  1.016246  0
H  H70  1  0.17587939  0.25509506  0.75177456  1  0.513515  0  0.289504  0.304261  0  1.01625  0
H  H71  1  0.75177352  0.17587866  0.25509495  1  0.513531  0  0.289482  0.304275  0  1.016233  0
C  C72  1  0.02348946  0.91857135  0.59477740  1  1.612122  0  0.344055  0.616517  0  4.121699  0
C  C73  1  0.91857011  0.59477541  0.02348862  1  1.612111  0  0.344084  0.616452  0  4.121844  0
C  C74  1  0.59477417  0.02348455  0.91856674  1  1.612358  0  0.344114  0.616529  0  4.1217  0
C  C75  1  0.97651386  0.40522584  0.08143290  1  1.612364  0  0.344124  0.616535  0  4.12172  0
C  C76  1  0.08143402  0.97651381  0.40522483  1  1.612366  0  0.344097  0.616526  0  4.121746  0
C  C77  1  0.40522588  0.08143368  0.97651415  1  1.612131  0  0.3441  0.616488  0  4.121775  0
C  C78  1  0.97651619  0.08142586  0.40522408  1  1.612426  0  0.344201  0.61665  0  4.121544  0
C  C79  1  0.08142531  0.40522420  0.97651587  1  1.611965  0  0.344225  0.616644  0  4.121538  0
C  C80  1  0.40522361  0.97651736  0.08142465  1  1.612209  0  0.344211  0.616623  0  4.121545  0
C  C81  1  0.02348470  0.59477706  0.91857609  1  1.612186  0  0.34423  0.616662  0  4.121536  0
C  C82  1  0.91857792  0.02348555  0.59477809  1  1.611956  0  0.34422  0.616636  0  4.121498  0
C  C83  1  0.59477504  0.91857521  0.02348339  1  1.611956  0  0.344217  0.616653  0  4.121488  0
C  C84  1  0.09729933  0.09729744  0.68233361  1  1.62869  0  0.342461  0.615706  0  4.13659  0
C  C85  1  0.09729703  0.68233212  0.09729843  1  1.628711  0  0.342485  0.615704  0  4.1365  0
C  C86  1  0.68233421  0.09729709  0.09729470  1  1.628782  0  0.342478  0.615731  0  4.136555  0
C  C87  1  0.90270075  0.31766683  0.90270364  1  1.628613  0  0.342425  0.615641  0  4.136774  0
C  C88  1  0.90270239  0.90270064  0.31766709  1  1.628656  0  0.342444  0.615627  0  4.136711  0
C  C89  1  0.31767065  0.90270428  0.90270265  1  1.628415  0  0.342447  0.615778  0  4.136399  0
C  C90  1  0.80205020  0.59114105  0.32652461  1  1.593287  0  0.210497  0.665569  0  4.140274  0
C  C91  1  0.59114159  0.32652295  0.80204959  1  1.593102  0  0.210564  0.665579  0  4.140094  0
C  C92  1  0.32652336  0.80205060  0.59114013  1  1.593236  0  0.210634  0.6657  0  4.139981  0
C  C93  1  0.19794604  0.67347012  0.40885667  1  1.592797  0  0.210456  0.665426  0  4.140328  0
C  C94  1  0.40885773  0.19794616  0.67347062  1  1.592777  0  0.210466  0.665468  0  4.140228  0
C  C95  1  0.67347209  0.40885776  0.19794544  1  1.593342  0  0.210414  0.665327  0  4.140441  0
C  C96  1  0.19794994  0.40885943  0.67348416  1  1.592781  0  0.210529  0.66536  0  4.140181  0
C  C97  1  0.40885776  0.67348466  0.19795008  1  1.592799  0  0.210555  0.665385  0  4.140244  0
C  C98  1  0.67348465  0.19795037  0.40885863  1  1.592787  0  0.210577  0.665411  0  4.140183  0
C  C99  1  0.80205411  0.32652003  0.59114089  1  1.593231  0  0.210482  0.665259  0  4.140471  0
C  C100  1  0.59114006  0.80205427  0.32651897  1  1.593239  0  0.210532  0.665361  0  4.14028  0
C  C101  1  0.32651861  0.59114171  0.80205566  1  1.592874  0  0.210531  0.665377  0  4.14041  0
C  C102  1  0.70110094  0.50000051  0.29889527  1  -0.085321  0  -0.169077  -0.449753  0  3.894305  0
C  C103  1  0.50000045  0.29889434  0.70109882  1  -0.085336  0  -0.169133  -0.449889  0  3.894347  0
C  C104  1  0.29889607  0.70110088  0.50000067  1  -0.085316  0  -0.169083  -0.449793  0  3.894289  0
C  C105  1  0.29889684  0.49999991  0.70110788  1  -0.08507  0  -0.169146  -0.449704  0  3.894445  0
C  C106  1  0.49999891  0.70110810  0.29889811  1  -0.085152  0  -0.169117  -0.449692  0  3.89438  0
C  C107  1  0.70110800  0.29889800  0.50000013  1  -0.085173  0  -0.169134  -0.449716  0  3.894427  0
C  C108  1  0.61078955  0.71564306  0.61078779  1  1.615079  0  0.341656  0.611367  0  4.125248  0
C  C109  1  0.71564337  0.61078731  0.61078944  1  1.615528  0  0.341639  0.611362  0  4.125278  0
C  C110  1  0.61078639  0.61078783  0.71564236  1  1.615345  0  0.341724  0.611534  0  4.12518  0
C  C111  1  0.38921060  0.38921380  0.28435876  1  1.615149  0  0.341624  0.611295  0  4.125335  0
C  C112  1  0.28435834  0.38921077  0.38921412  1  1.615746  0  0.34168  0.611449  0  4.125271  0
C  C113  1  0.38921374  0.28435851  0.38921206  1  1.615556  0  0.341642  0.611328  0  4.125225  0
N  N114  1  0.03381640  0.82462659  0.56225421  1  -1.335186  0  -0.569798  -0.637169  0  3.311713  0
N  N115  1  0.82462560  0.56225289  0.03381597  1  -1.335174  0  -0.569792  -0.637119  0  3.311759  0
N  N116  1  0.56225488  0.03381592  0.82462690  1  -1.335101  0  -0.56978  -0.637138  0  3.311705  0
N  N117  1  0.96618298  0.43774445  0.17537126  1  -1.335098  0  -0.569758  -0.63708  0  3.311928  0
N  N118  1  0.17537145  0.96618335  0.43774383  1  -1.335111  0  -0.569763  -0.637106  0  3.311936  0
N  N119  1  0.43774597  0.17537352  0.96618356  1  -1.335284  0  -0.569792  -0.637139  0  3.311804  0
N  N120  1  0.96618374  0.17537095  0.43774667  1  -1.335025  0  -0.569874  -0.637397  0  3.311752  0
N  N121  1  0.17537061  0.43774700  0.96618379  1  -1.335025  0  -0.569906  -0.637463  0  3.311693  0
N  N122  1  0.43774998  0.96618766  0.17537672  1  -1.334994  0  -0.569894  -0.637408  0  3.311619  0
N  N123  1  0.03381402  0.56225275  0.82462444  1  -1.335007  0  -0.569893  -0.637412  0  3.311617  0
N  N124  1  0.82462476  0.03381506  0.56225270  1  -1.33499  0  -0.569906  -0.637413  0  3.311519  0
N  N125  1  0.56225024  0.82462489  0.03381582  1  -1.33501  0  -0.569873  -0.637403  0  3.311585  0
N  N126  1  0.11084379  0.00307318  0.65379060  1  -1.216268  0  -0.377968  -0.53021  0  3.427239  0
N  N127  1  0.00307270  0.65379026  0.11084393  1  -1.216249  0  -0.378012  -0.530205  0  3.427213  0
N  N128  1  0.65379030  0.11084077  0.00307092  1  -1.216154  0  -0.377995  -0.530212  0  3.42718  0
N  N129  1  0.88915550  0.34620830  0.99692568  1  -1.216186  0  -0.378003  -0.530195  0  3.427094  0
N  N130  1  0.99692593  0.88915598  0.34620773  1  -1.216156  0  -0.377998  -0.530163  0  3.427009  0
N  N131  1  0.34620985  0.99692848  0.88915786  1  -1.216052  0  -0.378001  -0.530231  0  3.427057  0
N  N132  1  0.88915714  0.99692241  0.34620713  1  -1.21618  0  -0.378088  -0.53025  0  3.427244  0
N  N133  1  0.99692194  0.34620687  0.88915615  1  -1.216117  0  -0.378083  -0.530194  0  3.427162  0
N  N134  1  0.34620748  0.88915892  0.99692347  1  -1.215999  0  -0.37803  -0.5302  0  3.427177  0
N  N135  1  0.11084149  0.65379259  0.00307454  1  -1.216224  0  -0.378064  -0.530216  0  3.427375  0
N  N136  1  0.00307579  0.11084210  0.65379298  1  -1.216247  0  -0.37807  -0.530199  0  3.427315  0
N  N137  1  0.65379186  0.00307624  0.11084168  1  -1.216181  0  -0.378057  -0.530214  0  3.427242  0
N  N138  1  0.92518926  0.92518634  0.56689083  1  -1.225522  0  -0.391661  -0.526195  0  3.448861  0
N  N139  1  0.92518608  0.56689039  0.92518855  1  -1.225537  0  -0.391678  -0.526195  0  3.448909  0
N  N140  1  0.56688832  0.92518623  0.92518520  1  -1.225668  0  -0.391729  -0.526261  0  3.44906  0
N  N141  1  0.07481249  0.43311030  0.07481345  1  -1.22562  0  -0.391693  -0.526226  0  3.448991  0
N  N142  1  0.07481246  0.07481100  0.43310969  1  -1.225793  0  -0.391671  -0.526221  0  3.448942  0
N  N143  1  0.43311104  0.07481547  0.07481297  1  -1.225635  0  -0.391702  -0.526205  0  3.449061  0
N  N144  1  0.68198384  0.68198169  0.57400754  1  -1.223882  0  -0.391724  -0.528519  0  3.429969  0
N  N145  1  0.68198147  0.57400662  0.68198364  1  -1.223256  0  -0.391739  -0.52859  0  3.430029  0
N  N146  1  0.57400728  0.68198419  0.68198165  1  -1.223445  0  -0.391718  -0.528521  0  3.429872  0
N  N147  1  0.31801631  0.42599232  0.31801985  1  -1.223915  0  -0.391757  -0.528505  0  3.430049  0
N  N148  1  0.31801944  0.31801693  0.42599441  1  -1.223297  0  -0.391743  -0.528546  0  3.429971  0
N  N149  1  0.42599286  0.31801926  0.31801645  1  -1.223303  0  -0.391716  -0.528443  0  3.429986  0
N  N150  1  0.57650184  0.78525646  0.57649937  1  -1.350352  0  -0.567968  -0.636961  0  3.331591  0
N  N151  1  0.78525566  0.57649864  0.57650121  1  -1.350356  0  -0.567938  -0.636931  0  3.331634  0
N  N152  1  0.57649867  0.57650137  0.78525635  1  -1.350469  0  -0.567947  -0.636983  0  3.331615  0
N  N153  1  0.42349754  0.42350221  0.21474435  1  -1.350567  0  -0.56794  -0.636995  0  3.331613  0
N  N154  1  0.21474449  0.42349668  0.42350124  1  -1.35069  0  -0.567952  -0.637015  0  3.331592  0
N  N155  1  0.42350303  0.21474417  0.42349850  1  -1.350718  0  -0.567966  -0.637015  0  3.331639  0
N  N156  1  0.18205838  0.18205449  0.74201339  1  -1.34575  0  -0.582157  -0.640812  0  3.328256  0
N  N157  1  0.18205451  0.74201251  0.18205842  1  -1.34572  0  -0.582121  -0.640749  0  3.328168  0
N  N158  1  0.74201227  0.18205621  0.18205094  1  -1.345795  0  -0.582127  -0.640863  0  3.328225  0
N  N159  1  0.81794091  0.25798563  0.81794569  1  -1.345734  0  -0.582117  -0.640828  0  3.328246  0
N  N160  1  0.81794569  0.81794292  0.25798631  1  -1.345742  0  -0.582103  -0.640756  0  3.328237  0
N  N161  1  0.25798787  0.81794724  0.81794287  1  -1.345705  0  -0.582099  -0.640813  0  3.328105  0
O  O162  1  0.85455987  0.64194883  0.42345908  1  -1.205233  0  -0.327435  -0.585985  0  2.246809  0
O  O163  1  0.64194824  0.42345615  0.85455945  1  -1.205128  0  -0.327478  -0.585983  0  2.246753  0
O  O164  1  0.42345716  0.85456037  0.64194847  1  -1.205144  0  -0.32753  -0.586084  0  2.246687  0
O  O165  1  0.14543873  0.57653652  0.35804687  1  -1.204776  0  -0.327505  -0.585986  0  2.246864  0
O  O166  1  0.35804715  0.14543812  0.57653585  1  -1.204774  0  -0.327498  -0.585983  0  2.246772  0
O  O167  1  0.57653750  0.35804711  0.14543850  1  -1.2053  0  -0.327465  -0.585925  0  2.246853  0
O  O168  1  0.14544263  0.35804803  0.57654223  1  -1.205079  0  -0.327504  -0.585951  0  2.246492  0
O  O169  1  0.35804718  0.57654347  0.14544289  1  -1.205078  0  -0.327514  -0.585977  0  2.246526  0
O  O170  1  0.57654298  0.14544382  0.35804625  1  -1.20507  0  -0.327506  -0.585958  0  2.246484  0
O  O171  1  0.85456377  0.42345961  0.64195211  1  -1.205206  0  -0.327465  -0.585895  0  2.246706  0
O  O172  1  0.64195378  0.85456264  0.42346034  1  -1.205228  0  -0.327506  -0.58597  0  2.246605  0
O  O173  1  0.42346028  0.64195257  0.85456661  1  -1.205183  0  -0.327476  -0.585967  0  2.246654  0
O  O174  1  0.82493817  0.61367296  0.25077586  1  -1.189398  0  -0.325622  -0.562489  0  2.306113  0
O  O175  1  0.61367384  0.25077196  0.82493552  1  -1.189289  0  -0.325631  -0.562476  0  2.30604  0
O  O176  1  0.25077385  0.82493746  0.61367108  1  -1.189413  0  -0.325649  -0.562493  0  2.306063  0
O  O177  1  0.17505965  0.74922081  0.38632685  1  -1.1894  0  -0.325527  -0.562364  0  2.306069  0
O  O178  1  0.38632704  0.17506009  0.74922017  1  -1.18939  0  -0.325515  -0.562357  0  2.306048  0
O  O179  1  0.74922081  0.38632766  0.17505878  1  -1.189421  0  -0.325521  -0.562343  0  2.30615  0
O  O180  1  0.17506275  0.38632927  0.74922999  1  -1.189114  0  -0.3256  -0.562392  0  2.306195  0
O  O181  1  0.38632945  0.74923035  0.17506381  1  -1.18916  0  -0.325615  -0.562376  0  2.306273  0
O  O182  1  0.74923023  0.17506512  0.38632851  1  -1.189132  0  -0.325624  -0.562391  0  2.306267  0
O  O183  1  0.82493814  0.25077223  0.61367014  1  -1.189477  0  -0.32561  -0.562363  0  2.306232  0
O  O184  1  0.61366918  0.82493906  0.25077226  1  -1.189487  0  -0.325615  -0.562389  0  2.306216  0
O  O185  1  0.25077068  0.61366913  0.82493827  1  -1.189145  0  -0.325621  -0.56239  0  2.30625  0
