# generated using pymatgen
data_CdH12C16(NO4)2
_symmetry_space_group_name_H-M   'P 1'
_cell_length_a   7.81398300
_cell_length_b   7.90744570
_cell_length_c   14.44181626
_cell_angle_alpha   102.98942067
_cell_angle_beta   90.00034409
_cell_angle_gamma   89.99991036
_symmetry_Int_Tables_number   1
_chemical_formula_structural   CdH12C16(NO4)2
_chemical_formula_sum   'Cd2 H24 C32 N4 O16'
_cell_volume   869.50670188
_cell_formula_units_Z   2
loop_
 _symmetry_equiv_pos_site_id
 _symmetry_equiv_pos_as_xyz
  1  'x, y, z'
loop_
 _atom_site_type_symbol
 _atom_site_label
 _atom_site_symmetry_multiplicity
 _atom_site_fract_x
 _atom_site_fract_y
 _atom_site_fract_z
 _atom_site_occupancy
 _atom_site_hle17_bader_spin_density
 _atom_site_hle17_ddec_charge
 _atom_site_hle17_ddec_spin_density
 _atom_site_hle17_ddec_sum_bond_order
 _atom_site_hle17_magmom
 _atom_site_hse06_10hf_bader_spin_density
 _atom_site_hse06_10hf_ddec_charge
 _atom_site_hse06_10hf_ddec_spin_density
 _atom_site_hse06_10hf_ddec_sum_bond_order
 _atom_site_hse06_10hf_magmom
 _atom_site_hse06_bader_spin_density
 _atom_site_hse06_ddec_charge
 _atom_site_hse06_ddec_spin_density
 _atom_site_hse06_ddec_sum_bond_order
 _atom_site_hse06_magmom
 _atom_site_pbe_bader_spin_density
 _atom_site_pbe_cm5_charge
 _atom_site_pbe_ddec_charge
 _atom_site_pbe_ddec_spin_density
 _atom_site_pbe_ddec_sum_bond_order
 _atom_site_pbe_magmom
Cd  Cd0  1  0.69255071  0.49999889  0.74999718  1  0  1.203893  0  1.572607  0  0  1.023771  0  2.020497  0  0  1.089325  0  1.95576  0  0  0.757497  0.976966  0  2.064811  0
Cd  Cd1  1  0.30744471  0.50000328  0.25000289  1  0  1.203893  0  1.572611  0  0  1.023769  0  2.020501  0  0  1.089323  0  1.955764  0  0  0.757498  0.976968  0  2.064815  0
H  H2  1  0.19851575  0.25842986  0.69784936  1  0  0.144262  0  0.920395  0  0  0.152042  0  0.97624  0  0  0.156797  0  0.973202  0  0  0.123711  0.148592  0  0.978618  0
H  H3  1  0.19851723  0.74156806  0.80214758  1  0  0.144205  0  0.920498  0  0  0.151991  0  0.976337  0  0  0.156746  0  0.973302  0  0  0.123693  0.148543  0  0.97871  0
H  H4  1  0.80147711  0.74157230  0.30215003  1  0  0.144225  0  0.920502  0  0  0.152008  0  0.976339  0  0  0.156763  0  0.973302  0  0  0.12372  0.148561  0  0.978714  0
H  H5  1  0.80148076  0.25843021  0.19785134  1  0  0.144183  0  0.920526  0  0  0.151967  0  0.976359  0  0  0.156721  0  0.973326  0  0  0.123697  0.148519  0  0.978734  0
H  H6  1  0.46821928  0.08571042  0.64569319  1  0  0.123884  0  0.960167  0  0  0.128844  0  1.02585  0  0  0.132898  0  1.021998  0  0  0.131406  0.125802  0  1.028803  0
H  H7  1  0.46821978  0.91429264  0.85430594  1  0  0.123844  0  0.960198  0  0  0.128785  0  1.0259  0  0  0.132838  0  1.022052  0  0  0.131375  0.125745  0  1.02885  0
H  H8  1  0.53177742  0.91429174  0.35430550  1  0  0.123853  0  0.960196  0  0  0.128796  0  1.02588  0  0  0.132847  0  1.022035  0  0  0.131404  0.125754  0  1.028829  0
H  H9  1  0.53177948  0.08570694  0.14569521  1  0  0.123876  0  0.960218  0  0  0.1288  0  1.025932  0  0  0.132851  0  1.02209  0  0  0.131407  0.125759  0  1.028881  0
H  H10  1  0.18680856  0.64391065  0.52791889  1  0  0.125122  0  0.924184  0  0  0.135638  0  0.978862  0  0  0.139216  0  0.975357  0  0  0.13875  0.132919  0  0.981567  0
H  H11  1  0.18680358  0.35608860  0.97208163  1  0  0.125083  0  0.924097  0  0  0.135606  0  0.978774  0  0  0.139185  0  0.975266  0  0  0.138731  0.132887  0  0.981479  0
H  H12  1  0.81319582  0.35608633  0.47208195  1  0  0.125097  0  0.924148  0  0  0.135619  0  0.978823  0  0  0.139198  0  0.975314  0  0  0.138749  0.1329  0  0.981529  0
H  H13  1  0.81319824  0.64391226  0.02791621  1  0  0.125077  0  0.924052  0  0  0.135656  0  0.978712  0  0  0.139237  0  0.9752  0  0  0.138756  0.132931  0  0.981417  0
H  H14  1  0.90644427  0.79736614  0.57732915  1  0  0.132571  0  0.942479  0  0  0.13921  0  1.003575  0  0  0.143319  0  1.001739  0  0  0.117185  0.136168  0  1.005135  0
H  H15  1  0.90644026  0.20262771  0.92266613  1  0  0.132485  0  0.942446  0  0  0.139161  0  1.003525  0  0  0.143271  0  1.001689  0  0  0.117121  0.136122  0  1.005082  0
H  H16  1  0.09356011  0.20263083  0.42266892  1  0  0.132497  0  0.942456  0  0  0.139183  0  1.003524  0  0  0.143292  0  1.001688  0  0  0.117163  0.136161  0  1.005062  0
H  H17  1  0.09356028  0.79737313  0.07732963  1  0  0.132446  0  0.942496  0  0  0.139092  0  1.003609  0  0  0.143202  0  1.001773  0  0  0.117118  0.136056  0  1.005161  0
H  H18  1  0.58790611  0.86715466  0.54568457  1  0  0.131978  0  0.948882  0  0  0.141129  0  1.01486  0  0  0.144387  0  1.012453  0  0  0.123982  0.138807  0  1.016644  0
H  H19  1  0.58790256  0.13284838  0.95431702  1  0  0.131963  0  0.948765  0  0  0.141107  0  1.014761  0  0  0.144367  0  1.012355  0  0  0.123978  0.138784  0  1.016544  0
H  H20  1  0.41209315  0.13284880  0.45431567  1  0  0.13195  0  0.948833  0  0  0.141116  0  1.014835  0  0  0.144376  0  1.012424  0  0  0.123969  0.138795  0  1.016616  0
H  H21  1  0.41209799  0.86714990  0.04568397  1  0  0.131996  0  0.94871  0  0  0.14112  0  1.014742  0  0  0.144381  0  1.012333  0  0  0.123969  0.138797  0  1.01653  0
H  H22  1  0.46326522  0.69006223  0.47867052  1  0  0.125506  0  0.939564  0  0  0.134877  0  1.005235  0  0  0.137477  0  1.003362  0  0  0.123232  0.132994  0  1.006665  0
H  H23  1  0.46326938  0.30993776  0.02133013  1  0  0.125511  0  0.939549  0  0  0.134882  0  1.005239  0  0  0.13749  0  1.003356  0  0  0.123237  0.132997  0  1.006667  0
H  H24  1  0.53673149  0.30994123  0.52132972  1  0  0.125485  0  0.939535  0  0  0.134916  0  1.005185  0  0  0.137484  0  1.003348  0  0  0.123244  0.13303  0  1.00662  0
H  H25  1  0.53673117  0.69005922  0.97867070  1  0  0.125506  0  0.939558  0  0  0.134894  0  1.005233  0  0  0.137494  0  1.003362  0  0  0.123245  0.133009  0  1.006664  0
C  C26  1  0.87016668  0.15070086  0.65953476  1  0  0.629299  0  3.962576  0  0  0.582814  0  4.258294  0  0  0.616349  0  4.25136  0  0  0.200422  0.56016  0  4.261946  0
C  C27  1  0.87017098  0.84929689  0.84046226  1  0  0.629358  0  3.962294  0  0  0.582815  0  4.258119  0  0  0.616365  0  4.251184  0  0  0.200396  0.560162  0  4.261773  0
C  C28  1  0.12982874  0.84929742  0.34046623  1  0  0.629262  0  3.962678  0  0  0.582759  0  4.258437  0  0  0.616311  0  4.251504  0  0  0.200359  0.560103  0  4.262088  0
C  C29  1  0.12982956  0.15070269  0.15953889  1  0  0.62931  0  3.962423  0  0  0.58277  0  4.258246  0  0  0.616317  0  4.251313  0  0  0.200376  0.560116  0  4.261897  0
C  C30  1  0.03219835  0.04296044  0.63763403  1  0  0.01627  0  3.676292  0  0  0.029241  0  3.915725  0  0  0.029933  0  3.934279  0  0  0.017495  0.028729  0  3.903409  0
C  C31  1  0.03220016  0.95704014  0.86236545  1  0  0.016182  0  3.676336  0  0  0.029158  0  3.915837  0  0  0.029808  0  3.934447  0  0  0.01746  0.028645  0  3.903524  0
C  C32  1  0.96779835  0.95703914  0.36236642  1  0  0.016187  0  3.676379  0  0  0.029162  0  3.915852  0  0  0.029798  0  3.934479  0  0  0.01743  0.028649  0  3.903542  0
C  C33  1  0.96780166  0.04296074  0.13763585  1  0  0.016117  0  3.676368  0  0  0.029107  0  3.915819  0  0  0.02976  0  3.934425  0  0  0.017429  0.028594  0  3.903506  0
C  C34  1  0.19122231  0.12337436  0.65967068  1  0  -0.107288  0  3.679967  0  0  -0.132398  0  3.937207  0  0  -0.138611  0  3.955829  0  0  -0.065394  -0.128591  0  3.925117  0
C  C35  1  0.19122912  0.87662227  0.84032608  1  0  -0.107251  0  3.680049  0  0  -0.132367  0  3.937283  0  0  -0.138568  0  3.955918  0  0  -0.065378  -0.128559  0  3.925192  0
C  C36  1  0.80877184  0.87662391  0.34032893  1  0  -0.107269  0  3.680043  0  0  -0.132392  0  3.937267  0  0  -0.138587  0  3.955904  0  0  -0.0654  -0.128586  0  3.925179  0
C  C37  1  0.80877526  0.12337731  0.15967507  1  0  -0.107234  0  3.679977  0  0  -0.132322  0  3.937193  0  0  -0.13852  0  3.955825  0  0  -0.065376  -0.128516  0  3.925107  0
C  C38  1  0.33987753  0.03095595  0.63230261  1  0  0.093675  0  3.559697  0  0  0.052208  0  3.813588  0  0  0.060108  0  3.827503  0  0  0.069744  0.047066  0  3.804385  0
C  C39  1  0.33987554  0.96904714  0.86769749  1  0  0.093666  0  3.559825  0  0  0.052259  0  3.813672  0  0  0.060159  0  3.827584  0  0  0.069745  0.047116  0  3.804471  0
C  C40  1  0.66012173  0.96904752  0.36769832  1  0  0.093624  0  3.559872  0  0  0.052228  0  3.813683  0  0  0.06013  0  3.827595  0  0  0.069708  0.047087  0  3.804478  0
C  C41  1  0.66012500  0.03095504  0.13230467  1  0  0.0937  0  3.559727  0  0  0.052262  0  3.813614  0  0  0.06016  0  3.827528  0  0  0.06973  0.047117  0  3.804414  0
C  C42  1  0.17916596  0.77915932  0.56628714  1  0  0.109169  0  3.543259  0  0  0.067627  0  3.793297  0  0  0.076159  0  3.806431  0  0  0.076555  0.061992  0  3.784666  0
C  C43  1  0.17915948  0.22083866  0.93371735  1  0  0.10918  0  3.543102  0  0  0.067642  0  3.793168  0  0  0.076177  0  3.806296  0  0  0.076585  0.062007  0  3.784539  0
C  C44  1  0.82083970  0.22084027  0.43371608  1  0  0.109167  0  3.543058  0  0  0.06763  0  3.793124  0  0  0.076166  0  3.806249  0  0  0.076577  0.061992  0  3.784503  0
C  C45  1  0.82084106  0.77916091  0.06628241  1  0  0.109331  0  3.542923  0  0  0.067646  0  3.793109  0  0  0.076181  0  3.806237  0  0  0.076574  0.062016  0  3.784477  0
C  C46  1  0.02738941  0.86662790  0.59267444  1  0  -0.096993  0  3.671116  0  0  -0.120854  0  3.927297  0  0  -0.12709  0  3.946178  0  0  -0.060434  -0.116992  0  3.915083  0
C  C47  1  0.02739045  0.13336490  0.90732479  1  0  -0.096824  0  3.671012  0  0  -0.120732  0  3.927221  0  0  -0.126956  0  3.946115  0  0  -0.060373  -0.116871  0  3.915004  0
C  C48  1  0.97261241  0.13336647  0.40732262  1  0  -0.096795  0  3.670975  0  0  -0.120725  0  3.927191  0  0  -0.126944  0  3.94609  0  0  -0.060383  -0.116877  0  3.914966  0
C  C49  1  0.97261137  0.86663596  0.09267444  1  0  -0.096813  0  3.670978  0  0  -0.120661  0  3.927225  0  0  -0.126886  0  3.94612  0  0  -0.060371  -0.116804  0  3.915005  0
C  C50  1  0.48900658  0.77041615  0.54947084  1  0  -0.188364  0  3.58596  0  0  -0.250199  0  3.834032  0  0  -0.251805  0  3.839302  0  0  -0.057257  -0.249102  0  3.830686  0
C  C51  1  0.48900411  0.22959080  0.95052882  1  0  -0.18833  0  3.585867  0  0  -0.250189  0  3.834012  0  0  -0.251806  0  3.839285  0  0  -0.057282  -0.249089  0  3.830671  0
C  C52  1  0.51099652  0.22958472  0.45052977  1  0  -0.188328  0  3.585924  0  0  -0.250311  0  3.834137  0  0  -0.251899  0  3.839434  0  0  -0.057304  -0.249207  0  3.830773  0
C  C53  1  0.51100027  0.77041267  0.04947141  1  0  -0.188402  0  3.585948  0  0  -0.250283  0  3.834126  0  0  -0.251898  0  3.83941  0  0  -0.057315  -0.249174  0  3.830753  0
C  C54  1  0.55668954  0.65709465  0.61401631  1  0  0.671148  0  3.911211  0  0  0.626295  0  4.210677  0  0  0.659519  0  4.205791  0  0  0.196439  0.603748  0  4.212968  0
C  C55  1  0.55668874  0.34290577  0.88598002  1  0  0.671149  0  3.911308  0  0  0.626296  0  4.210783  0  0  0.659522  0  4.2059  0  0  0.196495  0.603747  0  4.213075  0
C  C56  1  0.44331100  0.34290492  0.38598415  1  0  0.671039  0  3.911358  0  0  0.626213  0  4.21083  0  0  0.659439  0  4.205941  0  0  0.196388  0.603666  0  4.213119  0
C  C57  1  0.44331308  0.65709640  0.11402006  1  0  0.671121  0  3.911322  0  0  0.62628  0  4.210809  0  0  0.659506  0  4.205923  0  0  0.196435  0.603732  0  4.2131  0
N  N58  1  0.33080185  0.86318922  0.58424803  1  0  0.037572  0  3.561781  0  0  0.129363  0  3.770692  0  0  0.11754  0  3.796177  0  0  -0.203658  0.136967  0  3.753609  0
N  N59  1  0.33080170  0.13681259  0.91575327  1  0  0.037597  0  3.561784  0  0  0.12938  0  3.770705  0  0  0.117559  0  3.796193  0  0  -0.203628  0.136983  0  3.753623  0
N  N60  1  0.66919869  0.13680906  0.41575296  1  0  0.037648  0  3.56186  0  0  0.129445  0  3.770771  0  0  0.117625  0  3.796249  0  0  -0.20359  0.137049  0  3.753688  0
N  N61  1  0.66920140  0.86319088  0.08424836  1  0  0.037506  0  3.56191  0  0  0.129368  0  3.770828  0  0  0.117548  0  3.796315  0  0  -0.203603  0.136973  0  3.753746  0
O  O62  1  0.73393764  0.09273635  0.61820439  1  0  -0.623269  0  1.949646  0  0  -0.583952  0  2.181874  0  0  -0.608159  0  2.174663  0  0  -0.323982  -0.566803  0  2.186086  0
O  O63  1  0.73393078  0.90726661  0.88179075  1  0  -0.623305  0  1.949316  0  0  -0.583972  0  2.181583  0  0  -0.608181  0  2.174365  0  0  -0.324012  -0.566815  0  2.18578  0
O  O64  1  0.26606034  0.90726322  0.38179469  1  0  -0.623246  0  1.949607  0  0  -0.583926  0  2.181849  0  0  -0.60813  0  2.174629  0  0  -0.323989  -0.566782  0  2.18607  0
O  O65  1  0.26606592  0.09272907  0.11820993  1  0  -0.623265  0  1.94939  0  0  -0.583926  0  2.181654  0  0  -0.608133  0  2.174438  0  0  -0.323992  -0.566774  0  2.18586  0
O  O66  1  0.89342904  0.29667024  0.71748003  1  0  -0.636222  0  2.032152  0  0  -0.568496  0  2.279828  0  0  -0.599672  0  2.268406  0  0  -0.327957  -0.546548  0  2.286811  0
O  O67  1  0.89343292  0.70332626  0.78252453  1  0  -0.636199  0  2.032131  0  0  -0.568453  0  2.279845  0  0  -0.599621  0  2.268409  0  0  -0.32788  -0.546508  0  2.286828  0
O  O68  1  0.10656383  0.70332805  0.28252235  1  0  -0.63617  0  2.032258  0  0  -0.56844  0  2.279948  0  0  -0.599609  0  2.268508  0  0  -0.327846  -0.546491  0  2.28693  0
O  O69  1  0.10656635  0.29667203  0.21747715  1  0  -0.636199  0  2.032208  0  0  -0.568458  0  2.279931  0  0  -0.599628  0  2.268497  0  0  -0.327884  -0.546512  0  2.286914  0
O  O70  1  0.48259716  0.66193855  0.69293185  1  0  -0.641622  0  1.947368  0  0  -0.581093  0  2.183156  0  0  -0.610884  0  2.17349  0  0  -0.327792  -0.560103  0  2.188941  0
O  O71  1  0.48259677  0.33806319  0.80706508  1  0  -0.641664  0  1.947456  0  0  -0.581106  0  2.183207  0  0  -0.610896  0  2.173538  0  0  -0.327848  -0.560116  0  2.188993  0
O  O72  1  0.51740082  0.33806490  0.30706630  1  0  -0.64157  0  1.947315  0  0  -0.581024  0  2.183059  0  0  -0.610815  0  2.173394  0  0  -0.32777  -0.560034  0  2.188843  0
O  O73  1  0.51740122  0.66193508  0.19293452  1  0  -0.641627  0  1.947492  0  0  -0.581077  0  2.183255  0  0  -0.610866  0  2.173585  0  0  -0.32781  -0.560088  0  2.18904  0
O  O74  1  0.68778264  0.56693068  0.58416971  1  0  -0.648621  0  1.913011  0  0  -0.594165  0  2.141738  0  0  -0.62213  0  2.131619  0  0  -0.331182  -0.574273  0  2.147831  0
O  O75  1  0.68778459  0.43306582  0.91582726  1  0  -0.648607  0  1.913052  0  0  -0.59416  0  2.141792  0  0  -0.622129  0  2.131679  0  0  -0.331173  -0.574272  0  2.147893  0
O  O76  1  0.31222174  0.43306889  0.41582937  1  0  -0.648601  0  1.913212  0  0  -0.594133  0  2.141918  0  0  -0.622101  0  2.131805  0  0  -0.331167  -0.57425  0  2.148022  0
O  O77  1  0.31221596  0.56693505  0.08417266  1  0  -0.648595  0  1.913026  0  0  -0.594129  0  2.141744  0  0  -0.6221  0  2.131632  0  0  -0.331151  -0.574245  0  2.147847  0
