# generated using pymatgen
data_ZnH15C14(NO)3
_symmetry_space_group_name_H-M   'P 1'
_cell_length_a   10.12807125
_cell_length_b   15.97617272
_cell_length_c   15.97619695
_cell_angle_alpha   115.65375498
_cell_angle_beta   102.20198643
_cell_angle_gamma   102.20194261
_symmetry_Int_Tables_number   1
_chemical_formula_structural   ZnH15C14(NO)3
_chemical_formula_sum   'Zn6 H90 C84 N18 O18'
_cell_volume   2138.81893537
_cell_formula_units_Z   6
loop_
 _symmetry_equiv_pos_site_id
 _symmetry_equiv_pos_as_xyz
  1  'x, y, z'
loop_
 _atom_site_type_symbol
 _atom_site_label
 _atom_site_symmetry_multiplicity
 _atom_site_fract_x
 _atom_site_fract_y
 _atom_site_fract_z
 _atom_site_occupancy
 _atom_site_pbe_bader_charge
 _atom_site_pbe_bader_spin_density
 _atom_site_pbe_cm5_charge
 _atom_site_pbe_ddec_charge
 _atom_site_pbe_ddec_spin_density
 _atom_site_pbe_ddec_sum_bond_order
 _atom_site_pbe_magmom
Zn  Zn0  1  0.10347660  0.70180209  0.32334913  1  1.259561  0  0.72624  0.758  0  2.454106  0
Zn  Zn1  1  0.78007371  0.67660419  0.37830191  1  1.258225  0  0.725857  0.757673  0  2.453512  0
Zn  Zn2  1  0.40148458  0.62155885  0.29827245  1  1.261311  0  0.725734  0.757346  0  2.453336  0
Zn  Zn3  1  0.90148422  0.29827373  0.62155904  1  1.261423  0  0.725757  0.757387  0  2.4533  0
Zn  Zn4  1  0.60347618  0.32334808  0.70180092  1  1.259603  0  0.726239  0.757987  0  2.454137  0
Zn  Zn5  1  0.28007377  0.37830390  0.67660549  1  1.258202  0  0.725843  0.757662  0  2.453472  0
H  H6  1  0.37693851  0.68810898  0.03208063  1  0.514481  0  0.30883  0.280167  0  0.985587  0
H  H7  1  0.34472917  0.96777443  0.65605784  1  0.517137  0  0.309688  0.282295  0  0.984163  0
H  H8  1  0.68846216  0.34393568  0.31188089  1  0.496229  0  0.309388  0.282102  0  0.984441  0
H  H9  1  0.18846531  0.31188071  0.34393584  1  0.496535  0  0.309355  0.282045  0  0.984496  0
H  H10  1  0.87693959  0.03207932  0.68810670  1  0.514488  0  0.308794  0.280153  0  0.985574  0
H  H11  1  0.84473118  0.65605774  0.96777541  1  0.517334  0  0.309685  0.282252  0  0.984175  0
H  H12  1  0.36129396  0.57414545  0.87768618  1  0.174573  0  0.12486  0.117543  0  1.06165  0
H  H13  1  0.48356983  0.12212235  0.69637225  1  0.198847  0  0.123996  0.11713  0  1.060061  0
H  H14  1  0.78686842  0.30384961  0.42588765  1  0.176305  0  0.124433  0.117002  0  1.061817  0
H  H15  1  0.28686965  0.42588896  0.30384887  1  0.176325  0  0.124444  0.116994  0  1.06176  0
H  H16  1  0.86129320  0.87768496  0.57414525  1  0.174594  0  0.12486  0.117534  0  1.061631  0
H  H17  1  0.98357357  0.69637511  0.12212398  1  0.198832  0  0.124026  0.117146  0  1.060078  0
H  H18  1  0.22980049  0.81397207  0.14801050  1  0.129041  0  0.116344  0.116026  0  0.99867  0
H  H19  1  0.08155547  0.85176726  0.66584550  1  0.12046  0  0.117646  0.118095  0  0.999914  0
H  H20  1  0.41561648  0.33406939  0.18589833  1  0.13439  0  0.117758  0.117856  0  0.999292  0
H  H21  1  0.91561806  0.18590126  0.33407222  1  0.134179  0  0.117756  0.117858  0  0.999263  0
H  H22  1  0.72979842  0.14800824  0.81396953  1  0.129058  0  0.116323  0.115973  0  0.998604  0
H  H23  1  0.58155727  0.66584498  0.85176769  1  0.120501  0  0.117661  0.118133  0  0.999886  0
H  H24  1  0.41752411  0.83426183  0.17974058  1  0.12079  0  0.119816  0.1237  0  0.99002  0
H  H25  1  0.23765847  0.82013278  0.65451774  1  0.115599  0  0.121036  0.124461  0  0.990173  0
H  H26  1  0.58316795  0.34548913  0.16573877  1  0.114735  0  0.119397  0.122896  0  0.990294  0
H  H27  1  0.08316993  0.16574153  0.34549309  1  0.114806  0  0.119376  0.122862  0  0.990354  0
H  H28  1  0.91752306  0.17973850  0.83426029  1  0.120812  0  0.119843  0.123719  0  0.990005  0
H  H29  1  0.73766028  0.65451662  0.82013300  1  0.115587  0  0.121044  0.124507  0  0.990151  0
H  H30  1  0.90104925  0.48203403  0.81806532  1  0.167106  0  0.121759  0.116228  0  1.031931  0
H  H31  1  0.08291239  0.18170716  0.66370329  1  0.144908  0  0.122272  0.116429  0  1.031196  0
H  H32  1  0.41870474  0.33609445  0.51801493  1  0.151723  0  0.122243  0.117309  0  1.031648  0
H  H33  1  0.91870495  0.51801539  0.33609408  1  0.151725  0  0.122233  0.117294  0  1.031683  0
H  H34  1  0.40104880  0.81806260  0.48203237  1  0.167152  0  0.121752  0.116185  0  1.031926  0
H  H35  1  0.58291255  0.66370388  0.18170602  1  0.144796  0  0.122294  0.116449  0  1.031197  0
H  H36  1  0.75548195  0.48375985  0.08692230  1  0.006983  0  0.084674  0.079632  0  1.006437  0
H  H37  1  0.66846030  0.91315388  0.39706255  1  0.013507  0  0.083849  0.078843  0  1.00684  0
H  H38  1  0.27156281  0.60318156  0.51637508  1  0.010248  0  0.083749  0.078489  0  1.006736  0
H  H39  1  0.77156007  0.51637547  0.60317935  1  0.009843  0  0.083769  0.078499  0  1.006753  0
H  H40  1  0.25548387  0.08692164  0.48375943  1  0.007046  0  0.084686  0.079656  0  1.006432  0
H  H41  1  0.16846055  0.39706270  0.91315542  1  0.013551  0  0.083793  0.078762  0  1.006786  0
H  H42  1  0.69577064  0.42523949  0.95709007  1  0.029743  0  0.088123  0.090381  0  0.995381  0
H  H43  1  0.73881653  0.04298181  0.46834408  1  0.031852  0  0.088797  0.090194  0  0.995538  0
H  H44  1  0.27060878  0.53189109  0.57491333  1  0.025265  0  0.088381  0.09007  0  0.995495  0
H  H45  1  0.77060666  0.57491403  0.53188986  1  0.025229  0  0.088379  0.090053  0  0.995515  0
H  H46  1  0.19577177  0.95708827  0.42523851  1  0.029761  0  0.08811  0.090394  0  0.995333  0
H  H47  1  0.23881754  0.46834400  0.04298272  1  0.031873  0  0.088794  0.090193  0  0.995495  0
H  H48  1  0.87504428  0.36215558  0.14551493  1  0.061749  0  0.090289  0.089363  0  1.055753  0
H  H49  1  0.72972080  0.85457535  0.21689087  1  0.054559  0  0.090072  0.089278  0  1.055835  0
H  H50  1  0.51291662  0.78332337  0.63782065  1  0.055042  0  0.09062  0.088734  0  1.05535  0
H  H51  1  0.01290935  0.63781813  0.78332064  1  0.05507  0  0.090642  0.088737  0  1.055333  0
H  H52  1  0.37504570  0.14551458  0.36215514  1  0.061737  0  0.090293  0.089371  0  1.055735  0
H  H53  1  0.22972045  0.21689074  0.85457569  1  0.054576  0  0.090068  0.089251  0  1.055911  0
H  H54  1  0.77741480  0.20070480  0.13502673  1  0.056954  0  0.096398  0.096205  0  1.016626  0
H  H55  1  0.64251402  0.86497708  0.06588116  1  0.079046  0  0.096713  0.096214  0  1.014787  0
H  H56  1  0.57704898  0.93430786  0.79928507  1  0.070193  0  0.095875  0.095765  0  1.016366  0
H  H57  1  0.07704408  0.79928253  0.93430584  1  0.07025  0  0.095876  0.095788  0  1.016313  0
H  H58  1  0.27741356  0.13502642  0.20070456  1  0.056928  0  0.096389  0.0962  0  1.016661  0
H  H59  1  0.14251397  0.06588026  0.86497813  1  0.079005  0  0.096698  0.096194  0  1.014765  0
H  H60  1  0.55549119  0.07181999  0.99581244  1  0.03098  0  0.091728  0.082916  0  1.061429  0
H  H61  1  0.55939434  0.00402455  0.07608881  1  0.028013  0  0.091366  0.083596  0  1.060993  0
H  H62  1  0.48407931  0.92407954  0.92824663  1  0.028661  0  0.091128  0.083156  0  1.062092  0
H  H63  1  0.98407746  0.92824576  0.92407899  1  0.02865  0  0.091123  0.083163  0  1.062087  0
H  H64  1  0.05549142  0.99581203  0.07182101  1  0.030999  0  0.091726  0.082909  0  1.061422  0
H  H65  1  0.05939750  0.07608910  0.00402630  1  0.028189  0  0.091332  0.083531  0  1.061032  0
H  H66  1  0.43261088  0.10497365  0.86760898  1  0.06412  0  0.09516  0.091004  0  1.023492  0
H  H67  1  0.56481268  0.13228475  0.23742301  1  0.062272  0  0.09343  0.088949  0  1.022118  0
H  H68  1  0.32788208  0.76278914  0.89514858  1  0.061387  0  0.094348  0.090778  0  1.023049  0
H  H69  1  0.82788162  0.89515013  0.76278988  1  0.061341  0  0.094327  0.090719  0  1.023113  0
H  H70  1  0.93261057  0.86760967  0.10497557  1  0.064142  0  0.09514  0.090947  0  1.023544  0
H  H71  1  0.06481475  0.23742254  0.13228487  1  0.062275  0  0.093427  0.08897  0  1.022147  0
H  H72  1  0.53011098  0.26793575  0.88006990  1  0.068105  0  0.089941  0.083095  0  1.067505  0
H  H73  1  0.65007168  0.11997374  0.38797848  1  0.066486  0  0.091081  0.0836  0  1.067516  0
H  H74  1  0.26238950  0.61223355  0.73223537  1  0.069296  0  0.090948  0.083529  0  1.068384  0
H  H75  1  0.76238898  0.73223709  0.61223233  1  0.069269  0  0.090964  0.083592  0  1.068343  0
H  H76  1  0.03011046  0.88007061  0.26793675  1  0.068308  0  0.089913  0.083068  0  1.067535  0
H  H77  1  0.15007270  0.38797829  0.11997348  1  0.066496  0  0.091058  0.083568  0  1.067534  0
H  H78  1  0.95211545  0.52175841  0.02006992  1  0.045532  0  0.079259  0.111031  0  1.054189  0
H  H79  1  0.93205054  0.97981541  0.50172707  1  0.050562  0  0.079553  0.111175  0  1.055087  0
H  H80  1  0.43021099  0.49834418  0.47818887  1  0.052418  0  0.079908  0.111139  0  1.054378  0
H  H81  1  0.93020920  0.47818964  0.49834363  1  0.052438  0  0.079893  0.111062  0  1.054455  0
H  H82  1  0.45211712  0.02006712  0.52175594  1  0.045417  0  0.07927  0.111087  0  1.054137  0
H  H83  1  0.43205133  0.50172832  0.97981753  1  0.050613  0  0.079571  0.111197  0  1.05516  0
H  H84  1  0.93557626  0.39504958  0.96257075  1  0.028508  0  0.082017  0.117667  0  1.016805  0
H  H85  1  0.97293407  0.03731516  0.43248017  1  0.026458  0  0.081796  0.116938  0  1.01784  0
H  H86  1  0.54052254  0.56753818  0.60488561  1  0.027578  0  0.08123  0.116345  0  1.017555  0
H  H87  1  0.04052211  0.60488637  0.56753962  1  0.02759  0  0.081234  0.116322  0  1.017569  0
H  H88  1  0.43557703  0.96257014  0.39504751  1  0.028448  0  0.08204  0.117705  0  1.016786  0
H  H89  1  0.47293520  0.43247995  0.03731575  1  0.026428  0  0.08179  0.116924  0  1.017822  0
H  H90  1  0.99555146  0.46721784  0.09337031  1  0.012532  0  0.076763  0.100038  0  1.042691  0
H  H91  1  0.90196595  0.90651128  0.37384679  1  0.009832  0  0.076117  0.100393  0  1.042799  0
H  H92  1  0.52816042  0.62619250  0.53273482  1  0.009689  0  0.075796  0.099071  0  1.042968  0
H  H93  1  0.02815590  0.53273333  0.62619149  1  0.00974  0  0.075815  0.099063  0  1.04296  0
H  H94  1  0.49555258  0.09337006  0.46721745  1  0.012533  0  0.076771  0.10007  0  1.042667  0
H  H95  1  0.40196698  0.37384761  0.90651205  1  0.009847  0  0.076119  0.100403  0  1.042794  0
C  C96  1  0.30158535  0.72980925  0.21176339  1  1.568321  0  0.234492  0.628456  0  4.086714  0
C  C97  1  0.08975096  0.78808107  0.51796352  1  1.565141  0  0.234617  0.628205  0  4.083756  0
C  C98  1  0.57164536  0.48196452  0.27014984  1  1.570585  0  0.23474  0.629529  0  4.085266  0
C  C99  1  0.07164723  0.27015306  0.48196635  1  1.570587  0  0.234763  0.629565  0  4.085104  0
C  C100  1  0.80158579  0.21176286  0.72980948  1  1.568236  0  0.234523  0.628506  0  4.086638  0
C  C101  1  0.58975145  0.51796308  0.78808199  1  1.565104  0  0.234578  0.62811  0  4.08393  0
C  C102  1  0.15450144  0.64763752  0.98125182  1  1.384986  0  0.239938  0.488241  0  4.155413  0
C  C103  1  0.17299934  0.01848868  0.66606761  1  1.375742  0  0.242226  0.490499  0  4.15459  0
C  C104  1  0.50653723  0.33385141  0.35241622  1  1.384248  0  0.242027  0.489607  0  4.156972  0
C  C105  1  0.00653849  0.35241755  0.33385209  1  1.384273  0  0.242014  0.489583  0  4.156972  0
C  C106  1  0.65449967  0.98124945  0.64763624  1  1.385014  0  0.240014  0.488339  0  4.155317  0
C  C107  1  0.67300104  0.66606754  0.01848801  1  1.375721  0  0.242277  0.490594  0  4.154487  0
C  C108  1  0.24529925  0.53727812  0.84745204  1  0.388747  0  0.027592  -0.000728  0  3.941001  0
C  C109  1  0.39777222  0.15231806  0.68967209  1  0.37345  0  0.028662  4.6e-05  0  3.938813  0
C  C110  1  0.70776066  0.31048548  0.46277222  1  0.408292  0  0.028856  0.000859  0  3.941338  0
C  C111  1  0.20776104  0.46277326  0.31048526  1  0.408267  0  0.028882  0.000918  0  3.941216  0
C  C112  1  0.74529866  0.84745002  0.53727593  1  0.388568  0  0.027613  -0.000684  0  3.940886  0
C  C113  1  0.89777594  0.68967447  0.15231977  1  0.373595  0  0.028601  -1.1e-05  0  3.938882  0
C  C114  1  0.31006739  0.77743582  0.14694977  1  0.291138  0  -0.053445  -0.155392  0  3.887814  0
C  C115  1  0.16294633  0.85286450  0.63042606  1  0.306326  0  -0.056116  -0.158014  0  3.891727  0
C  C116  1  0.53241638  0.36952041  0.22248617  1  0.299881  0  -0.054519  -0.156456  0  3.889467  0
C  C117  1  0.03241943  0.22248888  0.36952314  1  0.30003  0  -0.054453  -0.156376  0  3.889405  0
C  C118  1  0.81006695  0.14694780  0.77743421  1  0.291119  0  -0.0535  -0.15539  0  3.887715  0
C  C119  1  0.66294833  0.63042596  0.85286486  1  0.305986  0  -0.056172  -0.158199  0  3.891873  0
C  C120  1  0.13969619  0.56452282  0.88663180  1  0.022324  0  -0.035191  -0.144902  0  4.043777  0
C  C121  1  0.25292769  0.11308639  0.67757973  1  0.015011  0  -0.03558  -0.14669  0  4.045667  0
C  C122  1  0.57492315  0.32245703  0.43560256  1  -0.019515  0  -0.036185  -0.146623  0  4.047905  0
C  C123  1  0.07492446  0.43560265  0.32245542  1  -0.01954  0  -0.036207  -0.146616  0  4.047959  0
C  C124  1  0.63969420  0.88662919  0.56452072  1  0.022679  0  -0.035211  -0.14499  0  4.043898  0
C  C125  1  0.75292944  0.67758098  0.11308665  1  0.015047  0  -0.035612  -0.14678  0  4.045627  0
C  C126  1  0.00942626  0.48968499  0.81638927  1  0.376544  0  0.029089  0.003365  0  3.941285  0
C  C127  1  0.19296061  0.18336147  0.67303548  1  0.441388  0  0.02909  0.004759  0  3.941486  0
C  C128  1  0.51949976  0.32689941  0.51040770  1  0.429048  0  0.028525  0.003162  0  3.943809  0
C  C129  1  0.01950081  0.51040802  0.32689981  1  0.429113  0  0.028541  0.003161  0  3.943763  0
C  C130  1  0.50942565  0.81638648  0.48968362  1  0.376353  0  0.029139  0.00356  0  3.941074  0
C  C131  1  0.69296272  0.67303621  0.18336186  1  0.441542  0  0.029082  0.004765  0  3.941469  0
C  C132  1  0.76491993  0.42590771  0.02066071  1  0.014963  0  -0.165901  -0.143335  0  3.969388  0
C  C133  1  0.74425515  0.97936803  0.40542412  1  0.004502  0  -0.16459  -0.141786  0  3.967591  0
C  C134  1  0.33898207  0.59477867  0.57418564  1  0.025193  0  -0.16577  -0.141998  0  3.96902  0
C  C135  1  0.83898253  0.57418636  0.59477773  1  0.025607  0  -0.165777  -0.141996  0  3.96921  0
C  C136  1  0.26492040  0.02065939  0.42590762  1  0.014897  0  -0.165928  -0.143375  0  3.969409  0
C  C137  1  0.24425716  0.40542363  0.97936977  1  0.004441  0  -0.164505  -0.141628  0  3.967371  0
C  C138  1  0.70839060  0.32693968  0.01373410  1  -0.005114  0  -0.011345  0.112792  0  3.95711  0
C  C139  1  0.69469116  0.98630608  0.31338914  1  -0.017971  0  -0.01119  0.113301  0  3.957138  0
C  C140  1  0.38163087  0.68682212  0.67315795  1  -0.066973  0  -0.012688  0.112382  0  3.956376  0
C  C141  1  0.88162996  0.67315799  0.68682083  1  -0.066951  0  -0.012691  0.112311  0  3.95645  0
C  C142  1  0.20839042  0.01373296  0.32693955  1  -0.005099  0  -0.011351  0.112791  0  3.9571  0
C  C143  1  0.19469196  0.31338746  0.98630685  1  -0.018169  0  -0.011226  0.113259  0  3.957198  0
C  C144  1  0.77761198  0.30622596  0.08460146  1  -0.061438  0  -0.101369  -0.149186  0  3.982945  0
C  C145  1  0.69315779  0.91545757  0.22184263  1  -0.103292  0  -0.102628  -0.149962  0  3.978748  0
C  C146  1  0.47156425  0.77836802  0.69381846  1  -0.043148  0  -0.101784  -0.14876  0  3.97827  0
C  C147  1  0.97156032  0.69381736  0.77836797  1  -0.043143  0  -0.101825  -0.148731  0  3.978262  0
C  C148  1  0.27761342  0.08460087  0.30622573  1  -0.06142  0  -0.101369  -0.149165  0  3.982875  0
C  C149  1  0.19315786  0.22184165  0.91545802  1  -0.103017  0  -0.102597  -0.149902  0  3.978805  0
C  C150  1  0.72336966  0.21506133  0.07853561  1  -0.11969  0  -0.098752  -0.085892  0  4.040193  0
C  C151  1  0.64487547  0.92145550  0.13670804  1  -0.042669  0  -0.098265  -0.083919  0  4.033528  0
C  C152  1  0.50863691  0.86349120  0.78499750  1  -0.071799  0  -0.096736  -0.082851  0  4.036409  0
C  C153  1  0.00863090  0.78499763  0.86349067  1  -0.071763  0  -0.096716  -0.082866  0  4.036229  0
C  C154  1  0.22336985  0.07853559  0.21506131  1  -0.119662  0  -0.098744  -0.085902  0  4.040238  0
C  C155  1  0.14487621  0.13670681  0.92145642  1  -0.04287  0  -0.09824  -0.083882  0  4.033507  0
C  C156  1  0.59883819  0.14270932  0.00060428  1  -0.0231  0  -0.104608  -0.101696  0  4.035712  0
C  C157  1  0.59809377  0.99929874  0.14222329  1  -0.070896  0  -0.104169  -0.105266  0  4.033189  0
C  C158  1  0.45652390  0.85795204  0.85738524  1  -0.035261  0  -0.103835  -0.104351  0  4.034723  0
C  C159  1  0.95652230  0.85738706  0.85795064  1  -0.035312  0  -0.103836  -0.104386  0  4.034695  0
C  C160  1  0.09883762  0.00060420  0.14270998  1  -0.023103  0  -0.104617  -0.101697  0  4.035793  0
C  C161  1  0.09809561  0.14222373  0.99930047  1  -0.071096  0  -0.104133  -0.105194  0  4.033355  0
C  C162  1  0.52946703  0.16148444  0.92882203  1  -0.107409  0  -0.097198  -0.078025  0  4.038351  0
C  C163  1  0.60051376  0.07109710  0.23276555  1  -0.029014  0  -0.0958  -0.073671  0  4.032079  0
C  C164  1  0.36831196  0.76742283  0.83863749  1  -0.064499  0  -0.097975  -0.076846  0  4.036636  0
C  C165  1  0.86831042  0.83863917  0.76742322  1  -0.064444  0  -0.097945  -0.076735  0  4.036704  0
C  C166  1  0.02946787  0.92882283  0.16148532  1  -0.107434  0  -0.097176  -0.077939  0  4.038402  0
C  C167  1  0.10051500  0.23276518  0.07109795  1  -0.029054  0  -0.095739  -0.073654  0  4.032249  0
C  C168  1  0.58431277  0.25301359  0.93586142  1  -0.025733  0  -0.099443  -0.152341  0  4.004773  0
C  C169  1  0.64843234  0.06413940  0.31728250  1  -0.086815  0  -0.100768  -0.154151  0  4.004853  0
C  C170  1  0.33157963  0.68291342  0.74713321  1  -0.071299  0  -0.099535  -0.153577  0  4.005847  0
C  C171  1  0.83157573  0.74713354  0.68291271  1  -0.071335  0  -0.099547  -0.153637  0  4.005775  0
C  C172  1  0.08431219  0.93586122  0.25301323  1  -0.02596  0  -0.099397  -0.152334  0  4.004772  0
C  C173  1  0.14843309  0.31728188  0.06414037  1  -0.086677  0  -0.100824  -0.15422  0  4.004994  0
C  C174  1  0.92105362  0.45416308  0.02453238  1  -0.07202  0  -0.255013  -0.352283  0  3.93954  0
C  C175  1  0.89646005  0.97537068  0.42968317  1  -0.071085  0  -0.254976  -0.352537  0  3.940676  0
C  C176  1  0.46676999  0.57038695  0.54580136  1  -0.077045  0  -0.253319  -0.349921  0  3.939317  0
C  C177  1  0.96676747  0.54580219  0.57038682  1  -0.077091  0  -0.253334  -0.349805  0  3.939445  0
C  C178  1  0.42105503  0.02453115  0.45416222  1  -0.071873  0  -0.255042  -0.352431  0  3.939519  0
C  C179  1  0.39646249  0.42968403  0.97537195  1  -0.071058  0  -0.254999  -0.352595  0  3.940742  0
N  N180  1  0.18203238  0.45269960  0.76055651  1  -0.799757  0  -0.283787  -0.20381  0  3.626747  0
N  N181  1  0.42147945  0.23928626  0.69211916  1  -0.819335  0  -0.281626  -0.201727  0  3.624374  0
N  N182  1  0.72910153  0.30801313  0.54727914  1  -0.804466  0  -0.282473  -0.202348  0  3.626574  0
N  N183  1  0.22910147  0.54728001  0.30801229  1  -0.804453  0  -0.282486  -0.202396  0  3.626594  0
N  N184  1  0.68203186  0.76055323  0.45269729  1  -0.799697  0  -0.283755  -0.203794  0  3.626698  0
N  N185  1  0.92148063  0.69211937  0.23928620  1  -0.819549  0  -0.281581  -0.201668  0  3.624306  0
N  N186  1  0.03628606  0.42291836  0.74115672  1  -0.814351  0  -0.277593  -0.212115  0  3.622256  0
N  N187  1  0.29513458  0.25867976  0.68167059  1  -0.811673  0  -0.279869  -0.214644  0  3.620439  0
N  N188  1  0.61314618  0.31831800  0.57708763  1  -0.816624  0  -0.279183  -0.21393  0  3.623814  0
N  N189  1  0.11314583  0.57708867  0.31831752  1  -0.816651  0  -0.279202  -0.213942  0  3.623767  0
N  N190  1  0.53628619  0.74115355  0.42291632  1  -0.814494  0  -0.277674  -0.212246  0  3.622279  0
N  N191  1  0.79513600  0.68167116  0.25868032  1  -0.811683  0  -0.279867  -0.214643  0  3.620313  0
N  N192  1  0.28962384  0.70596821  0.04645075  1  -1.231801  0  -0.414987  -0.334267  0  3.538017  0
N  N193  1  0.24297464  0.95337102  0.65943632  1  -1.244774  0  -0.415253  -0.336717  0  3.538616  0
N  N194  1  0.58331256  0.34051614  0.29401165  1  -1.223928  0  -0.416229  -0.337015  0  3.541327  0
N  N195  1  0.08331550  0.29401322  0.34051727  1  -1.224213  0  -0.416225  -0.337009  0  3.541344  0
N  N196  1  0.78962295  0.04644895  0.70596569  1  -1.231816  0  -0.414956  -0.334241  0  3.537937  0
N  N197  1  0.74297656  0.65943586  0.95337057  1  -1.244689  0  -0.415228  -0.33658  0  3.538565  0
O  O198  1  0.24375368  0.76224663  0.27710553  1  -1.201448  0  -0.314612  -0.532774  0  2.355237  0
O  O199  1  0.96656567  0.72271395  0.48496115  1  -1.201264  0  -0.314404  -0.531674  0  2.35421  0
O  O200  1  0.48137685  0.51494383  0.23783027  1  -1.201178  0  -0.314544  -0.532699  0  2.353939  0
O  O201  1  0.98138124  0.23783406  0.51494652  1  -1.201163  0  -0.314596  -0.532734  0  2.3539  0
O  O202  1  0.74375217  0.27710414  0.76224604  1  -1.201436  0  -0.314597  -0.532786  0  2.355258  0
O  O203  1  0.46656631  0.48496154  0.72271439  1  -1.201248  0  -0.314402  -0.531626  0  2.354265  0
O  O204  1  0.35708672  0.66229750  0.19729249  1  -1.178341  0  -0.309279  -0.518894  0  2.339398  0
O  O205  1  0.15986237  0.80269657  0.46503793  1  -1.176127  0  -0.308269  -0.518625  0  2.339252  0
O  O206  1  0.69476454  0.53491765  0.33758420  1  -1.178962  0  -0.308868  -0.519138  0  2.340167  0
O  O207  1  0.19476409  0.33758744  0.53491843  1  -1.179032  0  -0.308868  -0.519183  0  2.340188  0
O  O208  1  0.85708637  0.19729179  0.66229702  1  -1.17834  0  -0.309291  -0.518933  0  2.339343  0
O  O209  1  0.65986342  0.46503744  0.80269662  1  -1.176156  0  -0.308235  -0.518547  0  2.33928  0
O  O210  1  0.04557622  0.66308796  0.00133347  1  -1.178205  0  -0.300569  -0.520228  0  2.198626  0
O  O211  1  0.04389946  0.99839663  0.66123373  1  -1.185218  0  -0.303969  -0.522292  0  2.200604  0
O  O212  1  0.38221578  0.33855615  0.33696987  1  -1.185629  0  -0.302051  -0.520944  0  2.199761  0
O  O213  1  0.88221588  0.33697070  0.33855586  1  -1.185608  0  -0.302018  -0.520906  0  2.199728  0
O  O214  1  0.54557465  0.00133178  0.66308713  1  -1.178205  0  -0.300627  -0.520325  0  2.198552  0
O  O215  1  0.54390058  0.66123443  0.99839714  1  -1.185183  0  -0.304006  -0.52237  0  2.200612  0
