# generated using pymatgen
data_GdPH6(CO4)2
_symmetry_space_group_name_H-M   'P 1'
_cell_length_a   7.55322150
_cell_length_b   8.52740165
_cell_length_c   12.23906108
_cell_angle_alpha   93.72431480
_cell_angle_beta   89.99977469
_cell_angle_gamma   89.99975766
_symmetry_Int_Tables_number   1
_chemical_formula_structural   GdPH6(CO4)2
_chemical_formula_sum   'Gd4 P4 H24 C8 O32'
_cell_volume   786.64521358
_cell_formula_units_Z   4
loop_
 _symmetry_equiv_pos_site_id
 _symmetry_equiv_pos_as_xyz
  1  'x, y, z'
loop_
 _atom_site_type_symbol
 _atom_site_label
 _atom_site_symmetry_multiplicity
 _atom_site_fract_x
 _atom_site_fract_y
 _atom_site_fract_z
 _atom_site_occupancy
 _atom_site_hle17_bader_spin_density
 _atom_site_hle17_ddec_charge
 _atom_site_hle17_ddec_spin_density
 _atom_site_hle17_ddec_sum_bond_order
 _atom_site_hle17_magmom
 _atom_site_hse06_10hf_bader_spin_density
 _atom_site_hse06_10hf_ddec_charge
 _atom_site_hse06_10hf_ddec_spin_density
 _atom_site_hse06_10hf_ddec_sum_bond_order
 _atom_site_hse06_10hf_magmom
 _atom_site_hse06_bader_spin_density
 _atom_site_hse06_ddec_charge
 _atom_site_hse06_ddec_spin_density
 _atom_site_hse06_ddec_sum_bond_order
 _atom_site_hse06_magmom
 _atom_site_pbe_bader_spin_density
 _atom_site_pbe_cm5_charge
 _atom_site_pbe_ddec_charge
 _atom_site_pbe_ddec_spin_density
 _atom_site_pbe_ddec_sum_bond_order
 _atom_site_pbe_magmom
Gd  Gd0  1  0.78340966  0.74942910  0.41759465  1  0  2.19766  0  1.790087  0  0  2.1113  0  2.13297  0  0  2.157536  0  2.086406  0  0  1.47894  2.074714  0  2.171428  0
Gd  Gd1  1  0.28340154  0.75057071  0.08240225  1  0  2.197482  0  1.790372  0  0  2.111207  0  2.133131  0  0  2.15749  0  2.086494  0  0  1.478864  2.074587  0  2.171642  0
Gd  Gd2  1  0.21659391  0.25057524  0.58240979  1  0  2.197656  0  1.790312  0  0  2.11121  0  2.133285  0  0  2.157458  0  2.086709  0  0  1.478864  2.074617  0  2.171752  0
Gd  Gd3  1  0.71658748  0.24942648  0.91759129  1  0  2.197636  0  1.790249  0  0  2.111283  0  2.133183  0  0  2.157568  0  2.086536  0  0  1.478935  2.07464  0  2.171733  0
P  P4  1  0.97142917  0.12409906  0.34472787  1  0  1.227582  0  4.575223  0  0  1.047807  0  5.051266  0  0  1.088885  0  5.027291  0  0  0.224344  1.019376  0  5.066888  0
P  P5  1  0.47142396  0.37590177  0.15526903  1  0  1.227561  0  4.575275  0  0  1.047866  0  5.051316  0  0  1.088949  0  5.027352  0  0  0.224311  1.019426  0  5.066943  0
P  P6  1  0.02857706  0.87590405  0.65527080  1  0  1.227699  0  4.575396  0  0  1.04793  0  5.051457  0  0  1.089019  0  5.027487  0  0  0.224381  1.019483  0  5.067091  0
P  P7  1  0.52856902  0.62409895  0.84472546  1  0  1.227538  0  4.575423  0  0  1.047756  0  5.051488  0  0  1.088837  0  5.027525  0  0  0.224302  1.019314  0  5.067111  0
H  H8  1  0.82045551  0.76403853  0.17494627  1  0  0.446767  0  0.845824  0  0  0.418229  0  0.904401  0  0  0.42941  0  0.88806  0  0  0.308429  0.41023  0  0.916101  0
H  H9  1  0.32046050  0.73595997  0.32505130  1  0  0.446741  0  0.845849  0  0  0.418201  0  0.904432  0  0  0.429381  0  0.888091  0  0  0.308417  0.410203  0  0.91613  0
H  H10  1  0.17954410  0.23595989  0.82505303  1  0  0.446753  0  0.845869  0  0  0.41824  0  0.904393  0  0  0.429416  0  0.888062  0  0  0.308449  0.410242  0  0.916091  0
H  H11  1  0.67954970  0.26404079  0.67494728  1  0  0.446773  0  0.845836  0  0  0.418242  0  0.904399  0  0  0.429422  0  0.888059  0  0  0.308434  0.410243  0  0.916099  0
H  H12  1  0.64706349  0.65221381  0.18925080  1  0  0.446681  0  0.853359  0  0  0.414758  0  0.91839  0  0  0.425523  0  0.902742  0  0  0.307681  0.407202  0  0.929322  0
H  H13  1  0.14706804  0.84778541  0.31075050  1  0  0.446674  0  0.853379  0  0  0.414757  0  0.918399  0  0  0.425521  0  0.902751  0  0  0.307681  0.407201  0  0.929332  0
H  H14  1  0.35293612  0.34778933  0.81075114  1  0  0.446645  0  0.853411  0  0  0.414727  0  0.918429  0  0  0.425493  0  0.902781  0  0  0.307684  0.407171  0  0.929362  0
H  H15  1  0.85294083  0.15221067  0.68925034  1  0  0.446654  0  0.853392  0  0  0.414731  0  0.918418  0  0  0.425499  0  0.902766  0  0  0.307676  0.407174  0  0.929352  0
H  H16  1  0.01736528  0.54375612  0.27261218  1  0  0.44495  0  0.847952  0  0  0.414408  0  0.911367  0  0  0.42552  0  0.89485  0  0  0.304405  0.406489  0  0.923114  0
H  H17  1  0.51735905  0.95624243  0.22738860  1  0  0.444849  0  0.848069  0  0  0.414314  0  0.911471  0  0  0.42543  0  0.89495  0  0  0.304388  0.406393  0  0.923219  0
H  H18  1  0.98263565  0.45624465  0.72738803  1  0  0.445073  0  0.847853  0  0  0.414548  0  0.911221  0  0  0.425663  0  0.894701  0  0  0.304471  0.406629  0  0.922968  0
H  H19  1  0.48263261  0.04375483  0.77261311  1  0  0.445079  0  0.847858  0  0  0.414536  0  0.911253  0  0  0.425649  0  0.894736  0  0  0.304461  0.406616  0  0.923001  0
H  H20  1  0.09253818  0.52397780  0.39327230  1  0  0.448517  0  0.843461  0  0  0.420082  0  0.901522  0  0  0.431195  0  0.885343  0  0  0.307635  0.412179  0  0.913004  0
H  H21  1  0.59252598  0.97602397  0.10672761  1  0  0.448633  0  0.843304  0  0  0.420119  0  0.901509  0  0  0.431243  0  0.885327  0  0  0.307657  0.412207  0  0.913002  0
H  H22  1  0.90747070  0.47603354  0.60672752  1  0  0.44862  0  0.84331  0  0  0.420108  0  0.901499  0  0  0.431228  0  0.885322  0  0  0.307598  0.412185  0  0.913008  0
H  H23  1  0.40746568  0.02397212  0.89327323  1  0  0.448533  0  0.843435  0  0  0.420071  0  0.901536  0  0  0.43119  0  0.885357  0  0  0.30762  0.412161  0  0.913025  0
H  H24  1  0.81399704  0.17405282  0.29508033  1  0  -0.099005  0  0.875783  0  0  -0.06902  0  0.95765  0  0  -0.071377  0  0.954041  0  0  0.094445  -0.06772  0  0.960582  0
H  H25  1  0.31399309  0.32595220  0.20492040  1  0  -0.09898  0  0.875793  0  0  -0.069045  0  0.957705  0  0  -0.071405  0  0.954099  0  0  0.094463  -0.067737  0  0.960634  0
H  H26  1  0.18601051  0.82595150  0.70492166  1  0  -0.099005  0  0.875785  0  0  -0.069074  0  0.957723  0  0  -0.071431  0  0.954115  0  0  0.094446  -0.067765  0  0.960651  0
H  H27  1  0.68600387  0.67404971  0.79507495  1  0  -0.09898  0  0.875751  0  0  -0.069013  0  0.957635  0  0  -0.07137  0  0.954028  0  0  0.094444  -0.067708  0  0.960564  0
H  H28  1  0.10680620  0.15599536  0.26926332  1  0  -0.105167  0  0.87075  0  0  -0.074563  0  0.953111  0  0  -0.076705  0  0.948912  0  0  0.094122  -0.073398  0  0.956423  0
H  H29  1  0.60680445  0.34400220  0.23073192  1  0  -0.105127  0  0.870698  0  0  -0.074553  0  0.953087  0  0  -0.076697  0  0.94889  0  0  0.094123  -0.073385  0  0.956397  0
H  H30  1  0.89320135  0.84401012  0.73073791  1  0  -0.105177  0  0.870731  0  0  -0.074568  0  0.953085  0  0  -0.07671  0  0.948886  0  0  0.094098  -0.073404  0  0.956402  0
H  H31  1  0.39319251  0.65599258  0.76925662  1  0  -0.105192  0  0.870767  0  0  -0.074573  0  0.953119  0  0  -0.076715  0  0.94892  0  0  0.094113  -0.073407  0  0.95643  0
C  C32  1  0.57168970  0.46761056  0.53772663  1  0  0.570209  0  3.90066  0  0  0.523819  0  4.203212  0  0  0.553561  0  4.194611  0  0  0.233295  0.503631  0  4.208113  0
C  C33  1  0.07168554  0.03239412  0.96227738  1  0  0.569979  0  3.900899  0  0  0.523603  0  4.203511  0  0  0.553346  0  4.19492  0  0  0.233231  0.503418  0  4.208404  0
C  C34  1  0.42832976  0.53239017  0.46226868  1  0  0.569874  0  3.901343  0  0  0.523508  0  4.203898  0  0  0.553286  0  4.195256  0  0  0.233176  0.503309  0  4.208813  0
C  C35  1  0.92832068  0.96761381  0.03773293  1  0  0.570107  0  3.900828  0  0  0.523673  0  4.203471  0  0  0.553443  0  4.19485  0  0  0.233263  0.503475  0  4.208382  0
C  C36  1  0.48562050  0.02553991  0.44083785  1  0  0.573304  0  3.904994  0  0  0.528989  0  4.207127  0  0  0.559338  0  4.197121  0  0  0.222691  0.5084  0  4.212989  0
C  C37  1  0.98560331  0.47445153  0.05916600  1  0  0.573292  0  3.905131  0  0  0.529005  0  4.207197  0  0  0.559351  0  4.197194  0  0  0.222691  0.508414  0  4.213058  0
C  C38  1  0.51439632  0.97444437  0.55915762  1  0  0.573161  0  3.904916  0  0  0.528812  0  4.207072  0  0  0.559162  0  4.197068  0  0  0.222612  0.508222  0  4.212931  0
C  C39  1  0.01438041  0.52554579  0.94084143  1  0  0.572978  0  3.905121  0  0  0.528688  0  4.207237  0  0  0.559037  0  4.19724  0  0  0.222722  0.508095  0  4.213095  0
O  O40  1  0.72353736  0.52926983  0.53370520  1  0  -0.631755  0  2.093106  0  0  -0.583503  0  2.32468  0  0  -0.607616  0  2.315891  0  0  -0.327161  -0.566369  0  2.330293  0
O  O41  1  0.22353506  0.97073363  0.96629713  1  0  -0.631574  0  2.093101  0  0  -0.58336  0  2.324671  0  0  -0.60748  0  2.315884  0  0  -0.327111  -0.566229  0  2.330288  0
O  O42  1  0.27646225  0.47072977  0.46629496  1  0  -0.631618  0  2.092659  0  0  -0.583415  0  2.3242  0  0  -0.607536  0  2.315395  0  0  -0.327181  -0.566284  0  2.329817  0
O  O43  1  0.77645263  0.02926951  0.03370482  1  0  -0.631801  0  2.092634  0  0  -0.583522  0  2.324227  0  0  -0.607657  0  2.315425  0  0  -0.327259  -0.56638  0  2.329851  0
O  O44  1  0.58586976  0.96133873  0.36763864  1  0  -0.669403  0  2.13281  0  0  -0.618101  0  2.36917  0  0  -0.643121  0  2.36026  0  0  -0.34494  -0.600341  0  2.374851  0
O  O45  1  0.08587292  0.53865838  0.13236273  1  0  -0.66944  0  2.132505  0  0  -0.618148  0  2.368834  0  0  -0.643168  0  2.359925  0  0  -0.34496  -0.600379  0  2.374517  0
O  O46  1  0.41411925  0.03867384  0.63236614  1  0  -0.669586  0  2.132006  0  0  -0.618198  0  2.368307  0  0  -0.643224  0  2.359406  0  0  -0.34501  -0.600431  0  2.37398  0
O  O47  1  0.91411079  0.46132476  0.86763595  1  0  -0.669344  0  2.132236  0  0  -0.618096  0  2.368612  0  0  -0.643123  0  2.359708  0  0  -0.34505  -0.600324  0  2.374291  0
O  O48  1  0.96490547  0.94503306  0.35076686  1  0  -0.867897  0  2.101782  0  0  -0.788719  0  2.37216  0  0  -0.814076  0  2.354871  0  0  -0.439936  -0.770252  0  2.383342  0
O  O49  1  0.46490051  0.55497075  0.14923220  1  0  -0.86788  0  2.101811  0  0  -0.7887  0  2.372138  0  0  -0.814076  0  2.354857  0  0  -0.439898  -0.770229  0  2.383324  0
O  O50  1  0.03510869  0.05497483  0.64923936  1  0  -0.867993  0  2.101883  0  0  -0.788737  0  2.372201  0  0  -0.814125  0  2.35493  0  0  -0.439888  -0.770261  0  2.383381  0
O  O51  1  0.53509910  0.44503112  0.85075989  1  0  -0.867882  0  2.101836  0  0  -0.788682  0  2.372198  0  0  -0.814056  0  2.354914  0  0  -0.439935  -0.770198  0  2.383379  0
O  O52  1  0.74864771  0.70678085  0.22734458  1  0  -0.920296  0  1.877916  0  0  -0.874775  0  2.076419  0  0  -0.894604  0  2.043611  0  0  -0.65929  -0.860296  0  2.099424  0
O  O53  1  0.24864746  0.79321913  0.27265487  1  0  -0.920236  0  1.877968  0  0  -0.87474  0  2.076483  0  0  -0.894577  0  2.043676  0  0  -0.659263  -0.860255  0  2.099488  0
O  O54  1  0.25135455  0.29321527  0.77265953  1  0  -0.920231  0  1.878009  0  0  -0.874744  0  2.076575  0  0  -0.894575  0  2.043764  0  0  -0.659335  -0.860267  0  2.099582  0
O  O55  1  0.75135347  0.20678044  0.72734203  1  0  -0.92024  0  1.877953  0  0  -0.874753  0  2.076506  0  0  -0.894589  0  2.043687  0  0  -0.659306  -0.860266  0  2.099516  0
O  O56  1  0.98660575  0.55454820  0.35157328  1  0  -0.914085  0  1.859135  0  0  -0.874807  0  2.051905  0  0  -0.893565  0  2.017728  0  0  -0.653758  -0.86098  0  2.075945  0
O  O57  1  0.48659629  0.94544848  0.14842626  1  0  -0.914021  0  1.859079  0  0  -0.87476  0  2.05193  0  0  -0.893496  0  2.017624  0  0  -0.653744  -0.860915  0  2.075982  0
O  O58  1  0.01340312  0.44545499  0.64843275  1  0  -0.914295  0  1.859043  0  0  -0.874982  0  2.051918  0  0  -0.893727  0  2.01765  0  0  -0.653785  -0.861135  0  2.075989  0
O  O59  1  0.51339935  0.05454636  0.85156718  1  0  -0.91421  0  1.859108  0  0  -0.874932  0  2.051984  0  0  -0.893678  0  2.017719  0  0  -0.653809  -0.861089  0  2.076044  0
O  O60  1  0.47635423  0.64128839  0.40291272  1  0  -0.649631  0  2.093518  0  0  -0.601331  0  2.324845  0  0  -0.626711  0  2.317785  0  0  -0.32878  -0.583311  0  2.329262  0
O  O61  1  0.97634662  0.85870715  0.09708598  1  0  -0.649735  0  2.093239  0  0  -0.601423  0  2.324593  0  0  -0.626815  0  2.317555  0  0  -0.328833  -0.583397  0  2.32901  0
O  O62  1  0.52364935  0.35869716  0.59709179  1  0  -0.649841  0  2.0926  0  0  -0.601521  0  2.32392  0  0  -0.626899  0  2.316881  0  0  -0.328914  -0.583498  0  2.328327  0
O  O63  1  0.02363710  0.14129831  0.90291197  1  0  -0.649745  0  2.092849  0  0  -0.601441  0  2.324173  0  0  -0.62682  0  2.317134  0  0  -0.328893  -0.583412  0  2.328579  0
O  O64  1  0.63371249  0.87431240  0.57330289  1  0  -0.657624  0  2.059486  0  0  -0.62211  0  2.306471  0  0  -0.645682  0  2.298289  0  0  -0.363444  -0.605333  0  2.311623  0
O  O65  1  0.13370943  0.62568203  0.92670012  1  0  -0.657636  0  2.059421  0  0  -0.622145  0  2.306379  0  0  -0.645724  0  2.298202  0  0  -0.363539  -0.605359  0  2.311532  0
O  O66  1  0.36629241  0.12569899  0.42670102  1  0  -0.657915  0  2.05888  0  0  -0.622412  0  2.305881  0  0  -0.645995  0  2.297705  0  0  -0.363602  -0.60563  0  2.311034  0
O  O67  1  0.86628752  0.37429765  0.07330496  1  0  -0.657823  0  2.059232  0  0  -0.62233  0  2.306207  0  0  -0.645912  0  2.298023  0  0  -0.363555  -0.605541  0  2.311362  0
O  O68  1  0.00220609  0.77875969  0.54838563  1  0  -0.840351  0  2.03282  0  0  -0.771971  0  2.308439  0  0  -0.797036  0  2.292393  0  0  -0.4584  -0.753733  0  2.318801  0
O  O69  1  0.50219561  0.72124694  0.95161002  1  0  -0.84029  0  2.032848  0  0  -0.771885  0  2.308397  0  0  -0.796969  0  2.292368  0  0  -0.458292  -0.753641  0  2.318761  0
O  O70  1  0.99780410  0.22124932  0.45161573  1  0  -0.840321  0  2.032636  0  0  -0.771897  0  2.30823  0  0  -0.796966  0  2.292191  0  0  -0.458339  -0.753658  0  2.318586  0
O  O71  1  0.49779208  0.27875492  0.04838125  1  0  -0.840333  0  2.032717  0  0  -0.771977  0  2.308365  0  0  -0.79704  0  2.292291  0  0  -0.458351  -0.75373  0  2.31873  0
