# generated using pymatgen
data_ZnH13C20N3O4
_symmetry_space_group_name_H-M   'P 1'
_cell_length_a   8.21456605
_cell_length_b   8.00023285
_cell_length_c   12.90983844
_cell_angle_alpha   74.99133536
_cell_angle_beta   84.08904664
_cell_angle_gamma   79.36154441
_symmetry_Int_Tables_number   1
_chemical_formula_structural   ZnH13C20N3O4
_chemical_formula_sum   'Zn2 H26 C40 N6 O8'
_cell_volume   804.02531301
_cell_formula_units_Z   2
loop_
 _symmetry_equiv_pos_site_id
 _symmetry_equiv_pos_as_xyz
  1  'x, y, z'
loop_
 _atom_site_type_symbol
 _atom_site_label
 _atom_site_symmetry_multiplicity
 _atom_site_fract_x
 _atom_site_fract_y
 _atom_site_fract_z
 _atom_site_occupancy
 _atom_site_hse06_10hf_bader_spin_density
 _atom_site_hse06_10hf_ddec_charge
 _atom_site_hse06_10hf_ddec_spin_density
 _atom_site_hse06_10hf_ddec_sum_bond_order
 _atom_site_hse06_10hf_magmom
 _atom_site_hse06_bader_spin_density
 _atom_site_hse06_ddec_charge
 _atom_site_hse06_ddec_spin_density
 _atom_site_hse06_ddec_sum_bond_order
 _atom_site_hse06_magmom
 _atom_site_pbe_bader_spin_density
 _atom_site_pbe_cm5_charge
 _atom_site_pbe_ddec_charge
 _atom_site_pbe_ddec_spin_density
 _atom_site_pbe_ddec_sum_bond_order
 _atom_site_pbe_magmom
Zn  Zn0  1  0.98750279  0.38398918  0.17863010  1  0  0.789694  0  2.234915  0  0  0.839277  0  2.184155  0  0  0.67812  0.755188  0  2.269591  0
Zn  Zn1  1  0.01250226  0.61600577  0.82136922  1  0  0.789712  0  2.234894  0  0  0.839295  0  2.184135  0  0  0.678112  0.755202  0  2.269581  0
H  H2  1  0.79825436  0.44296445  0.02129053  1  0  0.307435  0  0.972424  0  0  0.3149  0  0.96645  0  0  0.294949  0.302095  0  0.97671  0
H  H3  1  0.20175312  0.55703052  0.97870941  1  0  0.307418  0  0.972463  0  0  0.314885  0  0.966489  0  0  0.294932  0.302075  0  0.976757  0
H  H4  1  0.95497921  0.28925754  0.00475418  1  0  0.305682  0  0.966567  0  0  0.312925  0  0.961012  0  0  0.293275  0.300504  0  0.970553  0
H  H5  1  0.04502951  0.71073744  0.99524413  1  0  0.305735  0  0.966438  0  0  0.312977  0  0.960883  0  0  0.293298  0.300557  0  0.97042  0
H  H6  1  0.49090519  0.55035779  0.33923030  1  0  0.121024  0  1.037433  0  0  0.124884  0  1.035189  0  0  0.106267  0.118197  0  1.039277  0
H  H7  1  0.50909431  0.44964105  0.66077029  1  0  0.12101  0  1.037431  0  0  0.12487  0  1.035188  0  0  0.106257  0.118184  0  1.039272  0
H  H8  1  0.93585923  0.12686758  0.69204917  1  0  0.139622  0  1.00677  0  0  0.142858  0  1.004908  0  0  0.112074  0.137181  0  1.008309  0
H  H9  1  0.06414050  0.87312995  0.30795007  1  0  0.139641  0  1.006755  0  0  0.142878  0  1.004892  0  0  0.112083  0.1372  0  1.008292  0
H  H10  1  0.31847143  0.54588401  0.19552213  1  0  0.105642  0  0.974795  0  0  0.108275  0  0.972294  0  0  0.12569  0.103634  0  0.976724  0
H  H11  1  0.68152764  0.45411746  0.80447884  1  0  0.105629  0  0.9748  0  0  0.10825  0  0.972311  0  0  0.125668  0.103623  0  0.97673  0
H  H12  1  0.69651468  0.05869078  0.61565727  1  0  0.127459  0  0.989724  0  0  0.130891  0  0.986998  0  0  0.112835  0.124885  0  0.991784  0
H  H13  1  0.30348129  0.94131461  0.38434558  1  0  0.127463  0  0.989752  0  0  0.130895  0  0.987026  0  0  0.112839  0.124886  0  0.991812  0
H  H14  1  0.40187164  0.41522331  0.53407111  1  0  0.108318  0  1.022298  0  0  0.110446  0  1.021196  0  0  0.107119  0.106758  0  1.023157  0
H  H15  1  0.59812563  0.58477420  0.46593062  1  0  0.108356  0  1.022279  0  0  0.110486  0  1.021175  0  0  0.107127  0.106797  0  1.023139  0
H  H16  1  0.66676254  0.21623977  0.26963555  1  0  0.084407  0  1.038492  0  0  0.085328  0  1.03884  0  0  0.116335  0.083624  0  1.038383  0
H  H17  1  0.33323185  0.78376035  0.73036748  1  0  0.084409  0  1.038501  0  0  0.085331  0  1.038845  0  0  0.116326  0.083618  0  1.038397  0
H  H18  1  0.19248021  0.26025781  0.66355452  1  0  0.113626  0  1.021124  0  0  0.115494  0  1.021403  0  0  0.105214  0.112149  0  1.021141  0
H  H19  1  0.80752051  0.73974105  0.33644599  1  0  0.113617  0  1.021172  0  0  0.115488  0  1.02145  0  0  0.105205  0.112141  0  1.021194  0
H  H20  1  0.54681629  0.08055980  0.44774819  1  0  0.108736  0  1.033701  0  0  0.111244  0  1.03366  0  0  0.104684  0.106939  0  1.033896  0
H  H21  1  0.45317659  0.91944951  0.55225500  1  0  0.108734  0  1.033682  0  0  0.111242  0  1.033639  0  0  0.104674  0.106931  0  1.033882  0
H  H22  1  0.94255465  0.96999772  0.09565087  1  0  0.128198  0  1.005586  0  0  0.132305  0  1.002689  0  0  0.107186  0.125224  0  1.007734  0
H  H23  1  0.05745085  0.02999459  0.90434575  1  0  0.128171  0  1.005557  0  0  0.132284  0  1.002644  0  0  0.107182  0.125192  0  1.007717  0
H  H24  1  0.52798071  0.39315032  0.07549080  1  0  0.123053  0  1.022369  0  0  0.126905  0  1.019247  0  0  0.107212  0.120238  0  1.024734  0
H  H25  1  0.47202881  0.60684729  0.92450626  1  0  0.122991  0  1.022386  0  0  0.126838  0  1.019267  0  0  0.107186  0.120174  0  1.024755  0
H  H26  1  0.44464290  0.85699436  0.16500675  1  0  0.114249  0  1.024679  0  0  0.118874  0  1.020916  0  0  0.102529  0.110931  0  1.027383  0
H  H27  1  0.55535780  0.14300452  0.83499764  1  0  0.114262  0  1.024733  0  0  0.118888  0  1.020968  0  0  0.102534  0.110943  0  1.02744  0
C  C28  1  0.09825665  0.34148074  0.39979279  1  0  0.122304  0  4.01674  0  0  0.126135  0  4.038918  0  0  0.118164  0.119779  0  4.001778  0
C  C29  1  0.90173566  0.65852461  0.60020798  1  0  0.122271  0  4.016709  0  0  0.126101  0  4.038885  0  0  0.118153  0.119751  0  4.001745  0
C  C30  1  0.37882290  0.49178608  0.36228037  1  0  -0.135766  0  3.987597  0  0  -0.142689  0  4.007991  0  0  -0.083696  -0.131265  0  3.973887  0
C  C31  1  0.62117373  0.50821536  0.63772076  1  0  -0.1358  0  3.987639  0  0  -0.142722  0  4.008028  0  0  -0.083746  -0.1313  0  3.973929  0
C  C32  1  0.18539616  0.33955926  0.48949937  1  0  0.033309  0  4.044547  0  0  0.031142  0  4.068515  0  0  -0.004904  0.034621  0  4.02833  0
C  C33  1  0.81459738  0.66044610  0.51050054  1  0  0.033312  0  4.044566  0  0  0.031147  0  4.068532  0  0  -0.004943  0.034621  0  4.02836  0
C  C34  1  0.95036165  0.26385446  0.41626227  1  0  0.120688  0  3.979906  0  0  0.125095  0  4.001369  0  0  0.118048  0.117716  0  3.965494  0
C  C35  1  0.04963312  0.73615091  0.58373756  1  0  0.120954  0  3.979778  0  0  0.125362  0  4.001239  0  0  0.118132  0.117972  0  3.96537  0
C  C36  1  0.98264213  0.18802641  0.61160330  1  0  -0.115191  0  3.947893  0  0  -0.118156  0  3.970709  0  0  -0.079851  -0.11307  0  3.932495  0
C  C37  1  0.01735593  0.81197374  0.38839717  1  0  -0.115216  0  3.947819  0  0  -0.118182  0  3.970635  0  0  -0.079841  -0.113091  0  3.93242  0
C  C38  1  0.28258579  0.48903186  0.27907616  1  0  0.131115  0  3.905115  0  0  0.139136  0  3.920842  0  0  0.066644  0.125836  0  3.894523  0
C  C39  1  0.71741164  0.51097222  0.72092371  1  0  0.131119  0  3.905141  0  0  0.139148  0  3.92087  0  0  0.06667  0.125839  0  3.894552  0
C  C40  1  0.74338830  0.11812783  0.53464685  1  0  -0.06862  0  3.91667  0  0  -0.065397  0  3.933067  0  0  -0.061003  -0.070494  0  3.905493  0
C  C41  1  0.25660646  0.88187755  0.46535453  1  0  -0.068612  0  3.916621  0  0  -0.065384  0  3.93301  0  0  -0.061007  -0.07048  0  3.905434  0
C  C42  1  0.33012474  0.41704850  0.46729965  1  0  -0.08625  0  3.959877  0  0  -0.084008  0  3.978679  0  0  -0.06937  -0.087432  0  3.946921  0
C  C43  1  0.66987045  0.58295425  0.53270213  1  0  -0.086267  0  3.959965  0  0  -0.084027  0  3.978769  0  0  -0.069333  -0.087446  0  3.94701  0
C  C44  1  0.73000195  0.20521276  0.34169018  1  0  0.130117  0  3.937131  0  0  0.139153  0  3.953711  0  0  0.064182  0.124256  0  3.925852  0
C  C45  1  0.26999260  0.79479392  0.65830868  1  0  0.130146  0  3.93709  0  0  0.13918  0  3.953673  0  0  0.064215  0.124293  0  3.925805  0
C  C46  1  0.12409613  0.26083694  0.59544476  1  0  -0.115686  0  3.981117  0  0  -0.119002  0  4.004296  0  0  -0.083926  -0.113343  0  3.965446  0
C  C47  1  0.87590071  0.73916319  0.40455579  1  0  -0.115668  0  3.981138  0  0  -0.118987  0  4.004315  0  0  -0.083901  -0.113334  0  3.965482  0
C  C48  1  0.89196279  0.18849904  0.52238707  1  0  0.042361  0  4.020946  0  0  0.039657  0  4.045663  0  0  -0.00028  0.043993  0  4.004303  0
C  C49  1  0.10802873  0.81150367  0.47761495  1  0  0.042278  0  4.020918  0  0  0.039572  0  4.045637  0  0  -0.000291  0.043913  0  4.004266  0
C  C50  1  0.66319402  0.12841745  0.44372137  1  0  -0.143693  0  4.019712  0  0  -0.150888  0  4.040891  0  0  -0.087181  -0.139038  0  4.005359  0
C  C51  1  0.33679706  0.87158790  0.55628180  1  0  -0.143704  0  4.01978  0  0  -0.1509  0  4.040962  0  0  -0.087203  -0.139048  0  4.005423  0
C  C52  1  0.76034557  0.69933809  0.15002619  1  0  0.579289  0  4.227242  0  0  0.613294  0  4.219011  0  0  0.195555  0.556258  0  4.232026  0
C  C53  1  0.23965559  0.30065814  0.84997317  1  0  0.579386  0  4.227256  0  0  0.613392  0  4.219024  0  0  0.195578  0.55635  0  4.232043  0
C  C54  1  0.28305422  0.18955286  0.13923639  1  0  0.582508  0  4.212482  0  0  0.615558  0  4.206879  0  0  0.195531  0.560154  0  4.215373  0
C  C55  1  0.71694994  0.81044736  0.86076601  1  0  0.582477  0  4.212337  0  0  0.615525  0  4.206733  0  0  0.195453  0.560125  0  4.215228  0
C  C56  1  0.46627808  0.13146266  0.12128910  1  0  -0.023422  0  4.020213  0  0  -0.030266  0  4.043117  0  0  -0.021032  -0.019114  0  4.004817  0
C  C57  1  0.53373021  0.86853494  0.87870882  1  0  -0.023549  0  4.020181  0  0  -0.030392  0  4.043081  0  0  -0.021026  -0.019235  0  4.004773  0
C  C58  1  0.69948447  0.89398903  0.12902001  1  0  -0.031855  0  4.022983  0  0  -0.038706  0  4.045677  0  0  -0.024096  -0.027536  0  4.007742  0
C  C59  1  0.30052037  0.10600722  0.87097834  1  0  -0.031893  0  4.023089  0  0  -0.038746  0  4.045787  0  0  -0.024112  -0.027566  0  4.00783  0
C  C60  1  0.80912975  0.01576646  0.10068079  1  0  -0.194906  0  3.907809  0  0  -0.19589  0  3.925372  0  0  -0.088762  -0.193983  0  3.895983  0
C  C61  1  0.19087509  0.98422979  0.89931601  1  0  -0.194874  0  3.907643  0  0  -0.195856  0  3.925205  0  0  -0.088782  -0.193953  0  3.895808  0
C  C62  1  0.74766969  0.19588275  0.08168363  1  0  0.280142  0  4.029648  0  0  0.285526  0  4.05156  0  0  0.086117  0.276177  0  4.014811  0
C  C63  1  0.25233905  0.80411222  0.91831158  1  0  0.280243  0  4.029576  0  0  0.285629  0  4.051485  0  0  0.086184  0.276279  0  4.014728  0
C  C64  1  0.57570416  0.25321165  0.08984255  1  0  -0.200498  0  3.919866  0  0  -0.201173  0  3.93658  0  0  -0.089456  -0.19977  0  3.908598  0
C  C65  1  0.42430070  0.74678459  0.91015270  1  0  -0.20048  0  3.919811  0  0  -0.201151  0  3.936521  0  0  -0.089474  -0.199754  0  3.908538  0
C  C66  1  0.52891134  0.95220181  0.14123289  1  0  -0.138329  0  3.984132  0  0  -0.137989  0  4.003807  0  0  -0.090894  -0.138299  0  3.970849  0
C  C67  1  0.47108896  0.04779967  0.85876645  1  0  -0.138292  0  3.984213  0  0  -0.137954  0  4.003891  0  0  -0.090895  -0.138265  0  3.970926  0
N  N68  1  0.14685730  0.41517654  0.29766633  1  0  -0.263977  0  3.537326  0  0  -0.281372  0  3.555388  0  0  -0.311684  -0.252296  0  3.525104  0
N  N69  1  0.85313646  0.58482750  0.70233300  1  0  -0.263967  0  3.537374  0  0  -0.28136  0  3.555431  0  0  -0.311649  -0.252287  0  3.525152  0
N  N70  1  0.87076409  0.26946544  0.32796920  1  0  -0.257017  0  3.542538  0  0  -0.275229  0  3.556679  0  0  -0.311031  -0.244865  0  3.533045  0
N  N71  1  0.12923009  0.73053598  0.67203209  1  0  -0.2572  0  3.542513  0  0  -0.275413  0  3.556654  0  0  -0.311104  -0.245047  0  3.533022  0
N  N72  1  0.85851432  0.32010964  0.05815708  1  0  -0.604487  0  3.351196  0  0  -0.624539  0  3.345274  0  0  -0.601236  -0.590445  0  3.355281  0
N  N73  1  0.14149318  0.67988532  0.94184130  1  0  -0.604592  0  3.351208  0  0  -0.624648  0  3.345293  0  0  -0.60125  -0.590544  0  3.355283  0
O  O74  1  0.22003499  0.34811601  0.09187602  1  0  -0.582017  0  2.302888  0  0  -0.611599  0  2.293692  0  0  -0.325288  -0.561223  0  2.308415  0
O  O75  1  0.77996699  0.65188284  0.90812054  1  0  -0.581939  0  2.302801  0  0  -0.611523  0  2.293609  0  0  -0.325238  -0.561146  0  2.308327  0
O  O76  1  0.91808922  0.65048368  0.13040604  1  0  -0.578311  0  2.311146  0  0  -0.607084  0  2.29826  0  0  -0.331024  -0.558067  0  2.319185  0
O  O77  1  0.08191115  0.34950991  0.86959457  1  0  -0.578333  0  2.311121  0  0  -0.607106  0  2.298237  0  0  -0.331006  -0.558093  0  2.319181  0
O  O78  1  0.19830100  0.08592423  0.20287513  1  0  -0.582664  0  2.144969  0  0  -0.606035  0  2.136415  0  0  -0.32685  -0.56603  0  2.15016  0
O  O79  1  0.80170961  0.91408132  0.79713064  1  0  -0.582698  0  2.144803  0  0  -0.606071  0  2.136249  0  0  -0.326866  -0.566064  0  2.149997  0
O  O80  1  0.66010383  0.59488156  0.18684348  1  0  -0.576275  0  2.160991  0  0  -0.599266  0  2.153529  0  0  -0.32616  -0.56005  0  2.165513  0
O  O81  1  0.33989246  0.40511461  0.81315542  1  0  -0.576262  0  2.160987  0  0  -0.599255  0  2.153528  0  0  -0.326143  -0.560038  0  2.165514  0
