# generated using pymatgen
data_CdH34C26(NO)4
_symmetry_space_group_name_H-M   'P 1'
_cell_length_a   11.40832674
_cell_length_b   11.35344187
_cell_length_c   13.02473014
_cell_angle_alpha   76.95343290
_cell_angle_beta   80.71954916
_cell_angle_gamma   65.10142389
_symmetry_Int_Tables_number   1
_chemical_formula_structural   CdH34C26(NO)4
_chemical_formula_sum   'Cd2 H68 C52 N8 O8'
_cell_volume   1486.51986752
_cell_formula_units_Z   2
loop_
 _symmetry_equiv_pos_site_id
 _symmetry_equiv_pos_as_xyz
  1  'x, y, z'
loop_
 _atom_site_type_symbol
 _atom_site_label
 _atom_site_symmetry_multiplicity
 _atom_site_fract_x
 _atom_site_fract_y
 _atom_site_fract_z
 _atom_site_occupancy
 _atom_site_hle17_bader_spin_density
 _atom_site_hle17_ddec_charge
 _atom_site_hle17_ddec_spin_density
 _atom_site_hle17_ddec_sum_bond_order
 _atom_site_hle17_magmom
 _atom_site_hse06_10hf_bader_spin_density
 _atom_site_hse06_10hf_ddec_charge
 _atom_site_hse06_10hf_ddec_spin_density
 _atom_site_hse06_10hf_ddec_sum_bond_order
 _atom_site_hse06_10hf_magmom
 _atom_site_hse06_bader_spin_density
 _atom_site_hse06_ddec_charge
 _atom_site_hse06_ddec_spin_density
 _atom_site_hse06_ddec_sum_bond_order
 _atom_site_hse06_magmom
 _atom_site_pbe_bader_spin_density
 _atom_site_pbe_cm5_charge
 _atom_site_pbe_ddec_charge
 _atom_site_pbe_ddec_spin_density
 _atom_site_pbe_ddec_sum_bond_order
 _atom_site_pbe_magmom
Cd  Cd0  1  0.65984109  0.61838291  0.18118614  1  0  1.085108  0  1.695482  0  0  0.894692  0  2.136635  0  0  0.953467  0  2.084535  0  0  0.7599  0.853371  0  2.171932  0
Cd  Cd1  1  0.34016093  0.38161366  0.81881483  1  0  1.08513  0  1.695524  0  0  0.894718  0  2.136684  0  0  0.953499  0  2.084576  0  0  0.759914  0.853404  0  2.171975  0
H  H2  1  0.50732602  0.53711237  0.40543911  1  0  0.099234  0  0.957686  0  0  0.110915  0  1.017149  0  0  0.112983  0  1.016712  0  0  0.115433  0.109459  0  1.017495  0
H  H3  1  0.49269051  0.46286844  0.59457351  1  0  0.099244  0  0.957744  0  0  0.110935  0  1.017184  0  0  0.113007  0  1.01675  0  0  0.115487  0.109478  0  1.017529  0
H  H4  1  0.43756538  0.32254067  0.46436698  1  0  0.117091  0  0.965106  0  0  0.128676  0  1.023661  0  0  0.131057  0  1.023161  0  0  0.122314  0.126928  0  1.024161  0
H  H5  1  0.56243791  0.67745493  0.53563323  1  0  0.117052  0  0.964799  0  0  0.12861  0  1.023407  0  0  0.131017  0  1.022874  0  0  0.122293  0.126852  0  1.023915  0
H  H6  1  0.69305915  0.36971973  0.08366847  1  0  0.141621  0  0.959256  0  0  0.160841  0  1.017438  0  0  0.162807  0  1.017211  0  0  0.102721  0.159389  0  1.017632  0
H  H7  1  0.30693579  0.63028369  0.91633685  1  0  0.14164  0  0.959192  0  0  0.16085  0  1.017391  0  0  0.16281  0  1.01717  0  0  0.102724  0.159398  0  1.017587  0
H  H8  1  0.56479482  0.31773878  0.08105526  1  0  0.149606  0  0.96218  0  0  0.164533  0  1.027651  0  0  0.168099  0  1.025399  0  0  0.099434  0.161976  0  1.029246  0
H  H9  1  0.43520331  0.68226764  0.91894666  1  0  0.149599  0  0.962208  0  0  0.164512  0  1.027697  0  0  0.168074  0  1.025452  0  0  0.099426  0.161956  0  1.029297  0
H  H10  1  0.71120212  0.20508795  0.13820837  1  0  0.119271  0  0.934133  0  0  0.138245  0  0.994783  0  0  0.140543  0  0.993487  0  0  0.097533  0.136632  0  0.995686  0
H  H11  1  0.28879669  0.79491653  0.86178845  1  0  0.119277  0  0.934185  0  0  0.138257  0  0.99482  0  0  0.140553  0  0.993526  0  0  0.097553  0.136647  0  0.995723  0
H  H12  1  0.57799561  0.11884975  0.24506078  1  0  0.09319  0  0.921714  0  0  0.112979  0  0.973661  0  0  0.11375  0  0.97325  0  0  0.123066  0.112413  0  0.97395  0
H  H13  1  0.42200057  0.88114379  0.75494401  1  0  0.0932  0  0.921759  0  0  0.11298  0  0.973745  0  0  0.113751  0  0.973341  0  0  0.123074  0.112417  0  0.974037  0
H  H14  1  0.41050427  0.20869605  0.26302664  1  0  0.079334  0  0.948362  0  0  0.092824  0  1.012876  0  0  0.093554  0  1.012146  0  0  0.111738  0.092091  0  1.013727  0
H  H15  1  0.58948828  0.79130438  0.73697811  1  0  0.079307  0  0.948309  0  0  0.092834  0  1.012821  0  0  0.093568  0  1.012088  0  0  0.111734  0.092105  0  1.013673  0
H  H16  1  0.75788408  0.92109781  0.30710599  1  0  0.124853  0  0.951387  0  0  0.143599  0  1.016005  0  0  0.145662  0  1.014582  0  0  0.09371  0.141795  0  1.017267  0
H  H17  1  0.24210505  0.07890457  0.69290043  1  0  0.124781  0  0.951339  0  0  0.143586  0  1.015907  0  0  0.14565  0  1.014483  0  0  0.093721  0.141787  0  1.01717  0
H  H18  1  0.82723972  0.91848261  0.42047760  1  0  0.103835  0  0.981819  0  0  0.12361  0  1.047415  0  0  0.124014  0  1.049774  0  0  0.088513  0.123242  0  1.045803  0
H  H19  1  0.17275234  0.08151683  0.57952742  1  0  0.103782  0  0.981938  0  0  0.123562  0  1.047522  0  0  0.123963  0  1.049893  0  0  0.08849  0.123198  0  1.045905  0
H  H20  1  0.74497789  0.07029337  0.34020280  1  0  0.105071  0  0.960002  0  0  0.123903  0  1.023427  0  0  0.124949  0  1.02415  0  0  0.089656  0.123042  0  1.022981  0
H  H21  1  0.25501686  0.92970608  0.65980334  1  0  0.105138  0  0.959916  0  0  0.123959  0  1.023347  0  0  0.125026  0  1.024046  0  0  0.089711  0.123102  0  1.022896  0
H  H22  1  0.19375104  0.18467256  0.40271309  1  0  0.106204  0  0.962761  0  0  0.127147  0  1.02888  0  0  0.127923  0  1.029586  0  0  0.091361  0.126456  0  1.028547  0
H  H23  1  0.80624336  0.81532987  0.59729021  1  0  0.106225  0  0.962769  0  0  0.127141  0  1.028931  0  0  0.127915  0  1.029642  0  0  0.091369  0.126452  0  1.028599  0
H  H24  1  0.27365003  0.29345485  0.37326659  1  0  0.101635  0  0.995657  0  0  0.11772  0  1.067618  0  0  0.118885  0  1.067739  0  0  0.09057  0.116795  0  1.067624  0
H  H25  1  0.72634301  0.70654658  0.62673789  1  0  0.10161  0  0.995768  0  0  0.117693  0  1.067726  0  0  0.118855  0  1.06785  0  0  0.09057  0.116768  0  1.067727  0
H  H26  1  0.20267377  0.26389293  0.50124119  1  0  0.111218  0  0.96152  0  0  0.135591  0  1.017011  0  0  0.136518  0  1.017145  0  0  0.094097  0.134809  0  1.016925  0
H  H27  1  0.79731805  0.73611146  0.49876135  1  0  0.111136  0  0.961575  0  0  0.13554  0  1.017032  0  0  0.136467  0  1.017164  0  0  0.094074  0.13476  0  1.016939  0
H  H28  1  0.54429177  0.84712611  0.33733967  1  0  0.10336  0  0.97565  0  0  0.110697  0  1.039741  0  0  0.112575  0  1.04001  0  0  0.113043  0.109432  0  1.039409  0
H  H29  1  0.45571416  0.15286951  0.66265935  1  0  0.103325  0  0.975715  0  0  0.110691  0  1.039751  0  0  0.112568  0  1.040019  0  0  0.113046  0.109417  0  1.039436  0
H  H30  1  0.28391583  0.96598630  0.40776683  1  0  0.106993  0  1.003831  0  0  0.11647  0  1.0679  0  0  0.118177  0  1.068794  0  0  0.116259  0.115194  0  1.067474  0
H  H31  1  0.71608714  0.03401227  0.59223206  1  0  0.106994  0  1.003825  0  0  0.116454  0  1.067913  0  0  0.118163  0  1.068801  0  0  0.116238  0.115177  0  1.06749  0
H  H32  1  0.39575256  0.68226760  0.10106227  1  0  0.148099  0  0.94929  0  0  0.170059  0  1.004271  0  0  0.171921  0  1.004063  0  0  0.108758  0.168663  0  1.004541  0
H  H33  1  0.60424918  0.31773394  0.89893391  1  0  0.148144  0  0.949315  0  0  0.17007  0  1.004321  0  0  0.171932  0  1.004116  0  0  0.108765  0.168673  0  1.004587  0
H  H34  1  0.23494247  0.80611552  0.10114922  1  0  0.126888  0  0.921226  0  0  0.149479  0  0.974572  0  0  0.151461  0  0.973896  0  0  0.102921  0.148092  0  0.975015  0
H  H35  1  0.76506183  0.19388405  0.89884696  1  0  0.126925  0  0.921229  0  0  0.149516  0  0.974568  0  0  0.151498  0  0.973895  0  0  0.102929  0.148128  0  0.975013  0
H  H36  1  0.27242643  0.65776023  0.19520330  1  0  0.123748  0  0.953902  0  0  0.142157  0  1.02084  0  0  0.143562  0  1.021215  0  0  0.098431  0.141148  0  1.020619  0
H  H37  1  0.72757611  0.34223933  0.80479316  1  0  0.123771  0  0.953919  0  0  0.142175  0  1.02087  0  0  0.143601  0  1.021223  0  0  0.098417  0.141158  0  1.020655  0
H  H38  1  0.09897856  0.83097039  0.29213123  1  0  0.07685  0  0.942733  0  0  0.093598  0  1.005161  0  0  0.094032  0  1.004857  0  0  0.113523  0.093365  0  1.005158  0
H  H39  1  0.90102396  0.16902918  0.70786447  1  0  0.076864  0  0.942761  0  0  0.093603  0  1.005203  0  0  0.094037  0  1.004895  0  0  0.1135  0.093365  0  1.005196  0
H  H40  1  0.08009190  0.99334441  0.23364875  1  0  0.08048  0  0.925057  0  0  0.098813  0  0.980031  0  0  0.099385  0  0.979568  0  0  0.114275  0.098282  0  0.980497  0
H  H41  1  0.91990992  0.00665911  0.76634626  1  0  0.0805  0  0.925108  0  0  0.098799  0  0.980101  0  0  0.09937  0  0.979638  0  0  0.114266  0.098265  0  0.980567  0
H  H42  1  0.19541783  0.69837923  0.41758652  1  0  0.097692  0  0.981105  0  0  0.114835  0  1.048473  0  0  0.116008  0  1.048957  0  0  0.086821  0.113935  0  1.048196  0
H  H43  1  0.80457938  0.30162029  0.58241001  1  0  0.097689  0  0.981053  0  0  0.114823  0  1.048438  0  0  0.115995  0  1.048922  0  0  0.086798  0.113922  0  1.048158  0
H  H44  1  0.08825987  0.66100087  0.52111613  1  0  0.114238  0  0.945419  0  0  0.135164  0  1.006773  0  0  0.136636  0  1.005994  0  0  0.093162  0.134074  0  1.007258  0
H  H45  1  0.91173875  0.33899964  0.47888152  1  0  0.114275  0  0.945366  0  0  0.135174  0  1.006755  0  0  0.136647  0  1.005974  0  0  0.093169  0.134084  0  1.00724  0
H  H46  1  0.22500286  0.67596789  0.55071733  1  0  0.119896  0  0.94388  0  0  0.143324  0  1.000794  0  0  0.144358  0  1.001512  0  0  0.094853  0.1425  0  1.000404  0
H  H47  1  0.77499612  0.32403165  0.44927892  1  0  0.119848  0  0.943831  0  0  0.143274  0  1.000758  0  0  0.144308  0  1.001477  0  0  0.094838  0.142451  0  1.000365  0
H  H48  1  0.07224825  0.17580968  0.25926923  1  0  0.104794  0  0.943175  0  0  0.125618  0  1.002853  0  0  0.126967  0  1.002496  0  0  0.091771  0.124606  0  1.003153  0
H  H49  1  0.92775082  0.82419183  0.74072661  1  0  0.104788  0  0.943199  0  0  0.125622  0  1.002865  0  0  0.126975  0  1.002503  0  0  0.09178  0.124611  0  1.003165  0
H  H50  1  0.94303879  0.29688404  0.32135501  1  0  0.132287  0  0.966228  0  0  0.151554  0  1.027153  0  0  0.153772  0  1.026315  0  0  0.098001  0.149895  0  1.027862  0
H  H51  1  0.05695941  0.70311746  0.67864174  1  0  0.132304  0  0.966146  0  0  0.151548  0  1.027107  0  0  0.153768  0  1.026266  0  0  0.097987  0.149889  0  1.027815  0
H  H52  1  0.91055778  0.19735449  0.25420696  1  0  0.109646  0  0.934174  0  0  0.133543  0  0.990357  0  0  0.134363  0  0.990738  0  0  0.093971  0.132926  0  0.99005  0
H  H53  1  0.08944032  0.80264504  0.74579019  1  0  0.109692  0  0.934146  0  0  0.133592  0  0.990326  0  0  0.134411  0  0.990707  0  0  0.09399  0.132973  0  0.990024  0
H  H54  1  0.94909085  0.63565326  0.40177048  1  0  0.085948  0  0.947256  0  0  0.104194  0  1.004965  0  0  0.106208  0  1.004125  0  0  0.093702  0.102891  0  1.005347  0
H  H55  1  0.05090892  0.36434430  0.59822604  1  0  0.085999  0  0.947134  0  0  0.104239  0  1.004842  0  0  0.106254  0  1.004007  0  0  0.09375  0.102949  0  1.005211  0
H  H56  1  0.96710488  0.74089266  0.28188274  1  0  0.080704  0  0.950883  0  0  0.096941  0  1.012713  0  0  0.098863  0  1.011812  0  0  0.088612  0.095751  0  1.01303  0
H  H57  1  0.03290042  0.25910690  0.71811867  1  0  0.080701  0  0.950961  0  0  0.096961  0  1.012749  0  0  0.098887  0  1.011847  0  0  0.088607  0.095773  0  1.013061  0
H  H58  1  0.07336776  0.43864942  0.32187551  1  0  0.063938  0  0.946471  0  0  0.085339  0  1.006185  0  0  0.085928  0  1.006993  0  0  0.08938  0.084904  0  1.005571  0
H  H59  1  0.92662774  0.56135208  0.67811936  1  0  0.063934  0  0.946467  0  0  0.085323  0  1.006185  0  0  0.085915  0  1.006999  0  0  0.089355  0.084887  0  1.005571  0
H  H60  1  0.16674044  0.53081766  0.31737093  1  0  0.045227  0  0.948017  0  0  0.063934  0  1.013772  0  0  0.064679  0  1.014095  0  0  0.079732  0.063254  0  1.013745  0
H  H61  1  0.83326056  0.46917693  0.68262830  1  0  0.045186  0  0.94803  0  0  0.063897  0  1.013783  0  0  0.064643  0  1.014104  0  0  0.079692  0.063217  0  1.013748  0
H  H62  1  0.03196072  0.52605659  0.13178715  1  0  0.091996  0  0.917955  0  0  0.111832  0  0.971224  0  0  0.113254  0  0.971142  0  0  0.098941  0.110657  0  0.971514  0
H  H63  1  0.96804434  0.47394102  0.86820777  1  0  0.092004  0  0.917933  0  0  0.111853  0  0.971185  0  0  0.113269  0  0.97111  0  0  0.098959  0.110676  0  0.97148  0
H  H64  1  0.11359924  0.62907788  0.12451663  1  0  0.056785  0  0.934899  0  0  0.076963  0  0.993368  0  0  0.077509  0  0.993782  0  0  0.08503  0.076482  0  0.993141  0
H  H65  1  0.88640195  0.37092068  0.87548178  1  0  0.056775  0  0.934915  0  0  0.076964  0  0.993379  0  0  0.077511  0  0.993793  0  0  0.085025  0.076479  0  0.993153  0
H  H66  1  0.23453850  0.32628019  0.17913921  1  0  0.089691  0  0.925441  0  0  0.111674  0  0.977357  0  0  0.113357  0  0.976887  0  0  0.099717  0.110401  0  0.977904  0
H  H67  1  0.76546865  0.67372337  0.82085573  1  0  0.08972  0  0.925427  0  0  0.111708  0  0.977369  0  0  0.113392  0  0.976899  0  0  0.099725  0.110428  0  0.977925  0
H  H68  1  0.31900123  0.42639839  0.17457989  1  0  0.082511  0  0.946911  0  0  0.098456  0  1.010466  0  0  0.099809  0  1.01088  0  0  0.092515  0.097449  0  1.010298  0
H  H69  1  0.68100199  0.57360412  0.82542048  1  0  0.082395  0  0.946912  0  0  0.098394  0  1.010451  0  0  0.099747  0  1.010868  0  0  0.092467  0.097387  0  1.010286  0
C  C70  1  0.52166272  0.46020629  0.36237516  1  0  -0.005777  0  3.812318  0  0  -0.042327  0  4.087955  0  0  -0.039596  0  4.107754  0  0  -0.013356  -0.044228  0  4.074705  0
C  C71  1  0.47834419  0.53978732  0.63763333  1  0  -0.005649  0  3.812449  0  0  -0.0422  0  4.08808  0  0  -0.039479  0  4.107893  0  0  -0.013299  -0.044104  0  4.074821  0
C  C72  1  0.48499801  0.35609700  0.39210057  1  0  -0.080532  0  3.71808  0  0  -0.123703  0  3.983151  0  0  -0.121913  0  4.001615  0  0  -0.008998  -0.124916  0  3.970982  0
C  C73  1  0.51500767  0.64388867  0.60791123  1  0  -0.080427  0  3.718014  0  0  -0.123595  0  3.983061  0  0  -0.121827  0  4.001513  0  0  -0.008994  -0.124798  0  3.970886  0
C  C74  1  0.58654244  0.35165419  0.23062620  1  0  0.373661  0  3.695745  0  0  0.347978  0  3.968296  0  0  0.364284  0  3.98309  0  0  0.217592  0.337262  0  3.957772  0
C  C75  1  0.41345721  0.64834630  0.76937821  1  0  0.373563  0  3.6958  0  0  0.347821  0  3.968387  0  0  0.364128  0  3.983174  0  0  0.217546  0.337101  0  3.957871  0
C  C76  1  0.64171034  0.30896419  0.12749326  1  0  -0.406889  0  3.715418  0  0  -0.483416  0  3.954403  0  0  -0.488256  0  3.959341  0  0  -0.235552  -0.479851  0  3.950765  0
C  C77  1  0.35828721  0.69103926  0.87250935  1  0  -0.406904  0  3.715455  0  0  -0.483406  0  3.954455  0  0  -0.488237  0  3.959401  0  0  -0.235579  -0.479832  0  3.950817  0
C  C78  1  0.50180722  0.17385365  0.29991484  1  0  -0.02487  0  3.660826  0  0  -0.089628  0  3.908128  0  0  -0.084597  0  3.918423  0  0  -0.047153  -0.09299  0  3.901217  0
C  C79  1  0.49818687  0.82614285  0.70008892  1  0  -0.024782  0  3.660849  0  0  -0.089667  0  3.908266  0  0  -0.084651  0  3.918581  0  0  -0.047145  -0.093035  0  3.901355  0
C  C80  1  0.50005205  0.08630012  0.40534543  1  0  -0.040017  0  3.722106  0  0  -0.034015  0  3.968309  0  0  -0.036139  0  3.992381  0  0  -0.017896  -0.032213  0  3.951968  0
C  C81  1  0.49993795  0.91370227  0.59466009  1  0  -0.040102  0  3.722066  0  0  -0.034032  0  3.968226  0  0  -0.036155  0  3.992302  0  0  -0.017872  -0.032208  0  3.951863  0
C  C82  1  0.61805443  0.98533387  0.43856280  1  0  0.050019  0  3.713427  0  0  0.061926  0  3.959507  0  0  0.061958  0  3.982838  0  0  -0.013377  0.061528  0  3.943954  0
C  C83  1  0.38193941  0.01467249  0.56144594  1  0  0.050026  0  3.713399  0  0  0.061966  0  3.959369  0  0  0.061997  0  3.982701  0  0  -0.013415  0.061556  0  3.94382  0
C  C84  1  0.74320121  0.97308519  0.37327993  1  0  -0.339421  0  3.71435  0  0  -0.418383  0  3.952651  0  0  -0.421106  0  3.963117  0  0  -0.24579  -0.416052  0  3.945676  0
C  C85  1  0.25679009  0.02691621  0.62672635  1  0  -0.33938  0  3.714262  0  0  -0.418402  0  3.952568  0  0  -0.42114  0  3.963015  0  0  -0.245802  -0.416069  0  3.945592  0
C  C86  1  0.38243567  0.10376838  0.46683859  1  0  0.037733  0  3.731249  0  0  0.050574  0  3.976606  0  0  0.049861  0  4.000606  0  0  -0.016819  0.050677  0  3.960693  0
C  C87  1  0.61755590  0.89623697  0.53317070  1  0  0.037806  0  3.731363  0  0  0.050587  0  3.976808  0  0  0.049872  0  4.000813  0  0  -0.016815  0.050681  0  3.960886  0
C  C88  1  0.25768615  0.21667967  0.43385422  1  0  -0.337158  0  3.744091  0  0  -0.419788  0  3.984621  0  0  -0.421289  0  3.994437  0  0  -0.24337  -0.418337  0  3.978015  0
C  C89  1  0.74230560  0.78332274  0.56615026  1  0  -0.337141  0  3.744414  0  0  -0.41976  0  3.984981  0  0  -0.421261  0  3.994806  0  0  -0.243401  -0.418306  0  3.978367  0
C  C90  1  0.45872980  0.84451006  0.31375744  1  0  -0.003018  0  3.790255  0  0  -0.037764  0  4.063234  0  0  -0.035218  0  4.083483  0  0  -0.011855  -0.039448  0  4.049226  0
C  C91  1  0.54127523  0.15548556  0.68624095  1  0  -0.003018  0  3.790405  0  0  -0.037765  0  4.063341  0  0  -0.035219  0  4.083594  0  0  -0.011956  -0.039448  0  4.049348  0
C  C92  1  0.33103094  0.90515992  0.34814994  1  0  -0.072135  0  3.712997  0  0  -0.117703  0  3.976968  0  0  -0.116518  0  3.997096  0  0  -0.009869  -0.118432  0  3.963615  0
C  C93  1  0.66897466  0.09483868  0.65184700  1  0  -0.07203  0  3.713123  0  0  -0.117596  0  3.977104  0  0  -0.116411  0  3.997237  0  0  -0.009718  -0.118326  0  3.963752  0
C  C94  1  0.34710736  0.79054705  0.22487573  1  0  0.366034  0  3.699764  0  0  0.342761  0  3.965166  0  0  0.358521  0  3.980423  0  0  0.214746  0.332537  0  3.954466  0
C  C95  1  0.65289358  0.20945646  0.77511942  1  0  0.366011  0  3.699836  0  0  0.342805  0  3.965155  0  0  0.35861  0  3.980356  0  0  0.214706  0.332582  0  3.954456  0
C  C96  1  0.31014918  0.73116587  0.15174703  1  0  -0.387192  0  3.706259  0  0  -0.467645  0  3.94444  0  0  -0.471667  0  3.951122  0  0  -0.228101  -0.464727  0  3.939728  0
C  C97  1  0.68985294  0.26883469  0.84824853  1  0  -0.387288  0  3.706438  0  0  -0.467736  0  3.944618  0  0  -0.471793  0  3.951269  0  0  -0.228104  -0.464819  0  3.939915  0
C  C98  1  0.11983612  0.91420763  0.30054274  1  0  -0.018428  0  3.659906  0  0  -0.08587  0  3.912084  0  0  -0.080282  0  3.921897  0  0  -0.046649  -0.08954  0  3.905284  0
C  C99  1  0.88016561  0.08579391  0.69945268  1  0  -0.018469  0  3.659896  0  0  -0.085882  0  3.912087  0  0  -0.080287  0  3.921896  0  0  -0.046612  -0.089531  0  3.905262  0
C  C100  1  0.05859057  0.95908166  0.40444829  1  0  -0.052433  0  3.71943  0  0  -0.044773  0  3.969301  0  0  -0.046884  0  3.993022  0  0  -0.020822  -0.043209  0  3.953097  0
C  C101  1  0.94141198  0.04091790  0.59554894  1  0  -0.052345  0  3.71934  0  0  -0.044693  0  3.969167  0  0  -0.046803  0  3.992888  0  0  -0.020793  -0.043137  0  3.952956  0
C  C102  1  0.07078455  0.86350886  0.49724240  1  0  0.050154  0  3.704231  0  0  0.060606  0  3.95438  0  0  0.060292  0  3.978648  0  0  -0.013569  0.060701  0  3.937843  0
C  C103  1  0.92921405  0.13649166  0.50275448  1  0  0.050043  0  3.704239  0  0  0.060512  0  3.954407  0  0  0.060195  0  3.978676  0  0  -0.013593  0.06061  0  3.93787  0
C  C104  1  0.14823552  0.71846567  0.49549567  1  0  -0.329187  0  3.725804  0  0  -0.408761  0  3.965112  0  0  -0.410767  0  3.975027  0  0  -0.243119  -0.407077  0  3.958241  0
C  C105  1  0.85176307  0.28153485  0.50450045  1  0  -0.32914  0  3.725675  0  0  -0.408692  0  3.965002  0  0  -0.410697  0  3.974917  0  0  -0.243086  -0.407014  0  3.958142  0
C  C106  1  0.98956887  0.09512456  0.40614812  1  0  0.03907  0  3.715586  0  0  0.048818  0  3.968303  0  0  0.048104  0  3.993195  0  0  -0.016261  0.049346  0  3.95137  0
C  C107  1  0.01043000  0.90487299  0.59384777  1  0  0.03898  0  3.71574  0  0  0.048801  0  3.968355  0  0  0.048082  0  3.993254  0  0  -0.016277  0.049335  0  3.951414  0
C  C108  1  0.97869608  0.19609398  0.30602331  1  0  -0.334955  0  3.723116  0  0  -0.411632  0  3.959656  0  0  -0.413928  0  3.969485  0  0  -0.241007  -0.409811  0  3.952873  0
C  C109  1  0.02130175  0.80390851  0.69397407  1  0  -0.334995  0  3.723102  0  0  -0.411693  0  3.95964  0  0  -0.413991  0  3.969466  0  0  -0.241021  -0.409874  0  3.952862  0
C  C110  1  0.84136472  0.64558373  0.27703560  1  0  0.671957  0  3.892672  0  0  0.632855  0  4.184171  0  0  0.665456  0  4.180418  0  0  0.183124  0.610799  0  4.185811  0
C  C111  1  0.15863306  0.35442567  0.72296347  1  0  0.671971  0  3.892642  0  0  0.632866  0  4.184135  0  0  0.665463  0  4.180381  0  0  0.183035  0.610814  0  4.185781  0
C  C112  1  0.96059069  0.64573031  0.31509361  1  0  -0.250072  0  3.692879  0  0  -0.291496  0  3.951602  0  0  -0.297299  0  3.960584  0  0  -0.168315  -0.287514  0  3.945062  0
C  C113  1  0.03941109  0.35427121  0.68490411  1  0  -0.250122  0  3.692867  0  0  -0.291548  0  3.951573  0  0  -0.297363  0  3.960571  0  0  -0.168345  -0.287572  0  3.945024  0
C  C114  1  0.08342975  0.53121692  0.28400750  1  0  -0.086439  0  3.706097  0  0  -0.128776  0  3.970733  0  0  -0.129246  0  3.985239  0  0  -0.167134  -0.128234  0  3.960558  0
C  C115  1  0.91657052  0.46878164  0.71598952  1  0  -0.086438  0  3.706238  0  0  -0.128759  0  3.97084  0  0  -0.129232  0  3.985355  0  0  -0.167078  -0.128214  0  3.960656  0
C  C116  1  0.11076837  0.53382560  0.16485829  1  0  -0.095307  0  3.696633  0  0  -0.136449  0  3.958882  0  0  -0.136883  0  3.972701  0  0  -0.170484  -0.135986  0  3.949329  0
C  C117  1  0.88923587  0.46617199  0.83513983  1  0  -0.095328  0  3.696704  0  0  -0.13647  0  3.959004  0  0  -0.136898  0  3.972823  0  0  -0.170502  -0.136008  0  3.949444  0
C  C118  1  0.23886610  0.42170644  0.14065705  1  0  -0.242498  0  3.689931  0  0  -0.280574  0  3.94441  0  0  -0.286098  0  3.953547  0  0  -0.162991  -0.276722  0  3.937918  0
C  C119  1  0.76113971  0.57829611  0.85933984  1  0  -0.242331  0  3.689799  0  0  -0.280549  0  3.944431  0  0  -0.286076  0  3.953574  0  0  -0.16296  -0.276693  0  3.937943  0
C  C120  1  0.27915623  0.41176756  0.02493110  1  0  0.669055  0  3.89469  0  0  0.627787  0  4.186498  0  0  0.660448  0  4.182846  0  0  0.186119  0.605654  0  4.188031  0
C  C121  1  0.72084629  0.58823001  0.97506960  1  0  0.668925  0  3.89479  0  0  0.627736  0  4.186544  0  0  0.6604  0  4.18289  0  0  0.18609  0.605602  0  4.188074  0
N  N122  1  0.58469671  0.45632467  0.26253243  1  0  -0.443217  0  3.205888  0  0  -0.37443  0  3.486513  0  0  -0.396961  0  3.503195  0  0  -0.358891  -0.359058  0  3.474865  0
N  N123  1  0.41531719  0.54366501  0.73748036  1  0  -0.443231  0  3.20577  0  0  -0.374456  0  3.486444  0  0  -0.396984  0  3.503126  0  0  -0.358909  -0.359082  0  3.474799  0
N  N124  1  0.52636214  0.28828852  0.30813432  1  0  -0.119427  0  3.516092  0  0  -0.02803  0  3.732467  0  0  -0.04394  0  3.757365  0  0  -0.244517  -0.017404  0  3.715481  0
N  N125  1  0.47363296  0.71171196  0.69186542  1  0  -0.119526  0  3.516269  0  0  -0.027997  0  3.732566  0  0  -0.0439  0  3.757468  0  0  -0.244516  -0.017373  0  3.715582  0
N  N126  1  0.46734970  0.77379699  0.23754624  1  0  -0.435223  0  3.21835  0  0  -0.363699  0  3.49255  0  0  -0.385795  0  3.507992  0  0  -0.358346  -0.348481  0  3.481414  0
N  N127  1  0.53265184  0.22620059  0.76245001  1  0  -0.435285  0  3.218457  0  0  -0.363817  0  3.492705  0  0  -0.385928  0  3.508129  0  0  -0.35837  -0.348602  0  3.481573  0
N  N128  1  0.26153837  0.87050580  0.29155348  1  0  -0.117947  0  3.521741  0  0  -0.022838  0  3.732407  0  0  -0.038502  0  3.757087  0  0  -0.24295  -0.012618  0  3.715671  0
N  N129  1  0.73846411  0.12949177  0.70844569  1  0  -0.117951  0  3.521805  0  0  -0.022839  0  3.732431  0  0  -0.038519  0  3.7571  0  0  -0.242945  -0.012624  0  3.715689  0
O  O130  1  0.77160494  0.74605739  0.21447857  1  0  -0.654944  0  1.878039  0  0  -0.595936  0  2.096116  0  0  -0.622569  0  2.085499  0  0  -0.352044  -0.577496  0  2.102817  0
O  O131  1  0.22840059  0.25395012  0.78551353  1  0  -0.654958  0  1.878084  0  0  -0.59595  0  2.096161  0  0  -0.622576  0  2.08554  0  0  -0.351962  -0.577494  0  2.102858  0
O  O132  1  0.81859660  0.54151109  0.30721623  1  0  -0.659468  0  1.911339  0  0  -0.597648  0  2.143715  0  0  -0.626491  0  2.135072  0  0  -0.347156  -0.577595  0  2.148719  0
O  O133  1  0.18140228  0.45849538  0.69277866  1  0  -0.659456  0  1.911346  0  0  -0.597625  0  2.143689  0  0  -0.626477  0  2.135062  0  0  -0.347134  -0.577562  0  2.14868  0
O  O134  1  0.19667692  0.47810185  0.95616035  1  0  -0.62867  0  1.908663  0  0  -0.565232  0  2.13153  0  0  -0.593255  0  2.121676  0  0  -0.335645  -0.545784  0  2.137653  0
O  O135  1  0.80332600  0.52190364  0.04383948  1  0  -0.628662  0  1.908748  0  0  -0.565251  0  2.13159  0  0  -0.593273  0  2.121735  0  0  -0.335658  -0.545805  0  2.137714  0
O  O136  1  0.39546049  0.33472778  0.00093814  1  0  -0.67146  0  1.912737  0  0  -0.612683  0  2.139808  0  0  -0.640731  0  2.129988  0  0  -0.353002  -0.593071  0  2.145777  0
O  O137  1  0.60454543  0.66527675  0.99905910  1  0  -0.671368  0  1.912752  0  0  -0.612596  0  2.139773  0  0  -0.640643  0  2.129953  0  0  -0.352964  -0.592991  0  2.14575  0
