# generated using pymatgen
data_CdH12C9(N2Cl)2
_symmetry_space_group_name_H-M   'P 1'
_cell_length_a   7.81899951
_cell_length_b   9.75035978
_cell_length_c   15.22116345
_cell_angle_alpha   89.99994837
_cell_angle_beta   90.00007675
_cell_angle_gamma   90.00009929
_symmetry_Int_Tables_number   1
_chemical_formula_structural   CdH12C9(N2Cl)2
_chemical_formula_sum   'Cd4 H48 C36 N16 Cl8'
_cell_volume   1160.43194770
_cell_formula_units_Z   4
loop_
 _symmetry_equiv_pos_site_id
 _symmetry_equiv_pos_as_xyz
  1  'x, y, z'
loop_
 _atom_site_type_symbol
 _atom_site_label
 _atom_site_symmetry_multiplicity
 _atom_site_fract_x
 _atom_site_fract_y
 _atom_site_fract_z
 _atom_site_occupancy
 _atom_site_hle17_bader_spin_density
 _atom_site_hle17_ddec_charge
 _atom_site_hle17_ddec_spin_density
 _atom_site_hle17_ddec_sum_bond_order
 _atom_site_hle17_magmom
 _atom_site_hse06_10hf_bader_spin_density
 _atom_site_hse06_10hf_ddec_charge
 _atom_site_hse06_10hf_ddec_spin_density
 _atom_site_hse06_10hf_ddec_sum_bond_order
 _atom_site_hse06_10hf_magmom
 _atom_site_hse06_bader_spin_density
 _atom_site_hse06_ddec_charge
 _atom_site_hse06_ddec_spin_density
 _atom_site_hse06_ddec_sum_bond_order
 _atom_site_hse06_magmom
 _atom_site_pbe_bader_spin_density
 _atom_site_pbe_cm5_charge
 _atom_site_pbe_ddec_charge
 _atom_site_pbe_ddec_spin_density
 _atom_site_pbe_ddec_sum_bond_order
 _atom_site_pbe_magmom
Cd  Cd0  1  0.61607001  0.99998898  0.25711825  1  0  0.970879  0  1.934616  0  0  0.808742  0  2.383368  0  0  0.853738  0  2.344652  0  0  0.612336  0.776983  0  2.409621  0
Cd  Cd1  1  0.11607015  0.00001221  0.24288226  1  0  0.97087  0  1.934626  0  0  0.808734  0  2.383381  0  0  0.85373  0  2.344665  0  0  0.612335  0.77698  0  2.409622  0
Cd  Cd2  1  0.38392916  0.50001204  0.75711754  1  0  0.970906  0  1.934612  0  0  0.808769  0  2.383361  0  0  0.853765  0  2.344646  0  0  0.612349  0.777012  0  2.409609  0
Cd  Cd3  1  0.88392917  0.49998881  0.74288161  1  0  0.970848  0  1.934659  0  0  0.808703  0  2.383415  0  0  0.853699  0  2.3447  0  0  0.612317  0.776947  0  2.409659  0
H  H4  1  0.92923936  0.17110300  0.06729933  1  0  0.097516  0  0.982504  0  0  0.103246  0  1.052709  0  0  0.105429  0  1.052044  0  0  0.107585  0.101664  0  1.053242  0
H  H5  1  0.42923796  0.82889658  0.43270074  1  0  0.097508  0  0.982512  0  0  0.103238  0  1.052716  0  0  0.105421  0  1.052052  0  0  0.107577  0.101655  0  1.05325  0
H  H6  1  0.07076207  0.32889828  0.56730019  1  0  0.097487  0  0.982518  0  0  0.103216  0  1.052728  0  0  0.105398  0  1.052065  0  0  0.107576  0.101633  0  1.053263  0
H  H7  1  0.57076166  0.67110215  0.93270006  1  0  0.097509  0  0.982503  0  0  0.103242  0  1.052703  0  0  0.105424  0  1.052039  0  0  0.107588  0.10166  0  1.053236  0
H  H8  1  0.31438139  0.87032806  0.05923449  1  0  0.083836  0  0.981517  0  0  0.087034  0  1.060482  0  0  0.089164  0  1.05801  0  0  0.121684  0.085566  0  1.062005  0
H  H9  1  0.81438112  0.12967341  0.44076616  1  0  0.083834  0  0.981518  0  0  0.087028  0  1.060493  0  0  0.089159  0  1.058021  0  0  0.121681  0.085561  0  1.062015  0
H  H10  1  0.68561726  0.62967120  0.55923129  1  0  0.083798  0  0.981516  0  0  0.086958  0  1.060532  0  0  0.089089  0  1.05806  0  0  0.12166  0.085494  0  1.062049  0
H  H11  1  0.18561744  0.37032733  0.94076576  1  0  0.083856  0  0.981486  0  0  0.087054  0  1.060444  0  0  0.089184  0  1.057973  0  0  0.121683  0.085585  0  1.06197  0
H  H12  1  0.03084924  0.13340780  0.89199749  1  0  0.118946  0  0.976195  0  0  0.126021  0  1.043506  0  0  0.129658  0  1.040631  0  0  0.109909  0.12342  0  1.045478  0
H  H13  1  0.53084842  0.86659155  0.60800339  1  0  0.118992  0  0.976159  0  0  0.126086  0  1.043446  0  0  0.129724  0  1.04057  0  0  0.109942  0.123484  0  1.045418  0
H  H14  1  0.96915431  0.36659097  0.39199720  1  0  0.118996  0  0.976189  0  0  0.126072  0  1.043481  0  0  0.129707  0  1.040611  0  0  0.109934  0.123472  0  1.045456  0
H  H15  1  0.46915164  0.63340764  0.10800224  1  0  0.118935  0  0.976243  0  0  0.126003  0  1.043556  0  0  0.129639  0  1.040684  0  0  0.109907  0.123401  0  1.045529  0
H  H16  1  0.17543371  0.90563278  0.82740502  1  0  0.076678  0  0.946771  0  0  0.092691  0  1.010331  0  0  0.093523  0  1.009631  0  0  0.103064  0.09199  0  1.010927  0
H  H17  1  0.67543266  0.09436881  0.67259531  1  0  0.076639  0  0.946789  0  0  0.092664  0  1.010345  0  0  0.093483  0  1.009661  0  0  0.103033  0.091962  0  1.010943  0
H  H18  1  0.82456436  0.59436917  0.32740413  1  0  0.07665  0  0.946787  0  0  0.092688  0  1.010347  0  0  0.093505  0  1.009664  0  0  0.103049  0.091987  0  1.010945  0
H  H19  1  0.32456521  0.40563129  0.17259456  1  0  0.076653  0  0.946745  0  0  0.092687  0  1.010308  0  0  0.093504  0  1.009623  0  0  0.103046  0.091986  0  1.010906  0
H  H20  1  0.32282980  0.82110467  0.89480336  1  0  0.078321  0  0.943016  0  0  0.092854  0  1.010417  0  0  0.093134  0  1.011462  0  0  0.107632  0.092517  0  1.009833  0
H  H21  1  0.82283004  0.17889508  0.60519707  1  0  0.078317  0  0.943026  0  0  0.092847  0  1.010429  0  0  0.093128  0  1.011473  0  0  0.107636  0.092511  0  1.009845  0
H  H22  1  0.67716973  0.67889514  0.39480363  1  0  0.078302  0  0.943013  0  0  0.092847  0  1.010424  0  0  0.093127  0  1.011466  0  0  0.107634  0.09251  0  1.009841  0
H  H23  1  0.17716893  0.32110410  0.10519692  1  0  0.078327  0  0.943046  0  0  0.092867  0  1.010447  0  0  0.093146  0  1.01149  0  0  0.107638  0.09253  0  1.009863  0
H  H24  1  0.38118935  0.11489595  0.82572804  1  0  0.08873  0  0.95302  0  0  0.101143  0  1.023301  0  0  0.102407  0  1.023303  0  0  0.086075  0.100147  0  1.023389  0
H  H25  1  0.88118874  0.88510490  0.67427243  1  0  0.088748  0  0.952981  0  0  0.101156  0  1.023261  0  0  0.10242  0  1.023262  0  0  0.086078  0.100162  0  1.02335  0
H  H26  1  0.61881019  0.38510599  0.32572816  1  0  0.088767  0  0.95298  0  0  0.101174  0  1.023256  0  0  0.102437  0  1.023257  0  0  0.086084  0.100181  0  1.023344  0
H  H27  1  0.11881149  0.61489419  0.17427170  1  0  0.08875  0  0.952987  0  0  0.101153  0  1.023267  0  0  0.102416  0  1.023269  0  0  0.086086  0.100159  0  1.023355  0
H  H28  1  0.43592354  0.96604513  0.76598994  1  0  0.085415  0  0.931199  0  0  0.10536  0  0.991269  0  0  0.105914  0  0.991665  0  0  0.095236  0.10462  0  0.991476  0
H  H29  1  0.93592380  0.03395477  0.73401056  1  0  0.085379  0  0.93126  0  0  0.105321  0  0.991322  0  0  0.105874  0  0.991718  0  0  0.095227  0.104582  0  0.991529  0
H  H30  1  0.56407437  0.53395486  0.26598825  1  0  0.085426  0  0.931235  0  0  0.105379  0  0.991274  0  0  0.105932  0  0.991669  0  0  0.095244  0.10464  0  0.991482  0
H  H31  1  0.06407678  0.46604422  0.23401091  1  0  0.085397  0  0.931235  0  0  0.10534  0  0.991292  0  0  0.105893  0  0.991687  0  0  0.095227  0.104601  0  0.9915  0
H  H32  1  0.63713221  0.88902650  0.87941172  1  0  0.072358  0  0.94969  0  0  0.085218  0  1.021302  0  0  0.086051  0  1.020927  0  0  0.102632  0.084483  0  1.02173  0
H  H33  1  0.13713100  0.11097607  0.62058858  1  0  0.072324  0  0.949699  0  0  0.085202  0  1.021316  0  0  0.086037  0  1.020936  0  0  0.10262  0.084467  0  1.021745  0
H  H34  1  0.36286855  0.61097538  0.37941116  1  0  0.07234  0  0.949667  0  0  0.085201  0  1.021296  0  0  0.086036  0  1.02092  0  0  0.102628  0.084466  0  1.021725  0
H  H35  1  0.86286673  0.38902513  0.12058887  1  0  0.07234  0  0.949711  0  0  0.085224  0  1.021296  0  0  0.086058  0  1.020919  0  0  0.102617  0.084488  0  1.021726  0
H  H36  1  0.68880027  0.05420609  0.83742241  1  0  0.077971  0  0.940009  0  0  0.092833  0  1.004967  0  0  0.093618  0  1.004456  0  0  0.100978  0.092031  0  1.005545  0
H  H37  1  0.18879970  0.94579553  0.66257858  1  0  0.077904  0  0.940084  0  0  0.09281  0  1.005008  0  0  0.093594  0  1.004497  0  0  0.100965  0.09201  0  1.005581  0
H  H38  1  0.31119802  0.44579583  0.33742162  1  0  0.077909  0  0.939955  0  0  0.092781  0  1.004933  0  0  0.093567  0  1.00442  0  0  0.100964  0.091982  0  1.005503  0
H  H39  1  0.81119922  0.55420461  0.16257836  1  0  0.077969  0  0.940003  0  0  0.092831  0  1.004972  0  0  0.093616  0  1.004461  0  0  0.10098  0.092032  0  1.005543  0
H  H40  1  0.53665968  0.26265770  0.93980475  1  0  0.119662  0  0.988738  0  0  0.126543  0  1.055085  0  0  0.129474  0  1.05362  0  0  0.110521  0.124141  0  1.056778  0
H  H41  1  0.03665967  0.73734267  0.56019614  1  0  0.119633  0  0.988798  0  0  0.126551  0  1.055079  0  0  0.129469  0  1.053626  0  0  0.11051  0.124137  0  1.056807  0
H  H42  1  0.46334016  0.23734304  0.43980419  1  0  0.119641  0  0.988787  0  0  0.126558  0  1.055068  0  0  0.129476  0  1.053615  0  0  0.110518  0.124145  0  1.056794  0
H  H43  1  0.96334154  0.76265659  0.06019656  1  0  0.119652  0  0.988769  0  0  0.126558  0  1.055054  0  0  0.129469  0  1.053609  0  0  0.110525  0.124153  0  1.056772  0
H  H44  1  0.54630437  0.27319944  0.12437037  1  0  0.100221  0  0.965993  0  0  0.109195  0  1.0293  0  0  0.111772  0  1.027823  0  0  0.109348  0.107355  0  1.030391  0
H  H45  1  0.04630387  0.72680166  0.37563075  1  0  0.100254  0  0.965987  0  0  0.109228  0  1.029288  0  0  0.111808  0  1.027805  0  0  0.109369  0.107388  0  1.030379  0
H  H46  1  0.45369593  0.22680073  0.62436958  1  0  0.100248  0  0.965981  0  0  0.10922  0  1.029286  0  0  0.111799  0  1.027808  0  0  0.109357  0.107381  0  1.030377  0
H  H47  1  0.95369688  0.77319920  0.87563028  1  0  0.100254  0  0.965973  0  0  0.109227  0  1.029278  0  0  0.111802  0  1.027809  0  0  0.109363  0.107387  0  1.030368  0
H  H48  1  0.66040774  0.87140725  0.04242052  1  0  0.090947  0  0.951437  0  0  0.099748  0  1.020296  0  0  0.101792  0  1.018062  0  0  0.128582  0.098094  0  1.022125  0
H  H49  1  0.16040617  0.12859401  0.45758002  1  0  0.090927  0  0.951442  0  0  0.099735  0  1.020289  0  0  0.101779  0  1.018055  0  0  0.128573  0.098081  0  1.022119  0
H  H50  1  0.33959343  0.62859306  0.54242037  1  0  0.090902  0  0.951482  0  0  0.099715  0  1.020321  0  0  0.10176  0  1.018088  0  0  0.128575  0.098061  0  1.02215  0
H  H51  1  0.83959372  0.37140671  0.95758007  1  0  0.090895  0  0.951481  0  0  0.099707  0  1.020328  0  0  0.101752  0  1.018095  0  0  0.128569  0.098054  0  1.022157  0
C  C52  1  0.02688084  0.10544738  0.03920395  1  0  -0.008643  0  3.771277  0  0  -0.042626  0  4.042976  0  0  -0.040104  0  4.06319  0  0  -0.013238  -0.044244  0  4.029263  0
C  C53  1  0.52688100  0.89455267  0.46079585  1  0  -0.008657  0  3.771212  0  0  -0.042635  0  4.042904  0  0  -0.040114  0  4.063119  0  0  -0.013229  -0.044253  0  4.029192  0
C  C54  1  0.97311923  0.39455291  0.53920408  1  0  -0.008533  0  3.771188  0  0  -0.04251  0  4.042873  0  0  -0.039988  0  4.063087  0  0  -0.013193  -0.044128  0  4.029162  0
C  C55  1  0.47311870  0.60544602  0.96079514  1  0  -0.008672  0  3.771287  0  0  -0.042659  0  4.042983  0  0  -0.040138  0  4.063197  0  0  -0.013288  -0.044278  0  4.029271  0
C  C56  1  0.22494290  0.94879384  0.03845745  1  0  0.164367  0  3.671821  0  0  0.103603  0  3.938097  0  0  0.117569  0  3.952208  0  0  0.135392  0.09465  0  3.928154  0
C  C57  1  0.72494251  0.05120649  0.46154314  1  0  0.164344  0  3.671864  0  0  0.103585  0  3.938134  0  0  0.11755  0  3.952245  0  0  0.135393  0.094632  0  3.928191  0
C  C58  1  0.77505698  0.55120443  0.53845566  1  0  0.164382  0  3.671857  0  0  0.103642  0  3.938136  0  0  0.117609  0  3.952247  0  0  0.135403  0.094689  0  3.928193  0
C  C59  1  0.27505739  0.44879320  0.96154210  1  0  0.164284  0  3.671798  0  0  0.103529  0  3.938069  0  0  0.117495  0  3.952182  0  0  0.135417  0.094575  0  3.928128  0
C  C60  1  0.07197985  0.08521058  0.95278656  1  0  -0.076495  0  3.663183  0  0  -0.113886  0  3.917694  0  0  -0.113088  0  3.936201  0  0  -0.008498  -0.114265  0  3.905118  0
C  C61  1  0.57198025  0.91478984  0.54721369  1  0  -0.076476  0  3.66311  0  0  -0.113878  0  3.91761  0  0  -0.11308  0  3.936117  0  0  -0.008489  -0.114254  0  3.905033  0
C  C62  1  0.92802130  0.41479014  0.45278556  1  0  -0.076603  0  3.663192  0  0  -0.113989  0  3.917713  0  0  -0.11319  0  3.93622  0  0  -0.00852  -0.11437  0  3.90514  0
C  C63  1  0.42801965  0.58520944  0.04721319  1  0  -0.076482  0  3.663187  0  0  -0.113856  0  3.917697  0  0  -0.113058  0  3.936205  0  0  -0.008447  -0.114236  0  3.905122  0
C  C64  1  0.27721663  0.92324960  0.87565629  1  0  0.004552  0  3.611836  0  0  -0.058639  0  3.86835  0  0  -0.054107  0  3.879506  0  0  -0.057125  -0.061698  0  3.86065  0
C  C65  1  0.77721670  0.07675111  0.62434477  1  0  0.00462  0  3.611858  0  0  -0.058585  0  3.868356  0  0  -0.054044  0  3.87951  0  0  -0.057103  -0.061643  0  3.860658  0
C  C66  1  0.72278412  0.57675126  0.37565534  1  0  0.004656  0  3.611773  0  0  -0.058608  0  3.868358  0  0  -0.054066  0  3.879515  0  0  -0.057108  -0.061665  0  3.860661  0
C  C67  1  0.22278232  0.42324804  0.12434393  1  0  0.004567  0  3.611818  0  0  -0.058678  0  3.868374  0  0  -0.054137  0  3.879535  0  0  -0.057128  -0.061736  0  3.860678  0
C  C68  1  0.41992182  0.00700149  0.83286880  1  0  -0.15245  0  3.662242  0  0  -0.196091  0  3.924017  0  0  -0.198112  0  3.936616  0  0  -0.165418  -0.194233  0  3.915216  0
C  C69  1  0.91992015  0.99300044  0.66713235  1  0  -0.152473  0  3.662227  0  0  -0.196079  0  3.923963  0  0  -0.198098  0  3.936561  0  0  -0.165411  -0.194228  0  3.915171  0
C  C70  1  0.58008030  0.49300146  0.33286752  1  0  -0.152579  0  3.662211  0  0  -0.196166  0  3.923947  0  0  -0.198191  0  3.936553  0  0  -0.165421  -0.194317  0  3.915159  0
C  C71  1  0.08008007  0.50699969  0.16713165  1  0  -0.152432  0  3.662152  0  0  -0.196019  0  3.923878  0  0  -0.198037  0  3.936473  0  0  -0.165382  -0.194167  0  3.915086  0
C  C72  1  0.59533926  0.99642148  0.87655775  1  0  0.001151  0  3.62929  0  0  -0.063151  0  3.888318  0  0  -0.058613  0  3.899319  0  0  -0.058755  -0.065918  0  3.88056  0
C  C73  1  0.09533910  0.00358103  0.62344318  1  0  0.001254  0  3.629185  0  0  -0.063126  0  3.888239  0  0  -0.058591  0  3.899246  0  0  -0.058751  -0.065889  0  3.880481  0
C  C74  1  0.40466022  0.50358040  0.37655860  1  0  0.001263  0  3.629026  0  0  -0.063097  0  3.888132  0  0  -0.058558  0  3.899126  0  0  -0.058756  -0.06586  0  3.880375  0
C  C75  1  0.90465992  0.49642017  0.12344211  1  0  0.001138  0  3.629158  0  0  -0.063211  0  3.888224  0  0  -0.058673  0  3.899223  0  0  -0.058757  -0.065974  0  3.880466  0
C  C76  1  0.56142881  0.18512721  0.98930362  1  0  -0.072842  0  3.655869  0  0  -0.111503  0  3.913129  0  0  -0.110138  0  3.931541  0  0  -0.008466  -0.112422  0  3.901413  0
C  C77  1  0.06142756  0.81487422  0.51069728  1  0  -0.072801  0  3.655902  0  0  -0.111485  0  3.91317  0  0  -0.110109  0  3.931589  0  0  -0.008439  -0.112409  0  3.901448  0
C  C78  1  0.43857243  0.31487449  0.48930234  1  0  -0.072781  0  3.655859  0  0  -0.111452  0  3.913113  0  0  -0.110076  0  3.931531  0  0  -0.008417  -0.112376  0  3.901392  0
C  C79  1  0.93857224  0.68512613  0.01069773  1  0  -0.072827  0  3.655818  0  0  -0.111488  0  3.913097  0  0  -0.110104  0  3.93152  0  0  -0.008439  -0.112418  0  3.901368  0
C  C80  1  0.56807171  0.18869799  0.07959721  1  0  -0.001826  0  3.767045  0  0  -0.036068  0  4.037534  0  0  -0.033693  0  4.057233  0  0  -0.010092  -0.037808  0  4.024463  0
C  C81  1  0.06807279  0.81130314  0.42040327  1  0  -0.001861  0  3.767058  0  0  -0.0361  0  4.037552  0  0  -0.033725  0  4.057252  0  0  -0.010109  -0.037839  0  4.024478  0
C  C82  1  0.43192847  0.31130224  0.57959636  1  0  -0.001918  0  3.767064  0  0  -0.03616  0  4.03756  0  0  -0.033785  0  4.057257  0  0  -0.010136  -0.037897  0  4.024486  0
C  C83  1  0.93192936  0.68869663  0.92040349  1  0  -0.001886  0  3.767016  0  0  -0.036131  0  4.037509  0  0  -0.033755  0  4.057203  0  0  -0.010115  -0.037868  0  4.024435  0
C  C84  1  0.62591111  0.97914889  0.04100469  1  0  0.146169  0  3.69515  0  0  0.085976  0  3.964064  0  0  0.099294  0  3.978305  0  0  0.133494  0.077403  0  3.954119  0
C  C85  1  0.12590931  0.02085232  0.45899517  1  0  0.146172  0  3.695174  0  0  0.085977  0  3.96408  0  0  0.099297  0  3.978322  0  0  0.133496  0.077404  0  3.954135  0
C  C86  1  0.37409005  0.52085142  0.54100462  1  0  0.146194  0  3.695233  0  0  0.086001  0  3.964143  0  0  0.099318  0  3.978386  0  0  0.133504  0.077427  0  3.9542  0
C  C87  1  0.87409058  0.47914839  0.95899585  1  0  0.146207  0  3.695226  0  0  0.086007  0  3.96414  0  0  0.099324  0  3.978384  0  0  0.1335  0.077434  0  3.954197  0
N  N88  1  0.12406461  0.02040542  0.09188066  1  0  -0.375081  0  3.274238  0  0  -0.297872  0  3.551049  0  0  -0.319308  0  3.569878  0  0  -0.359631  -0.283413  0  3.538017  0
N  N89  1  0.62406481  0.97959579  0.40811920  1  0  -0.375085  0  3.274266  0  0  -0.297873  0  3.551072  0  0  -0.319311  0  3.569903  0  0  -0.359637  -0.283412  0  3.538036  0
N  N90  1  0.87593433  0.47959377  0.59188002  1  0  -0.37512  0  3.274239  0  0  -0.297898  0  3.551033  0  0  -0.319336  0  3.569864  0  0  -0.359644  -0.283437  0  3.537995  0
N  N91  1  0.37593475  0.52040400  0.90811847  1  0  -0.37504  0  3.274338  0  0  -0.297815  0  3.551126  0  0  -0.319251  0  3.569957  0  0  -0.359627  -0.283357  0  3.538097  0
N  N92  1  0.60780176  0.05992839  0.11073614  1  0  -0.381159  0  3.32823  0  0  -0.306185  0  3.604196  0  0  -0.327831  0  3.625089  0  0  -0.364284  -0.291408  0  3.589526  0
N  N93  1  0.10780048  0.94007280  0.38926436  1  0  -0.381128  0  3.328195  0  0  -0.306165  0  3.604179  0  0  -0.327811  0  3.625071  0  0  -0.364292  -0.291388  0  3.58951  0
N  N94  1  0.39219979  0.44007180  0.61073519  1  0  -0.381146  0  3.328305  0  0  -0.30618  0  3.604286  0  0  -0.327826  0  3.625178  0  0  -0.364287  -0.291404  0  3.589617  0
N  N95  1  0.89220031  0.55992701  0.88926463  1  0  -0.381129  0  3.328189  0  0  -0.306163  0  3.60418  0  0  -0.327806  0  3.625066  0  0  -0.364298  -0.291387  0  3.589511  0
N  N96  1  0.59796656  0.05117015  0.96595658  1  0  -0.065876  0  3.575057  0  0  0.03183  0  3.787787  0  0  0.016694  0  3.815235  0  0  -0.24695  0.041794  0  3.769049  0
N  N97  1  0.09796566  0.94883134  0.53404435  1  0  -0.06592  0  3.575091  0  0  0.031799  0  3.787854  0  0  0.016661  0  3.815301  0  0  -0.246957  0.041763  0  3.769115  0
N  N98  1  0.40203335  0.44883159  0.46595585  1  0  -0.065869  0  3.575061  0  0  0.031846  0  3.787797  0  0  0.016711  0  3.815244  0  0  -0.246954  0.04181  0  3.769059  0
N  N99  1  0.90203293  0.55116796  0.03404420  1  0  -0.065854  0  3.575047  0  0  0.031853  0  3.787793  0  0  0.016717  0  3.815238  0  0  -0.246958  0.041816  0  3.769055  0
N  N100  1  0.19801869  0.98540720  0.95348801  1  0  -0.064362  0  3.547169  0  0  0.033813  0  3.759475  0  0  0.018635  0  3.786453  0  0  -0.243544  0.043831  0  3.740971  0
N  N101  1  0.69801842  0.01459340  0.54651234  1  0  -0.064378  0  3.547153  0  0  0.03378  0  3.759484  0  0  0.018604  0  3.786458  0  0  -0.243568  0.043798  0  3.74098  0
N  N102  1  0.80198227  0.51459150  0.45348715  1  0  -0.064337  0  3.547169  0  0  0.033839  0  3.759506  0  0  0.018662  0  3.786478  0  0  -0.243563  0.043856  0  3.741004  0
N  N103  1  0.30198040  0.48540585  0.04651152  1  0  -0.064325  0  3.54707  0  0  0.03384  0  3.759422  0  0  0.018662  0  3.786394  0  0  -0.243581  0.043858  0  3.74092  0
Cl  Cl104  1  0.85760194  0.81783282  0.22081827  1  0  -0.584646  0  0.976083  0  0  -0.528604  0  1.264347  0  0  -0.54539  0  1.244274  0  0  -0.306676  -0.516187  0  1.278181  0
Cl  Cl105  1  0.35760258  0.18216769  0.27918175  1  0  -0.584641  0  0.976091  0  0  -0.528603  0  1.264365  0  0  -0.545389  0  1.244294  0  0  -0.306675  -0.516186  0  1.278198  0
Cl  Cl106  1  0.14239713  0.68216723  0.72081795  1  0  -0.584654  0  0.976103  0  0  -0.528616  0  1.264372  0  0  -0.545404  0  1.244305  0  0  -0.306679  -0.516198  0  1.278201  0
Cl  Cl107  1  0.64239940  0.31783329  0.77918236  1  0  -0.584662  0  0.976098  0  0  -0.528607  0  1.264361  0  0  -0.545397  0  1.244293  0  0  -0.306675  -0.516193  0  1.278191  0
Cl  Cl108  1  0.37441097  0.80667597  0.23513304  1  0  -0.594319  0  0.88771  0  0  -0.53122  0  1.154797  0  0  -0.547473  0  1.134958  0  0  -0.321789  -0.519083  0  1.168322  0
Cl  Cl109  1  0.87441166  0.19332457  0.26486765  1  0  -0.594304  0  0.887709  0  0  -0.531213  0  1.154805  0  0  -0.547465  0  1.134966  0  0  -0.321779  -0.519076  0  1.16833  0
Cl  Cl110  1  0.62558942  0.69332304  0.73513239  1  0  -0.59432  0  0.887725  0  0  -0.531219  0  1.154816  0  0  -0.547473  0  1.134977  0  0  -0.321783  -0.519083  0  1.16834  0
Cl  Cl111  1  0.12558901  0.30667643  0.76486724  1  0  -0.594298  0  0.887703  0  0  -0.531205  0  1.154798  0  0  -0.547459  0  1.13496  0  0  -0.321779  -0.519068  0  1.168321  0
