# generated using pymatgen
data_H14RuC19N5(OF)4
_symmetry_space_group_name_H-M   'P 1'
_cell_length_a   10.14302748
_cell_length_b   10.84183599
_cell_length_c   10.80604637
_cell_angle_alpha   90.50267192
_cell_angle_beta   111.48411943
_cell_angle_gamma   105.28685651
_symmetry_Int_Tables_number   1
_chemical_formula_structural   H14RuC19N5(OF)4
_chemical_formula_sum   'H28 Ru2 C38 N10 O8 F8'
_cell_volume   1059.27008536
_cell_formula_units_Z   2
loop_
 _symmetry_equiv_pos_site_id
 _symmetry_equiv_pos_as_xyz
  1  'x, y, z'
loop_
 _atom_site_type_symbol
 _atom_site_label
 _atom_site_symmetry_multiplicity
 _atom_site_fract_x
 _atom_site_fract_y
 _atom_site_fract_z
 _atom_site_occupancy
 _atom_site_pbe_cm5_charge
 _atom_site_pbe_ddec_charge
 _atom_site_pbe_ddec_spin_density
 _atom_site_pbe_ddec_sum_bond_order
 _atom_site_pbe_magmom
H  H0  1  0.70221241  0.24922310  0.38199648  1  0.112521  0.141536  -1.3e-05  1.00637  0.0
H  H1  1  0.29776641  0.75075819  0.61794627  1  0.112594  0.141564  -1.3e-05  1.00659  0.0
H  H2  1  0.89769563  0.14785754  0.51534123  1  0.101706  0.103512  -3e-06  1.020204  0.0
H  H3  1  0.10228845  0.85213715  0.48461650  1  0.101638  0.103266  -3e-06  1.020417  0.0
H  H4  1  0.82782819  0.91519345  0.54413028  1  0.105516  0.111299  0.0001  1.013669  0.0
H  H5  1  0.17216404  0.08480778  0.45585910  1  0.105607  0.111463  0.0001  1.013596  0.0
H  H6  1  0.54288657  0.28580818  0.80290710  1  0.107039  0.131122  -5.2e-05  1.033606  0.0
H  H7  1  0.45712793  0.71419687  0.19710407  1  0.106995  0.131003  -5.2e-05  1.033718  0.0
H  H8  1  0.76784700  0.35455021  0.01261021  1  0.101491  0.099128  1.7e-05  1.016236  0.0
H  H9  1  0.23217079  0.64545866  0.98740772  1  0.101515  0.099164  1.8e-05  1.016236  0.0
H  H10  1  0.74639611  0.41836175  0.22595866  1  0.103337  0.110856  -0.000248  1.037395  0.0
H  H11  1  0.25361184  0.58164613  0.77405485  1  0.103312  0.110816  -0.000248  1.037366  0.0
H  H12  1  0.99084475  0.63974000  0.31849125  1  0.102439  0.106315  4.1e-05  1.027486  0.0
H  H13  1  0.00915459  0.36026404  0.68151364  1  0.102416  0.106281  4.1e-05  1.027522  0.0
H  H14  1  0.10038853  0.31372366  0.51296209  1  0.104907  0.112543  0.000208  1.028595  0.0
H  H15  1  0.89961002  0.68628131  0.48704623  1  0.104912  0.112531  0.000208  1.028587  0.0
H  H16  1  0.16179158  0.62854134  0.24419700  1  0.103202  0.12645  0.000321  1.012311  0.0
H  H17  1  0.83821585  0.37146172  0.75581720  1  0.103296  0.126566  0.000321  1.012395  0.0
H  H18  1  0.15648279  0.49913419  0.13859297  1  0.104601  0.125361  -5.3e-05  1.018694  0.0
H  H19  1  0.84352051  0.50086597  0.86142067  1  0.104637  0.125436  -5.3e-05  1.018651  0.0
H  H20  1  0.98679265  0.52245216  0.13570322  1  0.091732  0.102101  0.000827  1.0102  0.001
H  H21  1  0.01321266  0.47755089  0.86431023  1  0.09168  0.102102  0.000827  1.010205  0.001
H  H22  1  0.93658741  0.28267864  0.18116322  1  0.088345  0.095584  -0.000198  1.026187  0.0
H  H23  1  0.06341045  0.71732437  0.81884945  1  0.08834  0.09558  -0.000198  1.026198  0.0
H  H24  1  0.11853917  0.29293873  0.18689407  1  0.103516  0.128435  -6.1e-05  1.012188  0.0
H  H25  1  0.88145640  0.70706044  0.81311590  1  0.10356  0.128465  -6.1e-05  1.012226  0.0
H  H26  1  0.07018342  0.24306242  0.32412915  1  0.101715  0.118307  6e-05  1.02737  0.0
H  H27  1  0.92981702  0.75693869  0.67588256  1  0.10173  0.118356  6e-05  1.027393  0.0
Ru  Ru28  1  0.37517622  0.48969215  0.44762757  1  0.66565  0.648994  0.01652  3.764603  0.014
Ru  Ru29  1  0.62482582  0.51030415  0.55238557  1  0.665689  0.648951  0.016455  3.764742  0.014
C  C30  1  0.56109387  0.74464334  0.45027073  1  0.209738  0.545582  0.002243  4.146277  0.004
C  C31  1  0.43890416  0.25535011  0.54973355  1  0.209733  0.545584  0.002243  4.146185  0.004
C  C32  1  0.59741698  0.88155843  0.42527380  1  -0.029736  -0.141388  -0.000487  4.026586  0.0
C  C33  1  0.40257017  0.11843030  0.57470993  1  -0.029797  -0.14156  -0.000487  4.026863  0.0
C  C34  1  0.49080406  0.93951006  0.34773521  1  0.095095  0.154555  -4e-05  4.044614  0.0
C  C35  1  0.50918172  0.06047771  0.65224802  1  0.094999  0.154324  -4e-05  4.044843  0.0
C  C36  1  0.53064421  0.07035070  0.33319785  1  0.083929  0.16483  -9e-06  4.094994  0.0
C  C37  1  0.46933460  0.92963139  0.66676804  1  0.08383  0.164956  -9e-06  4.094488  0.0
C  C38  1  0.67574913  0.14681189  0.39279093  1  -0.090535  -0.163431  -7.3e-05  3.978966  0.0
C  C39  1  0.32422870  0.85317023  0.60716814  1  -0.090648  -0.163526  -7.3e-05  3.979244  0.0
C  C40  1  0.78326566  0.08930519  0.46757384  1  -0.095392  -0.077776  -3.2e-05  4.027448  0.0
C  C41  1  0.21671817  0.91068266  0.53239668  1  -0.095229  -0.077457  -3.2e-05  4.027842  0.0
C  C42  1  0.74479835  0.95945010  0.48356208  1  -0.086653  -0.088979  0.000101  3.986418  0.0
C  C43  1  0.25519116  0.04054252  0.51641883  1  -0.086723  -0.089071  0.000101  3.986613  0.0
C  C44  1  0.50536708  0.42272011  0.26750470  1  0.209737  0.546646  -0.002164  4.14154  -0.003
C  C45  1  0.49463946  0.57728009  0.73250545  1  0.209818  0.546728  -0.002163  4.141481  -0.003
C  C46  1  0.51104985  0.38172445  0.13858624  1  -0.023915  -0.126966  0.000425  4.007762  0.0
C  C47  1  0.48895707  0.61828345  0.86142414  1  -0.023929  -0.126988  0.000425  4.007874  0.0
C  C48  1  0.38536027  0.34070464  0.01962636  1  0.099203  0.164203  1.6e-05  4.034017  0.0
C  C49  1  0.61465367  0.65930522  0.98038467  1  0.099143  0.164025  1.6e-05  4.03416  0.0
C  C50  1  0.39862490  0.30578791  0.90100433  1  0.082405  0.161586  2.2e-05  4.106665  0.0
C  C51  1  0.60139480  0.69422005  0.09900777  1  0.082464  0.161823  2.2e-05  4.106398  0.0
C  C52  1  0.53472427  0.31036302  0.89696347  1  -0.098226  -0.17418  -8e-06  3.995136  0.0
C  C53  1  0.46529558  0.68964878  0.10305060  1  -0.098116  -0.174095  -8e-06  3.994806  0.0
C  C54  1  0.66034830  0.35032355  0.01501614  1  -0.095994  -0.078177  0.0  4.049255  0.0
C  C55  1  0.33966743  0.64968534  0.98499644  1  -0.095997  -0.078087  0.0  4.049304  0.0
C  C56  1  0.64881456  0.38528067  0.13371903  1  -0.090045  -0.09895  -0.000111  3.979793  0.0
C  C57  1  0.35119647  0.61473011  0.86629376  1  -0.090052  -0.098968  -0.000111  3.979794  0.0
C  C58  1  0.05151828  0.47128629  0.40065338  1  0.074641  0.149669  -0.007854  3.98791  -0.004
C  C59  1  0.94848440  0.52872159  0.59935551  1  0.074675  0.149898  -0.007855  3.987633  -0.004
C  C60  1  0.99779768  0.57841789  0.39843102  1  -0.100174  -0.161844  -0.004708  3.994257  -0.003
C  C61  1  0.00220313  0.42158422  0.60157621  1  -0.100169  -0.161899  -0.004707  3.994248  -0.003
C  C62  1  0.05246332  0.39362300  0.50399402  1  -0.095925  -0.154655  -0.004815  4.001336  -0.003
C  C63  1  0.94753980  0.60638296  0.49601499  1  -0.095916  -0.154738  -0.004817  4.001188  -0.003
C  C64  1  0.10230308  0.52867396  0.19989918  1  -0.148867  -0.285575  0.001508  3.893604  0.001
C  C65  1  0.89770331  0.47132911  0.80011280  1  -0.148846  -0.285712  0.001508  3.893695  0.001
C  C66  1  0.05503578  0.30722484  0.24598403  1  -0.147821  -0.276392  0.000918  3.88424  0.001
C  C67  1  0.94496424  0.69277820  0.75402663  1  -0.147795  -0.276334  0.000918  3.884155  0.001
N  N68  1  0.11094105  0.44318033  0.30568862  1  -0.319442  -0.029994  -0.005031  3.552218  -0.005
N  N69  1  0.88906227  0.55681984  0.69432317  1  -0.319538  -0.030147  -0.005031  3.552157  -0.005
N  N70  1  0.03273990  0.93042699  0.18458600  1  0.011244  0.012008  -1e-06  2.855401  0.0
N  N71  1  0.96725405  0.06957993  0.81541517  1  0.011161  0.011828  -1e-06  2.855337  0.0
N  N72  1  0.04652726  0.88096366  0.10140183  1  0.00723  0.006767  -5e-06  2.858744  0.0
N  N73  1  0.95347325  0.11904714  0.89860078  1  0.007325  0.006958  -5e-06  2.858673  0.0
N  N74  1  0.72027947  0.98624980  0.04979354  1  0.008809  0.004782  -1.7e-05  2.887473  0.0
N  N75  1  0.27971359  0.01375721  0.95019528  1  0.008605  0.004591  -1.7e-05  2.886929  0.0
N  N76  1  0.68122574  0.05699366  0.09200202  1  0.010428  0.012338  -1.3e-05  2.871817  0.0
N  N77  1  0.31877079  0.94300762  0.90798426  1  0.010632  0.012537  -1.3e-05  2.871156  0.0
O  O78  1  0.42474574  0.67840652  0.40993918  1  -0.304112  -0.46426  0.016847  2.481227  0.009
O  O79  1  0.57524993  0.32158305  0.59006793  1  -0.304167  -0.464281  0.016843  2.481257  0.009
O  O80  1  0.66938310  0.69951415  0.51154191  1  -0.301031  -0.462661  0.014161  2.474889  0.008
O  O81  1  0.33061248  0.30048503  0.48846713  1  -0.301025  -0.46267  0.014164  2.474759  0.008
O  O82  1  0.38282220  0.43170014  0.26933789  1  -0.299112  -0.456982  -0.014051  2.501821  -0.008
O  O83  1  0.61717637  0.56829519  0.73067308  1  -0.299073  -0.456924  -0.014051  2.502112  -0.008
O  O84  1  0.62633632  0.44866251  0.37116387  1  -0.30064  -0.464762  -0.014334  2.473319  -0.007
O  O85  1  0.37366040  0.55133377  0.62884832  1  -0.300668  -0.464771  -0.014333  2.47292  -0.007
F  F86  1  0.34656134  0.87255055  0.28417756  1  -0.086433  -0.11471  0.000232  1.446698  0.0
F  F87  1  0.65342347  0.12742761  0.71580243  1  -0.086333  -0.114538  0.000231  1.446758  0.0
F  F88  1  0.42193859  0.12183688  0.25971610  1  -0.09502  -0.122994  -2e-06  1.392109  0.0
F  F89  1  0.57804505  0.87814338  0.74024037  1  -0.094936  -0.12302  -2e-06  1.391816  0.0
F  F90  1  0.24755570  0.33286376  0.01338684  1  -0.085479  -0.116707  -0.00015  1.437976  0.0
F  F91  1  0.75245921  0.66714900  0.98662271  1  -0.085517  -0.116748  -0.00015  1.437989  0.0
F  F92  1  0.27380472  0.26773090  0.78779313  1  -0.095685  -0.123108  -4e-06  1.376037  0.0
F  F93  1  0.72621349  0.73227899  0.21221756  1  -0.09577  -0.123276  -4e-06  1.376009  0.0
