# generated using pymatgen
data_VH4C4O6F
_symmetry_space_group_name_H-M   'P 1'
_cell_length_a   3.82841771
_cell_length_b   7.88704346
_cell_length_c   11.23738071
_cell_angle_alpha   90.00726813
_cell_angle_beta   89.99678635
_cell_angle_gamma   101.19372818
_symmetry_Int_Tables_number   1
_chemical_formula_structural   VH4C4O6F
_chemical_formula_sum   'V2 H8 C8 O12 F2'
_cell_volume   332.85662502
_cell_formula_units_Z   2
loop_
 _symmetry_equiv_pos_site_id
 _symmetry_equiv_pos_as_xyz
  1  'x, y, z'
loop_
 _atom_site_type_symbol
 _atom_site_label
 _atom_site_symmetry_multiplicity
 _atom_site_fract_x
 _atom_site_fract_y
 _atom_site_fract_z
 _atom_site_occupancy
 _atom_site_pbe_cm5_charge
 _atom_site_pbe_ddec_charge
 _atom_site_pbe_ddec_spin_density
 _atom_site_pbe_ddec_sum_bond_order
 _atom_site_pbe_magmom
V  V0  1  0.50000558  0.49999982  0.49999960  1  1.197427  1.710321  -1.891275  2.518982  -1.842
V  V1  1  0.00000000  0.00000000  0.00000000  1  1.197472  1.71035  1.891226  2.519165  1.841
H  H2  1  0.36672270  0.48549195  0.73295221  1  0.301955  0.408487  -0.000704  0.92077  -0.003
H  H3  1  0.13333862  0.01450231  0.23294154  1  0.301885  0.408437  0.000704  0.92081  0.003
H  H4  1  0.63328063  0.51450773  0.26704787  1  0.301953  0.408486  -0.000704  0.920782  -0.003
H  H5  1  0.86666471  0.98549737  0.76705854  1  0.301877  0.408397  0.000705  0.920867  0.003
H  H6  1  0.55091156  0.31270944  0.69643423  1  0.308749  0.414574  -0.000759  0.904429  -0.003
H  H7  1  0.94909965  0.18727992  0.19641594  1  0.30876  0.414556  0.000761  0.904429  0.003
H  H8  1  0.44908863  0.68728896  0.30356674  1  0.308749  0.41458  -0.000759  0.904427  -0.003
H  H9  1  0.05090368  0.81271976  0.80358414  1  0.308752  0.414547  0.000761  0.904436  0.003
C  C10  1  0.54977385  0.88158093  0.52748157  1  0.10604  0.18057  -0.02564  4.112614  -0.02
C  C11  1  0.95021778  0.61844634  0.02749094  1  0.106086  0.180598  0.025605  4.112789  0.02
C  C12  1  0.45022005  0.11841491  0.47252118  1  0.106009  0.180625  -0.02564  4.112509  -0.02
C  C13  1  0.04977520  0.38155986  0.97250647  1  0.106089  0.180543  0.025603  4.112698  0.02
C  C14  1  0.59185672  0.05394192  0.58222845  1  0.10975  0.161854  0.002475  4.125965  0.003
C  C15  1  0.90811095  0.44606686  0.08222597  1  0.109747  0.161755  -0.002476  4.125349  -0.003
C  C16  1  0.40814292  0.94605519  0.41777341  1  0.109712  0.161792  0.002475  4.126048  0.003
C  C17  1  0.09187835  0.55393676  0.91777055  1  0.109758  0.161774  -0.002476  4.125402  -0.003
O  O18  1  0.61514269  0.74008131  0.56587149  1  -0.343555  -0.480223  -0.011447  2.438993  0.011
O  O19  1  0.88483833  0.75993574  0.06586268  1  -0.343575  -0.480181  0.011467  2.439805  -0.011
O  O20  1  0.38485956  0.25991578  0.43412948  1  -0.343495  -0.480208  -0.011447  2.438903  0.011
O  O21  1  0.11515879  0.24006784  0.93413829  1  -0.343576  -0.48018  0.01147  2.439638  -0.011
O  O22  1  0.70136864  0.11693144  0.68141968  1  -0.268161  -0.392559  0.002297  2.285669  0.002
O  O23  1  0.79861276  0.38306193  0.18140748  1  -0.2682  -0.392491  -0.0023  2.285496  -0.002
O  O24  1  0.29863415  0.88306695  0.31858040  1  -0.268138  -0.39254  0.002297  2.285658  0.002
O  O25  1  0.20139218  0.61694162  0.81858904  1  -0.268223  -0.392537  -0.0023  2.285428  -0.002
O  O26  1  0.46225080  0.41673464  0.66897069  1  -0.621694  -0.856673  -0.01954  2.195554  0.004
O  O27  1  0.03779837  0.08325516  0.16895730  1  -0.621595  -0.856551  0.01954  2.19591  -0.004
O  O28  1  0.53775199  0.58326375  0.33102940  1  -0.621705  -0.856682  -0.019544  2.195537  0.004
O  O29  1  0.96220496  0.91674452  0.83104367  1  -0.621585  -0.856501  0.01954  2.195927  -0.004
F  F30  1  0.00000452  0.50000442  0.49999998  1  -0.383655  -0.582481  -0.022216  1.239831  0.017
F  F31  1  0.49999500  0.99999492  0.00000052  1  -0.383612  -0.582441  0.022243  1.239774  -0.017
