# generated using pymatgen
data_Ni2H76C57(N3O2)4
_symmetry_space_group_name_H-M   'P 1'
_cell_length_a   11.42017855
_cell_length_b   17.17194906
_cell_length_c   17.17195653
_cell_angle_alpha   90.00000858
_cell_angle_beta   90.00001180
_cell_angle_gamma   89.99999946
_symmetry_Int_Tables_number   1
_chemical_formula_structural   Ni2H76C57(N3O2)4
_chemical_formula_sum   'Ni4 H152 C114 N24 O16'
_cell_volume   3367.53614501
_cell_formula_units_Z   2
loop_
 _symmetry_equiv_pos_site_id
 _symmetry_equiv_pos_as_xyz
  1  'x, y, z'
loop_
 _atom_site_type_symbol
 _atom_site_label
 _atom_site_symmetry_multiplicity
 _atom_site_fract_x
 _atom_site_fract_y
 _atom_site_fract_z
 _atom_site_occupancy
 _atom_site_pbe_bader_charge
 _atom_site_pbe_bader_spin_density
 _atom_site_pbe_cm5_charge
 _atom_site_pbe_ddec_charge
 _atom_site_pbe_ddec_spin_density
 _atom_site_pbe_ddec_sum_bond_order
 _atom_site_pbe_magmom
Ni  Ni0  1  0.00000010  0.81959834  0.68040185  1  1.058371  1.49621  0.639833  0.60519  1.729625  2.512498  1.483
Ni  Ni1  1  0.00000002  0.68040152  0.18040174  1  1.058389  1.496211  0.639821  0.605169  1.729626  2.512527  1.483
Ni  Ni2  1  0.00000005  0.18040179  0.31959842  1  1.058368  1.496211  0.639825  0.605179  1.729626  2.512523  1.483
Ni  Ni3  1  0.00000012  0.31959803  0.81959795  1  1.058382  1.49621  0.639825  0.605193  1.729623  2.51251  1.483
H  H4  1  0.83157991  0.87106599  0.60214583  1  0.472966  -0.000371  0.29138  0.250727  -0.000271  0.991195  0.0
H  H5  1  0.16842032  0.60214540  0.12893411  1  0.472969  -0.000371  0.291367  0.250701  -0.000271  0.991167  0.0
H  H6  1  0.83157988  0.12893414  0.39785456  1  0.472967  -0.000371  0.29138  0.250727  -0.000271  0.991191  0.0
H  H7  1  0.16842044  0.39785414  0.87106619  1  0.472961  -0.000371  0.291373  0.250716  -0.000271  0.991209  0.0
H  H8  1  0.83157983  0.62893385  0.10214572  1  0.472964  -0.000371  0.291375  0.250724  -0.000271  0.991199  0.0
H  H9  1  0.16842037  0.10214568  0.37106606  1  0.472961  -0.000371  0.291373  0.250716  -0.000271  0.991209  0.0
H  H10  1  0.83157995  0.37106569  0.89785468  1  0.472968  -0.000371  0.29138  0.250727  -0.000271  0.991192  0.0
H  H11  1  0.16842040  0.89785445  0.62893424  1  0.472965  -0.000371  0.291377  0.250723  -0.000271  0.991199  0.0
H  H12  1  0.30241042  0.50496602  0.58779155  1  0.102853  4.4e-05  0.099451  0.098367  1.8e-05  1.044635  0.0
H  H13  1  0.69759074  0.58779120  0.49503396  1  0.103392  4.4e-05  0.099439  0.098383  1.8e-05  1.044647  0.0
H  H14  1  0.30240952  0.49503411  0.41220876  1  0.103393  4.4e-05  0.09944  0.098376  1.8e-05  1.044644  0.0
H  H15  1  0.69758987  0.41220834  0.50496583  1  0.102963  4.4e-05  0.099449  0.098365  1.8e-05  1.044634  0.0
H  H16  1  0.30240946  0.99503440  0.08779091  1  0.103392  4.4e-05  0.099438  0.098386  1.8e-05  1.044646  0.0
H  H17  1  0.69759067  0.08779143  0.00496571  1  0.103385  4.4e-05  0.099449  0.0984  1.8e-05  1.044641  0.0
H  H18  1  0.30240960  0.00496572  0.91220883  1  0.103387  4.4e-05  0.099434  0.098364  1.8e-05  1.044657  0.0
H  H19  1  0.69758994  0.91220869  0.99503466  1  0.10339  4.4e-05  0.099446  0.098373  1.8e-05  1.044613  0.0
H  H20  1  0.17594130  0.61667437  0.61916771  1  0.072686  0.00027  0.097881  0.097058  0.000171  1.032796  0.0
H  H21  1  0.82405810  0.61916795  0.38332567  1  0.072688  0.00027  0.09786  0.097035  0.000171  1.032837  0.0
H  H22  1  0.17594126  0.38332576  0.38083201  1  0.072687  0.00027  0.097873  0.09705  0.000171  1.032797  0.0
H  H23  1  0.82405814  0.38083218  0.61667414  1  0.07269  0.00027  0.09786  0.097034  0.000171  1.032836  0.0
H  H24  1  0.17594122  0.88332606  0.11916763  1  0.072685  0.00027  0.097887  0.097085  0.000171  1.032793  0.0
H  H25  1  0.82405806  0.11916761  0.11667402  1  0.07269  0.00027  0.09787  0.097053  0.000171  1.032831  0.0
H  H26  1  0.17594134  0.11667407  0.88083209  1  0.07267  0.00027  0.097881  0.097057  0.000171  1.032801  0.0
H  H27  1  0.82405818  0.88083193  0.88332579  1  0.072685  0.00027  0.097855  0.09703  0.000171  1.032842  0.0
H  H28  1  0.38674884  0.76531793  0.47591848  1  0.079259  0.00018  0.10055  0.103598  7.2e-05  1.008585  0.0
H  H29  1  0.61325139  0.47591862  0.23468155  1  0.079264  0.00018  0.100538  0.103596  7.2e-05  1.008585  0.0
H  H30  1  0.38674885  0.23468161  0.52408127  1  0.079247  0.00018  0.100532  0.103586  7.2e-05  1.0086  0.0
H  H31  1  0.61325147  0.52408151  0.76531823  1  0.07926  0.00018  0.100554  0.103611  7.2e-05  1.008572  0.0
H  H32  1  0.38674892  0.73468138  0.97591858  1  0.079248  0.00018  0.100533  0.103594  7.2e-05  1.008584  0.0
H  H33  1  0.61325139  0.97591836  0.26531816  1  0.079264  0.00018  0.100547  0.103596  7.2e-05  1.008588  0.0
H  H34  1  0.38674877  0.26531816  0.02408117  1  0.079255  0.00018  0.100528  0.103571  7.2e-05  1.008599  0.0
H  H35  1  0.61325147  0.02408119  0.73468161  1  0.079256  0.00018  0.100542  0.103598  7.2e-05  1.008582  0.0
H  H36  1  0.51637991  0.65313206  0.44343703  1  0.082306  0.000215  0.096945  0.100469  9.8e-05  1.035268  0.0
H  H37  1  0.48361946  0.44343658  0.34686794  1  0.082298  0.000215  0.096957  0.100471  9.8e-05  1.035274  0.0
H  H38  1  0.51637993  0.34686748  0.55656332  1  0.082299  0.000215  0.096937  0.100456  9.8e-05  1.035253  0.0
H  H39  1  0.48361951  0.55656354  0.65313241  1  0.0823  0.000215  0.096949  0.100471  9.8e-05  1.035246  0.0
H  H40  1  0.51637998  0.84686783  0.94343657  1  0.082297  0.000215  0.096947  0.100465  9.8e-05  1.035298  0.0
H  H41  1  0.48362030  0.94343689  0.15313233  1  0.082306  0.000215  0.096945  0.100472  9.8e-05  1.035263  0.0
H  H42  1  0.51637985  0.15313230  0.05656320  1  0.082303  0.000215  0.096941  0.100471  9.8e-05  1.035268  0.0
H  H43  1  0.48361954  0.05656324  0.84686743  1  0.082293  0.000215  0.096936  0.100452  9.8e-05  1.035265  0.0
H  H44  1  0.05227512  0.65141825  0.73223286  1  0.033601  5.5e-05  0.110433  0.089059  -6.6e-05  1.005885  0.0
H  H45  1  0.94772516  0.73223257  0.34858183  1  0.033599  5.5e-05  0.110431  0.089044  -6.6e-05  1.005893  0.0
H  H46  1  0.05227418  0.34858188  0.26776742  1  0.033752  5.5e-05  0.110433  0.089051  -6.6e-05  1.005887  0.0
H  H47  1  0.94772521  0.26776697  0.65141858  1  0.033753  5.5e-05  0.11046  0.089086  -6.6e-05  1.005895  0.0
H  H48  1  0.05227504  0.84858162  0.23223278  1  0.03375  5.5e-05  0.110443  0.089086  -6.6e-05  1.005866  0.0
H  H49  1  0.94772513  0.23223282  0.15141847  1  0.03375  5.5e-05  0.110433  0.089049  -6.6e-05  1.005885  0.0
H  H50  1  0.05227513  0.15141793  0.76776751  1  0.033586  5.5e-05  0.110451  0.089084  -6.6e-05  1.005895  0.0
H  H51  1  0.94772524  0.76776730  0.84858194  1  0.033603  5.5e-05  0.110427  0.089048  -6.6e-05  1.005871  0.0
H  H52  1  0.93203809  0.62884888  0.79408493  1  0.043191  0.00245  0.100022  0.07977  0.001156  0.983345  0.001
H  H53  1  0.06796221  0.79408519  0.37115113  1  0.043189  0.00245  0.100024  0.079753  0.001156  0.98335  0.001
H  H54  1  0.93203800  0.37115124  0.20591489  1  0.04319  0.00245  0.100023  0.079763  0.001156  0.983345  0.001
H  H55  1  0.06796226  0.20591494  0.62884915  1  0.043199  0.00245  0.10003  0.079776  0.001156  0.98334  0.001
H  H56  1  0.93203801  0.87115098  0.29408485  1  0.043197  0.00245  0.100027  0.079781  0.001156  0.983343  0.001
H  H57  1  0.06796130  0.29408486  0.12884906  1  0.0432  0.00245  0.100029  0.079759  0.001156  0.983361  0.001
H  H58  1  0.93203808  0.12884856  0.70591556  1  0.043191  0.00245  0.10001  0.079757  0.001156  0.983383  0.001
H  H59  1  0.06796229  0.70591469  0.87115123  1  0.043185  0.00245  0.100029  0.079763  0.001156  0.983367  0.001
H  H60  1  0.78202730  0.75618853  0.79027523  1  0.057399  0.000486  0.103402  0.083087  0.000138  1.00276  0.0
H  H61  1  0.21797211  0.79027490  0.24381096  1  0.057392  0.000486  0.103414  0.083095  0.000138  1.002742  0.0
H  H62  1  0.78202721  0.24381101  0.20972457  1  0.057389  0.000486  0.103411  0.083088  0.000138  1.002742  0.0
H  H63  1  0.21797219  0.20972465  0.75618876  1  0.057389  0.000486  0.103413  0.083091  0.000138  1.002739  0.0
H  H64  1  0.78202809  0.74381133  0.29027513  1  0.057395  0.000486  0.103399  0.083073  0.000138  1.002769  0.0
H  H65  1  0.21797211  0.29027516  0.25618867  1  0.057389  0.000486  0.103409  0.083091  0.000138  1.002746  0.0
H  H66  1  0.78202729  0.25618879  0.70972467  1  0.057395  0.000486  0.103415  0.083102  0.000138  1.00273  0.0
H  H67  1  0.21797218  0.70972496  0.74381106  1  0.057391  0.000486  0.103414  0.083096  0.000138  1.00274  0.0
H  H68  1  0.74941747  0.66156270  0.75289276  1  0.035722  0.005434  0.093091  0.059191  0.002505  0.996342  0.002
H  H69  1  0.25058194  0.75289243  0.33843734  1  0.035729  0.005434  0.093088  0.059171  0.002505  0.996384  0.002
H  H70  1  0.74941739  0.33843743  0.24710762  1  0.035727  0.005434  0.093084  0.059164  0.002505  0.996372  0.002
H  H71  1  0.25058200  0.24710712  0.66156297  1  0.035735  0.005434  0.093093  0.059178  0.002505  0.996384  0.002
H  H72  1  0.74941826  0.83843716  0.25289267  1  0.035736  0.005434  0.09309  0.059178  0.002505  0.996386  0.002
H  H73  1  0.25058192  0.25289268  0.16156287  1  0.035733  0.005434  0.093088  0.059175  0.002505  0.99639  0.002
H  H74  1  0.74941835  0.16156238  0.74710771  1  0.035725  0.005434  0.093117  0.0592  0.002505  0.99629  0.002
H  H75  1  0.25058202  0.74710745  0.83843744  1  0.035726  0.005434  0.093084  0.059165  0.002505  0.996397  0.002
H  H76  1  0.60393199  0.75023463  0.70221362  1  0.032495  -4.3e-05  0.094788  0.096099  -5.7e-05  0.974418  0.0
H  H77  1  0.39606740  0.70221384  0.24976603  1  0.032405  -4.3e-05  0.094788  0.096101  -5.7e-05  0.974435  0.0
H  H78  1  0.60393193  0.24976549  0.29778616  1  0.032491  -4.3e-05  0.09479  0.0961  -5.7e-05  0.974422  0.0
H  H79  1  0.39606748  0.29778629  0.75023430  1  0.032497  -4.3e-05  0.094788  0.096102  -5.7e-05  0.974436  0.0
H  H80  1  0.60393279  0.74976522  0.20221351  1  0.032503  -4.3e-05  0.094788  0.0961  -5.7e-05  0.974427  0.0
H  H81  1  0.39606828  0.20221352  0.25023420  1  0.0324  -4.3e-05  0.094782  0.096091  -5.7e-05  0.974432  0.0
H  H82  1  0.60393201  0.25023432  0.79778626  1  0.032403  -4.3e-05  0.094789  0.096107  -5.7e-05  0.974426  0.0
H  H83  1  0.39606835  0.79778602  0.74976555  1  0.032394  -4.3e-05  0.094782  0.096091  -5.7e-05  0.974437  0.0
H  H84  1  0.70862037  0.81973285  0.67393147  1  0.01237  -0.000114  0.09589  0.094712  -0.000206  1.042133  0.0
H  H85  1  0.29137988  0.67393166  0.18026724  1  0.012375  -0.000114  0.09588  0.0947  -0.000206  1.042173  0.0
H  H86  1  0.70862032  0.18026727  0.32606832  1  0.012374  -0.000114  0.095881  0.094703  -0.000206  1.042174  0.0
H  H87  1  0.29137998  0.32606846  0.81973308  1  0.012364  -0.000114  0.095873  0.094686  -0.000206  1.042184  0.0
H  H88  1  0.70862029  0.68026699  0.17393136  1  0.012366  -0.000114  0.095887  0.094704  -0.000206  1.042135  0.0
H  H89  1  0.29137991  0.17393136  0.31973238  1  0.012375  -0.000114  0.095889  0.094716  -0.000206  1.042162  0.0
H  H90  1  0.70862040  0.31973255  0.82606843  1  0.012379  -0.000114  0.095884  0.094711  -0.000206  1.042166  0.0
H  H91  1  0.29137996  0.82606819  0.68026735  1  0.012377  -0.000114  0.095882  0.094704  -0.000206  1.042172  0.0
H  H92  1  0.66207905  0.65979352  0.60150581  1  0.063303  0.000192  0.094368  0.064979  8.7e-05  1.022706  0.0
H  H93  1  0.33792033  0.60150542  0.34020650  1  0.063299  0.000192  0.094363  0.064976  8.7e-05  1.022727  0.0
H  H94  1  0.66207902  0.34020660  0.39849456  1  0.0633  0.000192  0.094361  0.064982  8.7e-05  1.022696  0.0
H  H95  1  0.33792039  0.39849413  0.65979383  1  0.063315  0.000192  0.094367  0.064997  8.7e-05  1.022697  0.0
H  H96  1  0.66207985  0.84020632  0.10150572  1  0.063309  0.000192  0.094367  0.064983  8.7e-05  1.022707  0.0
H  H97  1  0.33792031  0.10150567  0.15979370  1  0.063299  0.000192  0.094364  0.064981  8.7e-05  1.022712  0.0
H  H98  1  0.66207910  0.15979381  0.89849464  1  0.063303  0.000192  0.094364  0.064973  8.7e-05  1.02273  0.0
H  H99  1  0.33792041  0.89849446  0.84020662  1  0.063301  0.000192  0.094362  0.064988  8.7e-05  1.022694  0.0
H  H100  1  0.65348286  0.75166544  0.55482098  1  0.04392  0.000308  0.106116  0.085953  0.000138  0.967878  0.0
H  H101  1  0.34651651  0.55482114  0.24833461  1  0.043934  0.000308  0.106127  0.085987  0.000138  0.967847  0.0
H  H102  1  0.65348285  0.24833468  0.44517880  1  0.04392  0.000308  0.106115  0.085957  0.000138  0.967876  0.0
H  H103  1  0.34651659  0.44517899  0.75166571  1  0.043922  0.000308  0.106122  0.08597  0.000138  0.967864  0.0
H  H104  1  0.65348278  0.74833439  0.05482088  1  0.043937  0.000308  0.106122  0.085962  0.000138  0.967875  0.0
H  H105  1  0.34651739  0.05482082  0.25166500  1  0.043944  0.000308  0.106116  0.085965  0.000138  0.967873  0.0
H  H106  1  0.65348292  0.25166515  0.94517891  1  0.043948  0.000308  0.106122  0.08597  0.000138  0.967863  0.0
H  H107  1  0.34651746  0.94517873  0.74833474  1  0.043942  0.000308  0.106113  0.085961  0.000138  0.967878  0.0
H  H108  1  0.81754858  0.79041526  0.48454944  1  0.027735  0.007704  0.106578  0.059085  0.003562  0.966484  0.004
H  H109  1  0.18245077  0.48455014  0.20958479  1  0.027754  0.007703  0.106597  0.059105  0.003562  0.966493  0.004
H  H110  1  0.81754859  0.20958486  0.51545036  1  0.02774  0.007704  0.106585  0.059088  0.003562  0.966506  0.004
H  H111  1  0.18245086  0.51545057  0.79041552  1  0.02774  0.007704  0.106585  0.059088  0.003562  0.966489  0.004
H  H112  1  0.81754954  0.70958464  0.98454954  1  0.027746  0.007704  0.10659  0.059087  0.003562  0.966508  0.004
H  H113  1  0.18245078  0.98454930  0.29041487  1  0.027739  0.007703  0.106578  0.059082  0.003562  0.966494  0.004
H  H114  1  0.81754851  0.29041549  0.01545027  1  0.027738  0.007704  0.106588  0.059089  0.003562  0.966495  0.004
H  H115  1  0.18245085  0.01545025  0.70958485  1  0.027748  0.007704  0.106588  0.059102  0.003562  0.966505  0.004
H  H116  1  0.96022849  0.75412817  0.50779141  1  0.056315  0.000637  0.115245  0.072256  0.000129  0.993547  0.0
H  H117  1  0.03977087  0.50779153  0.24587127  1  0.056306  0.000637  0.115248  0.072251  0.000129  0.993554  0.0
H  H118  1  0.96022849  0.24587137  0.49220841  1  0.056318  0.000637  0.115234  0.072241  0.000129  0.993612  0.0
H  H119  1  0.03977095  0.49220860  0.75412843  1  0.056308  0.000637  0.115249  0.072262  0.000129  0.99353  0.0
H  H120  1  0.96022929  0.74587165  0.00779190  1  0.056304  0.000637  0.115269  0.072282  0.000129  0.993547  0.0
H  H121  1  0.03977087  0.00779121  0.25412830  1  0.056308  0.000637  0.115248  0.072257  0.000129  0.993538  0.0
H  H122  1  0.96022857  0.25412847  0.99220851  1  0.056317  0.000637  0.11525  0.072264  0.000129  0.993533  0.0
H  H123  1  0.03977182  0.99220833  0.74587140  1  0.056315  0.000637  0.115238  0.072253  0.000129  0.993603  0.0
H  H124  1  0.98281222  0.66165062  0.60936399  1  0.110466  0.000201  0.119972  0.089332  -3.9e-05  1.023251  0.0
H  H125  1  0.01718717  0.60936475  0.33834938  1  0.11046  0.000201  0.119974  0.089392  -3.9e-05  1.023214  0.0
H  H126  1  0.98281219  0.33834950  0.39063642  1  0.110491  0.000201  0.119955  0.089336  -3.9e-05  1.023213  0.0
H  H127  1  0.01718722  0.39063654  0.66165090  1  0.110493  0.000201  0.119988  0.089372  -3.9e-05  1.023226  0.0
H  H128  1  0.98281214  0.83834922  0.10936391  1  0.110451  0.000201  0.119975  0.08934  -3.9e-05  1.023241  0.0
H  H129  1  0.01718802  0.10936384  0.16165020  1  0.110509  0.000201  0.119964  0.089379  -3.9e-05  1.023176  0.0
H  H130  1  0.98281227  0.16165090  0.89063651  1  0.110496  0.000201  0.119989  0.089372  -3.9e-05  1.023217  0.0
H  H131  1  0.01718725  0.89063629  0.83834950  1  0.110461  0.000201  0.11997  0.089334  -3.9e-05  1.023239  0.0
H  H132  1  0.85273282  0.61170056  0.64219542  1  0.055755  0.00381  0.10579  0.065181  0.001771  0.9788  0.002
H  H133  1  0.14726658  0.64219620  0.38829943  1  0.055761  0.00381  0.105767  0.065176  0.001771  0.978814  0.002
H  H134  1  0.85273278  0.38829957  0.35780439  1  0.055754  0.00381  0.105791  0.065188  0.001771  0.978776  0.002
H  H135  1  0.14726749  0.35780451  0.61170086  1  0.055763  0.00381  0.105792  0.065216  0.001771  0.978801  0.002
H  H136  1  0.85273274  0.88829929  0.14219534  1  0.05576  0.00381  0.105794  0.065188  0.001771  0.9788  0.002
H  H137  1  0.14726654  0.14219528  0.11170075  1  0.055752  0.00381  0.105802  0.065211  0.001771  0.978796  0.002
H  H138  1  0.85273286  0.11170084  0.85780447  1  0.05576  0.00381  0.105788  0.06522  0.001771  0.978784  0.002
H  H139  1  0.14726753  0.85780485  0.88829897  1  0.055762  0.00381  0.105775  0.065184  0.001771  0.9788  0.002
H  H140  1  0.91635352  0.93487178  0.49726845  1  0.027817  0.00383  0.101328  0.079686  0.001769  0.985205  0.002
H  H141  1  0.08364668  0.49726854  0.06512832  1  0.027822  0.00383  0.101309  0.079689  0.001769  0.985191  0.002
H  H142  1  0.91635265  0.06512834  0.50273137  1  0.026833  0.003838  0.101301  0.079682  0.001769  0.985208  0.002
H  H143  1  0.08364682  0.50273159  0.93487197  1  0.027069  0.003836  0.101312  0.079675  0.001769  0.985192  0.002
H  H144  1  0.91635360  0.56512812  0.99726853  1  0.026839  0.003838  0.101301  0.07968  0.001769  0.985215  0.002
H  H145  1  0.08364674  0.99726831  0.43487190  1  0.026826  0.003838  0.101311  0.079681  0.001769  0.985191  0.002
H  H146  1  0.91635345  0.43487142  0.00273187  1  0.02758  0.003831  0.101312  0.079685  0.001769  0.985176  0.002
H  H147  1  0.08364677  0.00273124  0.56512839  1  0.027826  0.00383  0.101303  0.079685  0.001769  0.9852  0.002
H  H148  1  0.04321481  0.87426189  0.50637976  1  0.075684  0.000317  0.102632  0.082267  4.3e-05  1.025946  0.0
H  H149  1  0.95678541  0.50637933  0.12573825  1  0.075687  0.000317  0.102624  0.082277  4.3e-05  1.025922  0.0
H  H150  1  0.04321481  0.12573824  0.49362053  1  0.075687  0.000317  0.102627  0.082284  4.3e-05  1.025915  0.0
H  H151  1  0.95678465  0.49362079  0.87426157  1  0.07568  0.000317  0.102622  0.082278  4.3e-05  1.025918  0.0
H  H152  1  0.04321473  0.62573794  0.00637964  1  0.075892  0.000317  0.102632  0.082258  4.3e-05  1.025961  0.0
H  H153  1  0.95678545  0.00637903  0.37426144  1  0.07568  0.000317  0.102617  0.082282  4.3e-05  1.02592  0.0
H  H154  1  0.04321489  0.37426161  0.99362065  1  0.075682  0.000317  0.102626  0.082287  4.3e-05  1.025904  0.0
H  H155  1  0.95678548  0.99362051  0.62573839  1  0.075689  0.000317  0.102626  0.082282  4.3e-05  1.025917  0.0
C  C156  1  0.49999926  0.50000035  0.49999959  1  -0.003616  -2.6e-05  0.011344  -0.005772  -0.000133  3.800838  0.0
C  C157  1  0.50000006  0.00000005  0.00000011  1  -0.003624  -2.6e-05  0.011347  -0.005767  -0.000133  3.800905  0.0
C  C158  1  0.42061084  0.57095794  0.51427752  1  -0.035201  -0.001224  -0.003217  0.070614  -0.001372  3.916807  -0.001
C  C159  1  0.57938943  0.51427770  0.42904146  1  -0.035161  -0.001224  -0.003236  0.070606  -0.001372  3.916761  -0.001
C  C160  1  0.42061083  0.42904161  0.48572223  1  -0.035185  -0.001224  -0.003199  0.070635  -0.001372  3.916777  -0.001
C  C161  1  0.57939033  0.48572301  0.57095831  1  -0.035205  -0.001224  -0.003196  0.070642  -0.001372  3.916816  -0.001
C  C162  1  0.42061076  0.92904189  0.01427745  1  -0.035187  -0.001224  -0.003212  0.070639  -0.001372  3.916799  -0.001
C  C163  1  0.57938938  0.01427736  0.07095818  1  -0.035212  -0.001224  -0.003237  0.070578  -0.001372  3.916831  -0.001
C  C164  1  0.42061091  0.07095824  0.98572231  1  -0.035184  -0.001224  -0.003198  0.070653  -0.001372  3.916773  -0.001
C  C165  1  0.57938950  0.98572219  0.92904160  1  -0.035146  -0.001224  -0.003203  0.070627  -0.001372  3.916757  -0.001
C  C166  1  0.32273672  0.56180581  0.56306986  1  -0.07805  0.000318  -0.095059  -0.135663  0.00013  4.005229  0.0
C  C167  1  0.67726356  0.56307007  0.43819419  1  -0.078594  0.000318  -0.095035  -0.135669  0.00013  4.00525  0.0
C  C168  1  0.32273670  0.43819432  0.43693046  1  -0.078587  0.000318  -0.095042  -0.135654  0.00013  4.005255  0.0
C  C169  1  0.67726270  0.43693006  0.56180560  1  -0.078155  0.000318  -0.095054  -0.13566  0.00013  4.005265  0.0
C  C170  1  0.32273664  0.93819403  0.06306978  1  -0.078568  0.000318  -0.095065  -0.135711  0.00013  4.005276  0.0
C  C171  1  0.67726350  0.06306972  0.06180547  1  -0.078584  0.000318  -0.095012  -0.135656  0.00013  4.005233  0.0
C  C172  1  0.32273678  0.06180552  0.93692996  1  -0.078585  0.000318  -0.09504  -0.135649  0.00013  4.005239  0.0
C  C173  1  0.67726363  0.93692982  0.93819432  1  -0.078599  0.000318  -0.095044  -0.135658  0.00013  4.005216  0.0
C  C174  1  0.25072296  0.62438345  0.58057165  1  -0.062359  -0.000477  -0.092449  -0.097318  -0.000651  4.00082  0.0
C  C175  1  0.74927731  0.58057128  0.37561658  1  -0.062361  -0.000477  -0.092443  -0.097309  -0.000652  4.000856  0.0
C  C176  1  0.25072294  0.37561610  0.41942866  1  -0.062341  -0.000478  -0.092495  -0.097374  -0.000652  4.000971  0.0
C  C177  1  0.74927735  0.41942884  0.62438380  1  -0.06236  -0.000478  -0.092491  -0.097339  -0.000652  4.000993  0.0
C  C178  1  0.25072201  0.87561639  0.08057098  1  -0.062376  -0.000477  -0.092503  -0.097396  -0.000651  4.000975  0.0
C  C179  1  0.74927727  0.08057152  0.12438367  1  -0.062358  -0.000477  -0.092511  -0.097395  -0.000651  4.001034  0.0
C  C180  1  0.25072389  0.12438432  0.91942816  1  -0.062346  -0.000477  -0.092486  -0.097368  -0.000651  4.000991  0.0
C  C181  1  0.74927738  0.91942860  0.87561671  1  -0.062364  -0.000477  -0.092446  -0.097311  -0.000651  4.000862  0.0
C  C182  1  0.27384343  0.69820849  0.54941970  1  0.006311  0.007177  -0.028447  -0.045351  0.004315  4.013209  0.005
C  C183  1  0.72615594  0.54941989  0.30179098  1  0.006321  0.007176  -0.028426  -0.045338  0.004315  4.013181  0.005
C  C184  1  0.27384342  0.30179105  0.45058003  1  0.0063  0.007176  -0.028391  -0.045321  0.004315  4.013336  0.005
C  C185  1  0.72615688  0.45058024  0.69820882  1  0.006307  0.007176  -0.028418  -0.045391  0.004315  4.013362  0.005
C  C186  1  0.27384336  0.80179134  0.04941961  1  0.006322  0.007176  -0.028407  -0.04535  0.004315  4.013338  0.005
C  C187  1  0.72615593  0.04941956  0.19820868  1  0.006314  0.007176  -0.028391  -0.045285  0.004315  4.013321  0.005
C  C188  1  0.27384438  0.19820937  0.95057896  1  0.006344  0.007176  -0.028411  -0.04531  0.004315  4.013308  0.005
C  C189  1  0.72615601  0.95057998  0.80179111  1  0.006317  0.007176  -0.028429  -0.045342  0.004315  4.013204  0.005
C  C190  1  0.36968694  0.70757202  0.49980044  1  -0.107303  0.000227  -0.090434  -0.099001  -0.000218  4.008072  0.0
C  C191  1  0.63031330  0.49980001  0.29242803  1  -0.107313  0.000227  -0.090444  -0.099034  -0.000218  4.008089  0.0
C  C192  1  0.36968694  0.29242753  0.50019989  1  -0.107306  0.000227  -0.090446  -0.099027  -0.000218  4.008136  0.0
C  C193  1  0.63031337  0.50019953  0.70757175  1  -0.107305  0.000227  -0.090452  -0.099018  -0.000218  4.008146  0.0
C  C194  1  0.36968701  0.79242788  0.99979996  1  -0.107298  0.000227  -0.090448  -0.099032  -0.000218  4.008112  0.0
C  C195  1  0.63031329  0.99980032  0.20757227  1  -0.107325  0.000227  -0.090457  -0.099039  -0.000218  4.008151  0.0
C  C196  1  0.36968774  0.20757224  0.00019920  1  -0.107286  0.000227  -0.090435  -0.098986  -0.000218  4.008071  0.0
C  C197  1  0.63031339  0.00019980  0.79242809  1  -0.107306  0.000227  -0.090441  -0.09902  -0.000218  4.008093  0.0
C  C198  1  0.44217704  0.64456170  0.48232485  1  -0.044212  0.000864  -0.098783  -0.145237  0.000458  4.010125  0.001
C  C199  1  0.55782320  0.48232442  0.35543831  1  -0.044214  0.000864  -0.098766  -0.145196  0.000458  4.010105  0.001
C  C200  1  0.44217705  0.35543785  0.51767549  1  -0.044209  0.000864  -0.09878  -0.145216  0.000458  4.010077  0.001
C  C201  1  0.55782325  0.51767512  0.64456204  1  -0.044211  0.000864  -0.098783  -0.145233  0.000458  4.010141  0.001
C  C202  1  0.44217712  0.85543820  0.98232438  1  -0.044214  0.000864  -0.098777  -0.145217  0.000458  4.010118  0.001
C  C203  1  0.55782317  0.98232473  0.14456197  1  -0.04421  0.000864  -0.098779  -0.145217  0.000458  4.010154  0.001
C  C204  1  0.44217698  0.14456192  0.01767537  1  -0.044226  0.000864  -0.098796  -0.145276  0.000458  4.010119  0.001
C  C205  1  0.55782241  0.01767540  0.85543780  1  -0.044213  0.000864  -0.098773  -0.145208  0.000458  4.010066  0.001
C  C206  1  0.19976228  0.76681748  0.57153133  1  1.551079  -0.000751  0.194931  0.545353  -0.001195  4.256009  -0.001
C  C207  1  0.80023796  0.57153153  0.23318261  1  1.551078  -0.000751  0.194928  0.545367  -0.001196  4.256029  -0.001
C  C208  1  0.19976227  0.23318265  0.42846839  1  1.551071  -0.000751  0.194908  0.545352  -0.001195  4.256041  -0.001
C  C209  1  0.80023804  0.42846860  0.76681777  1  1.551082  -0.00075  0.194949  0.545407  -0.001195  4.256011  -0.001
C  C210  1  0.19976221  0.73318236  0.07153123  1  1.551079  -0.000751  0.194957  0.545409  -0.001195  4.255992  -0.001
C  C211  1  0.80023797  0.07153179  0.26681706  1  1.551082  -0.000751  0.194932  0.545366  -0.001196  4.255987  -0.001
C  C212  1  0.19976322  0.26681777  0.92846791  1  1.551056  -0.00075  0.194929  0.545324  -0.001195  4.255942  -0.001
C  C213  1  0.80023803  0.92846833  0.73318274  1  1.551077  -0.000751  0.194909  0.545322  -0.001195  4.256071  -0.001
C  C214  1  0.97766084  0.67688187  0.76360093  1  0.265582  -9e-05  -0.068437  -0.094191  -0.00062  3.899043  -0.001
C  C215  1  0.02233857  0.76360117  0.32311816  1  0.265578  -9e-05  -0.068422  -0.094116  -0.00062  3.899068  -0.001
C  C216  1  0.97766076  0.32311826  0.23639948  1  0.295237  -8.9e-05  -0.068434  -0.094152  -0.00062  3.899026  -0.001
C  C217  1  0.02233863  0.23639954  0.67688212  1  0.265434  -9e-05  -0.068459  -0.0942  -0.000621  3.899142  -0.001
C  C218  1  0.97766076  0.82311800  0.26360026  1  0.295236  -8.9e-05  -0.068462  -0.094257  -0.00062  3.899118  -0.001
C  C219  1  0.02233856  0.26360084  0.17688202  1  0.265425  -9e-05  -0.068429  -0.094131  -0.00062  3.899041  -0.001
C  C220  1  0.97766083  0.17688155  0.73639957  1  0.295396  -8.9e-05  -0.068468  -0.09425  -0.00062  3.899154  -0.001
C  C221  1  0.02233953  0.73639929  0.82311826  1  0.295395  -8.9e-05  -0.068442  -0.094169  -0.00062  3.899062  -0.001
C  C222  1  0.77929090  0.72094850  0.73702445  1  0.24002  0.000721  -0.070788  -0.052105  0.000371  3.876893  -0.001
C  C223  1  0.22070937  0.73702468  0.27905097  1  0.240015  0.000721  -0.070778  -0.052061  0.000371  3.876908  -0.001
C  C224  1  0.77929083  0.27905104  0.26297535  1  0.240028  0.000721  -0.070765  -0.052023  0.000371  3.876858  -0.001
C  C225  1  0.22070944  0.26297544  0.72094933  1  0.240022  0.000721  -0.070766  -0.052035  0.000371  3.876878  -0.001
C  C226  1  0.77929082  0.77905078  0.23702435  1  0.240023  0.000721  -0.070783  -0.05206  0.000371  3.876909  -0.001
C  C227  1  0.22070937  0.23702494  0.22094923  1  0.240019  0.000721  -0.070798  -0.052077  0.000371  3.87688  -0.001
C  C228  1  0.77929091  0.22094877  0.76297545  1  0.240021  0.000721  -0.070794  -0.052083  0.000371  3.876804  -0.001
C  C229  1  0.22070945  0.76297518  0.77905108  1  0.240019  0.000721  -0.070776  -0.052055  0.000371  3.876895  -0.001
C  C230  1  0.69328436  0.75700497  0.67901650  1  -0.002366  0.000185  -0.167089  -0.192514  -0.000135  3.916683  0.0
C  C231  1  0.30671590  0.67901671  0.24299510  1  -0.00237  0.000185  -0.167081  -0.192486  -0.000135  3.916728  0.0
C  C232  1  0.69328431  0.24299515  0.32098329  1  -0.002362  0.000185  -0.167081  -0.192501  -0.000135  3.91669  0.0
C  C233  1  0.30671599  0.32098342  0.75700522  1  -0.002375  0.000185  -0.167086  -0.192495  -0.000135  3.91674  0.0
C  C234  1  0.69328428  0.74299488  0.17901640  1  -0.002375  0.000185  -0.16708  -0.192499  -0.000135  3.91671  0.0
C  C235  1  0.30671591  0.17901639  0.25700453  1  -0.002358  0.000185  -0.167073  -0.192496  -0.000135  3.916726  0.0
C  C236  1  0.69328438  0.25700467  0.82098339  1  -0.002368  0.000185  -0.167088  -0.192519  -0.000135  3.916704  0.0
C  C237  1  0.30671598  0.82098316  0.74299521  1  -0.002362  0.000185  -0.167083  -0.192495  -0.000135  3.916707  0.0
C  C238  1  0.70194621  0.71825340  0.59891613  1  0.252214  2.3e-05  -0.068253  -0.055022  -1e-05  3.933464  0.0
C  C239  1  0.29805317  0.59891631  0.28174723  1  0.252224  2.3e-05  -0.068302  -0.055098  -1e-05  3.933496  0.0
C  C240  1  0.70194618  0.28174673  0.40108424  1  0.252215  2.3e-05  -0.068269  -0.055056  -1e-05  3.933414  0.0
C  C241  1  0.29805324  0.40108382  0.71825367  1  0.252216  2.3e-05  -0.068293  -0.055099  -1e-05  3.93348  0.0
C  C242  1  0.70194613  0.78174644  0.09891603  1  0.25219  2.3e-05  -0.068256  -0.055034  -1e-05  3.933472  0.0
C  C243  1  0.29805404  0.09891599  0.21825297  1  0.252189  2.3e-05  -0.068271  -0.055052  -1e-05  3.9335  0.0
C  C244  1  0.70194626  0.21825310  0.90108376  1  0.252185  2.3e-05  -0.068277  -0.055063  -1e-05  3.933435  0.0
C  C245  1  0.29805412  0.90108414  0.78174677  1  0.252195  2.3e-05  -0.068277  -0.055072  -1e-05  3.933428  0.0
C  C246  1  0.87671842  0.77383182  0.53282641  1  0.643553  0.00022  0.02683  0.062239  -0.000364  3.935023  -0.002
C  C247  1  0.12328094  0.53282654  0.22616880  1  0.643546  0.00022  0.026791  0.062211  -0.000364  3.935112  -0.002
C  C248  1  0.87671841  0.22616830  0.46717340  1  0.643547  0.00022  0.026822  0.062219  -0.000364  3.93515  -0.002
C  C249  1  0.12328103  0.46717358  0.77383207  1  0.643545  0.00022  0.026853  0.06228  -0.000364  3.935006  -0.002
C  C250  1  0.87671922  0.72616859  0.03282631  1  0.643547  0.00022  0.026776  0.062184  -0.000364  3.935102  -0.002
C  C251  1  0.12328183  0.03282623  0.27383136  1  0.643559  0.00022  0.026808  0.062244  -0.000364  3.935021  -0.002
C  C252  1  0.87671849  0.27383212  0.96717350  1  0.643551  0.00022  0.02682  0.062231  -0.000364  3.935036  -0.002
C  C253  1  0.12328102  0.96717332  0.72616835  1  0.643838  0.00022  0.026811  0.062188  -0.000364  3.935132  -0.002
C  C254  1  0.89317702  0.66928167  0.63069120  1  0.540854  -0.001088  0.021169  0.010002  -0.00164  3.898589  -0.002
C  C255  1  0.10682237  0.63069139  0.33071834  1  0.540855  -0.001088  0.021189  0.009969  -0.00164  3.898528  -0.002
C  C256  1  0.89317698  0.33071845  0.36930920  1  0.540814  -0.001088  0.021186  0.010008  -0.00164  3.898543  -0.002
C  C257  1  0.10682330  0.36930874  0.66928195  1  0.540822  -0.001088  0.02112  0.00985  -0.00164  3.898721  -0.002
C  C258  1  0.89317694  0.83071817  0.13069111  1  0.540858  -0.001088  0.021177  0.010005  -0.00164  3.898559  -0.002
C  C259  1  0.10682322  0.13069106  0.16928125  1  0.540798  -0.001088  0.021204  0.009999  -0.001639  3.898477  -0.002
C  C260  1  0.89317706  0.16928137  0.86930929  1  0.540789  -0.001088  0.021194  0.009965  -0.001639  3.8985  -0.002
C  C261  1  0.10682332  0.86930907  0.83071846  1  0.540854  -0.001088  0.021189  0.010019  -0.00164  3.898566  -0.002
C  C262  1  0.97282112  0.90340302  0.53878032  1  0.279572  0.000931  -0.074345  -0.059374  6.6e-05  3.893988  -0.001
C  C263  1  0.02717910  0.53878043  0.09659649  1  0.260871  0.00093  -0.07434  -0.059375  6.6e-05  3.893976  -0.001
C  C264  1  0.97282111  0.09659652  0.46121950  1  0.260886  0.000929  -0.074306  -0.059344  6.5e-05  3.893957  -0.001
C  C265  1  0.02717922  0.46121970  0.90340321  1  0.279584  0.000931  -0.074327  -0.059368  6.6e-05  3.89394  -0.001
C  C266  1  0.97282104  0.59659681  0.03878020  1  0.27934  0.000931  -0.074319  -0.059348  6.6e-05  3.893999  -0.001
C  C267  1  0.02717915  0.03878014  0.40340308  1  0.279569  0.000931  -0.074339  -0.059402  6.6e-05  3.893983  -0.001
C  C268  1  0.97282119  0.40340332  0.96121963  1  0.260875  0.00093  -0.074326  -0.059367  6.6e-05  3.893913  -0.001
C  C269  1  0.02717917  0.96121941  0.59659662  1  0.260876  0.000929  -0.074314  -0.059355  6.5e-05  3.893961  -0.001
N  N270  1  0.82343642  0.70892772  0.57296452  1  -1.069091  0.001204  -0.342402  -0.17353  0.000259  3.551105  0.001
N  N271  1  0.17656208  0.57296527  0.29107172  1  -1.06909  0.001204  -0.342397  -0.173577  0.000259  3.551099  0.001
N  N272  1  0.82343640  0.29107182  0.42703528  1  -1.069099  0.001204  -0.342406  -0.17353  0.000259  3.551131  0.001
N  N273  1  0.17656302  0.42703544  0.70892858  1  -1.06909  0.001204  -0.342419  -0.173556  0.000259  3.551117  0.001
N  N274  1  0.82343634  0.79107211  0.07296443  1  -1.069095  0.001204  -0.342397  -0.173524  0.000259  3.551086  0.001
N  N275  1  0.17656295  0.07296494  0.20892787  1  -1.069094  0.001204  -0.342406  -0.173576  0.000259  3.551053  0.001
N  N276  1  0.82343648  0.20892801  0.92703538  1  -1.069075  0.001204  -0.342429  -0.173554  0.000259  3.551065  0.001
N  N277  1  0.17656303  0.92703519  0.79107185  1  -1.069094  0.001204  -0.342395  -0.173546  0.000259  3.551068  0.001
N  N278  1  0.90525038  0.84343313  0.58092810  1  -1.073029  0.087015  -0.497445  -0.338671  0.050207  3.507076  0.075
N  N279  1  0.09474898  0.58092824  0.15656695  1  -1.073027  0.087016  -0.497426  -0.338642  0.050208  3.507049  0.075
N  N280  1  0.90525036  0.15656700  0.41907171  1  -1.073031  0.087016  -0.497445  -0.338677  0.050208  3.507104  0.075
N  N281  1  0.09474996  0.41907189  0.84343334  1  -1.07303  0.087016  -0.497444  -0.338676  0.050208  3.507121  0.075
N  N282  1  0.90525030  0.65656671  0.08092799  1  -1.073022  0.087017  -0.497439  -0.338665  0.050209  3.507087  0.075
N  N283  1  0.09474988  0.08092852  0.34343321  1  -1.073022  0.087016  -0.497426  -0.338662  0.050208  3.50711  0.075
N  N284  1  0.90525044  0.34343342  0.91907183  1  -1.073034  0.087016  -0.497452  -0.338695  0.050208  3.507097  0.075
N  N285  1  0.09474993  0.91907161  0.65656708  1  -1.073333  0.087016  -0.497445  -0.338664  0.050208  3.507095  0.075
N  N286  1  0.90018918  0.71417466  0.70548350  1  -0.970272  0.064754  -0.337666  -0.127329  0.038121  3.438265  0.058
N  N287  1  0.09981021  0.70548429  0.28582480  1  -0.970269  0.064755  -0.337651  -0.127329  0.038122  3.438256  0.058
N  N288  1  0.90019000  0.28582488  0.29451690  1  -0.970271  0.064753  -0.337668  -0.127381  0.038121  3.438229  0.058
N  N289  1  0.09981028  0.29451642  0.71417491  1  -0.970279  0.064754  -0.337642  -0.127278  0.038122  3.438251  0.058
N  N290  1  0.90018998  0.78582461  0.20548340  1  -0.970287  0.064753  -0.337655  -0.127318  0.038121  3.438229  0.058
N  N291  1  0.09981021  0.20548339  0.21417480  1  -0.970258  0.064755  -0.337668  -0.127379  0.038122  3.438233  0.058
N  N292  1  0.90018920  0.21417493  0.79451700  1  -0.97027  0.064754  -0.337664  -0.127312  0.038122  3.438235  0.058
N  N293  1  0.09981029  0.79451674  0.78582491  1  -0.970269  0.064754  -0.337648  -0.127317  0.038122  3.438175  0.058
O  O294  1  0.11525398  0.75052289  0.61847938  1  -1.171589  0.067409  -0.323245  -0.559766  0.038482  2.438482  0.063
O  O295  1  0.88474627  0.61847902  0.24947663  1  -1.171604  0.067407  -0.323218  -0.55975  0.038481  2.43855  0.063
O  O296  1  0.11525395  0.24947666  0.38152091  1  -1.171579  0.067408  -0.323221  -0.559732  0.038482  2.438517  0.063
O  O297  1  0.88474635  0.38152110  0.75052319  1  -1.171588  0.067408  -0.323236  -0.55977  0.038482  2.438543  0.063
O  O298  1  0.11525390  0.74947696  0.11847928  1  -1.171583  0.067409  -0.323234  -0.559755  0.038483  2.438512  0.063
O  O299  1  0.88474715  0.11847870  0.25052248  1  -1.1716  0.067407  -0.323229  -0.559758  0.038482  2.438504  0.063
O  O300  1  0.11525402  0.25052317  0.88152101  1  -1.171569  0.067407  -0.323233  -0.55976  0.038482  2.438564  0.063
O  O301  1  0.88474722  0.88152142  0.74947733  1  -1.171603  0.067408  -0.323238  -0.559751  0.038482  2.438533  0.063
O  O302  1  0.22623297  0.83329275  0.54572881  1  -1.184861  -0.001121  -0.343483  -0.565187  -0.001999  2.114917  -0.001
O  O303  1  0.77376638  0.54572898  0.16670678  1  -1.18487  -0.001121  -0.343498  -0.565215  -0.001999  2.114898  -0.001
O  O304  1  0.22623296  0.16670738  0.45427092  1  -1.184856  -0.001121  -0.343477  -0.565186  -0.001999  2.11491  -0.001
O  O305  1  0.77376736  0.45427115  0.83329302  1  -1.184871  -0.001121  -0.343468  -0.565169  -0.001999  2.114926  -0.001
O  O306  1  0.22623289  0.66670708  0.04572869  1  -1.18487  -0.001121  -0.343467  -0.565165  -0.001999  2.114923  -0.001
O  O307  1  0.77376641  0.04572867  0.33329289  1  -1.184853  -0.001121  -0.343482  -0.565191  -0.001999  2.114888  -0.001
O  O308  1  0.22623216  0.33329305  0.95427220  1  -1.184878  -0.001121  -0.343476  -0.565158  -0.001999  2.114821  -0.001
O  O309  1  0.77376733  0.95427087  0.66670750  1  -1.184847  -0.001121  -0.343463  -0.565159  -0.001999  2.114914  -0.001
