# generated using pymatgen
data_CdH23C22(NO2)2
_symmetry_space_group_name_H-M   'P 1'
_cell_length_a   10.68970097
_cell_length_b   12.52750774
_cell_length_c   19.14958619
_cell_angle_alpha   101.37578716
_cell_angle_beta   89.98922564
_cell_angle_gamma   115.26881771
_symmetry_Int_Tables_number   1
_chemical_formula_structural   CdH23C22(NO2)2
_chemical_formula_sum   'Cd4 H92 C88 N8 O16'
_cell_volume   2263.25737527
_cell_formula_units_Z   4
loop_
 _symmetry_equiv_pos_site_id
 _symmetry_equiv_pos_as_xyz
  1  'x, y, z'
loop_
 _atom_site_type_symbol
 _atom_site_label
 _atom_site_symmetry_multiplicity
 _atom_site_fract_x
 _atom_site_fract_y
 _atom_site_fract_z
 _atom_site_occupancy
 _atom_site_pbe_bader_charge
 _atom_site_pbe_bader_spin_density
 _atom_site_pbe_cm5_charge
 _atom_site_pbe_ddec_charge
 _atom_site_pbe_ddec_spin_density
 _atom_site_pbe_ddec_sum_bond_order
 _atom_site_pbe_magmom
Cd  Cd0  1  0.60887637  0.08292264  0.93643396  1  1.273135  0  0.779977  0.942999  0  2.136561  0
Cd  Cd1  1  0.52618310  0.91719733  0.56355065  1  1.271582  0  0.779892  0.942799  0  2.136523  0
Cd  Cd2  1  0.39112517  0.91707779  0.06356798  1  1.273182  0  0.77999  0.943045  0  2.136481  0
Cd  Cd3  1  0.47381660  0.08280129  0.43645001  1  1.271733  0  0.779887  0.942836  0  2.136466  0
H  H4  1  0.88875573  0.19929522  0.81221088  1  0.092332  0  0.109626  0.166493  0  0.969372  0
H  H5  1  0.68944517  0.80060955  0.68788470  1  0.089936  0  0.109366  0.166328  0  0.969623  0
H  H6  1  0.11124440  0.80070611  0.18778857  1  0.092353  0  0.1096  0.166459  0  0.969383  0
H  H7  1  0.31055546  0.19938907  0.31211335  1  0.089866  0  0.109374  0.166328  0  0.969649  0
H  H8  1  0.03998980  0.27538420  0.87435918  1  0.049193  0  0.101963  0.144663  0  1.016086  0
H  H9  1  0.76469256  0.72459692  0.62572516  1  0.058803  0  0.102081  0.144854  0  1.016019  0
H  H10  1  0.96001035  0.72461532  0.12564108  1  0.04919  0  0.101948  0.144627  0  1.016106  0
H  H11  1  0.23530856  0.27540080  0.37427382  1  0.058851  0  0.102062  0.144801  0  1.01606  0
H  H12  1  0.87547542  0.26033829  0.90210704  1  0.092028  0  0.109974  0.165353  0  0.985969  0
H  H13  1  0.61525214  0.73962937  0.59798294  1  0.096526  0  0.109739  0.164771  0  0.985978  0
H  H14  1  0.12452334  0.73966033  0.09789362  1  0.092137  0  0.109975  0.165368  0  0.985972  0
H  H15  1  0.38474850  0.26036925  0.40201564  1  0.096538  0  0.109734  0.164772  0  0.985992  0
H  H16  1  0.08191593  0.86437295  0.89829032  1  0.079736  0  0.100584  0.107627  0  1.041433  0
H  H17  1  0.21772614  0.13564184  0.60163998  1  0.073841  0  0.100911  0.10809  0  1.041105  0
H  H18  1  0.91808284  0.13562567  0.10170877  1  0.079732  0  0.100597  0.107619  0  1.041435  0
H  H19  1  0.78227401  0.86435768  0.39835819  1  0.073866  0  0.100905  0.108111  0  1.041076  0
H  H20  1  0.93389282  0.69870665  0.95613628  1  0.060467  0  0.101387  0.105349  0  1.001611  0
H  H21  1  0.23537970  0.30128372  0.54383771  1  0.082464  0  0.101675  0.105392  0  1.002113  0
H  H22  1  0.06610779  0.30129378  0.04386410  1  0.060467  0  0.101391  0.105347  0  1.001623  0
H  H23  1  0.76462088  0.69871852  0.45616186  1  0.082474  0  0.101681  0.10535  0  1.002177  0
H  H24  1  0.70670701  0.68325360  0.99665542  1  0.049415  0  0.099196  0.096006  0  0.996414  0
H  H25  1  0.02360407  0.31667948  0.50335720  1  0.059873  0  0.099162  0.095915  0  0.996487  0
H  H26  1  0.29329360  0.31674683  0.00334548  1  0.04942  0  0.099193  0.096017  0  0.996392  0
H  H27  1  0.97639511  0.68332185  0.49664329  1  0.059896  0  0.099161  0.095927  0  0.996496  0
H  H28  1  0.62370101  0.83627889  0.98306102  1  0.137059  0  0.105077  0.125662  0  1.018295  0
H  H29  1  0.78760455  0.16368736  0.51704704  1  0.136292  0  0.10506  0.125921  0  1.017882  0
H  H30  1  0.37629960  0.16372154  0.01693831  1  0.137047  0  0.105055  0.125622  0  1.018258  0
H  H31  1  0.21239280  0.83631216  0.48295217  1  0.136312  0  0.105091  0.12598  0  1.017895  0
H  H32  1  0.18654968  0.05155865  0.86832800  1  0.075113  0  0.116106  0.102653  0  0.972908  0
H  H33  1  0.13524739  0.94857406  0.63160900  1  0.072577  0  0.116083  0.102171  0  0.973552  0
H  H34  1  0.81344999  0.94844178  0.13167081  1  0.075079  0  0.116111  0.102664  0  0.972919  0
H  H35  1  0.86475276  0.05142546  0.36839074  1  0.072558  0  0.116074  0.102137  0  0.973589  0
H  H36  1  0.18102371  0.19013238  0.87165745  1  0.041572  0  0.10875  0.080104  0  1.011284  0
H  H37  1  0.99117462  0.80991336  0.62825457  1  0.046019  0  0.10891  0.080264  0  1.010731  0
H  H38  1  0.81897503  0.80986805  0.12834240  1  0.041582  0  0.108754  0.080118  0  1.011244  0
H  H39  1  0.00882647  0.19008616  0.37174569  1  0.046009  0  0.108896  0.080248  0  1.010776  0
H  H40  1  0.04815774  0.11180854  0.75022600  1  0.0223  0  0.091313  0.08593  0  0.997681  0
H  H41  1  0.93652454  0.88790603  0.74970079  1  0.039539  0  0.091358  0.086097  0  0.99782  0
H  H42  1  0.95184284  0.88819370  0.24977356  1  0.022338  0  0.091278  0.085888  0  0.99768  0
H  H43  1  0.06347510  0.11209621  0.25029773  1  0.039532  0  0.091353  0.086072  0  0.997818  0
H  H44  1  0.21268792  0.11134245  0.75007806  1  0.065059  0  0.093896  0.095708  0  1.007267  0
H  H45  1  0.10173808  0.88882122  0.74987636  1  0.049299  0  0.093943  0.095973  0  1.00875  0
H  H46  1  0.78731359  0.88865979  0.24992150  1  0.065075  0  0.09388  0.095668  0  1.007346  0
H  H47  1  0.89826249  0.11118102  0.25012425  1  0.049068  0  0.093944  0.095962  0  1.008731  0
H  H48  1  0.45079119  0.35133686  0.85509679  1  0.077342  0  0.104824  0.105971  0  1.013627  0
H  H49  1  0.09948128  0.64866002  0.64492251  1  0.079648  0  0.104916  0.106488  0  1.013237  0
H  H50  1  0.54920802  0.64866266  0.14490399  1  0.077434  0  0.104821  0.105974  0  1.013635  0
H  H51  1  0.90052213  0.35134041  0.35507891  1  0.079569  0  0.104913  0.106503  0  1.013188  0
H  H52  1  0.43966544  0.37411168  0.63295067  1  0.102287  0  0.104825  0.106217  0  1.039989  0
H  H53  1  0.06555887  0.62606079  0.86709461  1  0.096357  0  0.104761  0.106089  0  1.039828  0
H  H54  1  0.56033329  0.62588875  0.36704814  1  0.102229  0  0.104819  0.106205  0  1.040045  0
H  H55  1  0.93444080  0.37393964  0.13290576  1  0.096394  0  0.104775  0.106063  0  1.03984  0
H  H56  1  0.54288798  0.10895832  0.69679164  1  0.133711  0  0.10527  0.116958  0  1.035395  0
H  H57  1  0.43408911  0.89106748  0.80314163  1  0.151092  0  0.105011  0.116613  0  1.035355  0
H  H58  1  0.45711124  0.89104121  0.30320966  1  0.133718  0  0.105283  0.116968  0  1.035389  0
H  H59  1  0.56591243  0.10893295  0.19685926  1  0.151072  0  0.105025  0.116638  0  1.035346  0
H  H60  1  0.47143900  0.56149389  0.67506453  1  0.00902  0  0.086118  0.12031  0  1.005582  0
H  H61  1  0.91002073  0.43845120  0.82491809  1  -0.000895  0  0.086404  0.120797  0  1.005181  0
H  H62  1  0.52856302  0.43850564  0.32493677  1  0.009079  0  0.086131  0.120333  0  1.005552  0
H  H63  1  0.08997894  0.56154923  0.17508228  1  -0.000596  0  0.086403  0.120791  0  1.005189  0
H  H64  1  0.34984836  0.60437727  0.72027981  1  0.039962  0  0.084557  0.122366  0  1.045008  0
H  H65  1  0.74553524  0.39548023  0.77972117  1  0.04241  0  0.084257  0.121939  0  1.045574  0
H  H66  1  0.65015225  0.39562316  0.27972056  1  0.039966  0  0.084566  0.122393  0  1.044982  0
H  H67  1  0.25446443  0.60452020  0.22027921  1  0.042408  0  0.084272  0.121932  0  1.045597  0
H  H68  1  0.29175479  0.45832550  0.66394392  1  0.036152  0  0.084503  0.116008  0  1.022771  0
H  H69  1  0.83344321  0.54152772  0.83609464  1  0.0208  0  0.084607  0.116138  0  1.02279  0
H  H70  1  0.70824536  0.54167403  0.33605686  1  0.036141  0  0.084508  0.116043  0  1.022716  0
H  H71  1  0.16655692  0.45847361  0.16390533  1  0.02082  0  0.0846  0.116109  0  1.022824  0
H  H72  1  0.61148051  0.62149380  0.79761661  1  0.00812  0  0.083907  0.116758  0  1.018514  0
H  H73  1  0.98993856  0.37847364  0.70232341  1  0.022212  0  0.083818  0.116418  0  1.018646  0
H  H74  1  0.38852058  0.37850573  0.20238417  1  0.008098  0  0.083909  0.116762  0  1.018544  0
H  H75  1  0.01006063  0.62152770  0.29767709  1  0.022202  0  0.083808  0.116387  0  1.018594  0
H  H76  1  0.53000942  0.55847884  0.86982004  1  0.016309  0  0.0839  0.113782  0  1.023243  0
H  H77  1  0.97151704  0.44156116  0.63014446  1  0.004655  0  0.083812  0.113655  0  1.022846  0
H  H78  1  0.46999028  0.44151978  0.13018115  1  0.016247  0  0.08391  0.113817  0  1.023273  0
H  H79  1  0.02848263  0.55843928  0.36985591  1  0.004653  0  0.083805  0.113647  0  1.022858  0
H  H80  1  0.48302610  0.66138995  0.83794984  1  0.022278  0  0.08642  0.125413  0  1.007019  0
H  H81  1  0.82158829  0.33864984  0.66204899  1  0.036088  0  0.086295  0.124922  0  1.007374  0
H  H82  1  0.51697312  0.33860958  0.16205094  1  0.022276  0  0.086438  0.125472  0  1.007031  0
H  H83  1  0.17841232  0.66135059  0.33795139  1  0.036079  0  0.086296  0.124934  0  1.007359  0
H  H84  1  0.22665702  0.50776263  0.81797214  1  0.031111  0  0.0858  0.125388  0  1.028125  0
H  H85  1  0.71890738  0.49215801  0.68203490  1  0.043655  0  0.085883  0.125489  0  1.027727  0
H  H86  1  0.77334172  0.49223780  0.18202824  1  0.03113  0  0.085791  0.125373  0  1.028119  0
H  H87  1  0.28109275  0.50784333  0.31796507  1  0.043639  0  0.085882  0.125475  0  1.027734  0
H  H88  1  0.27352662  0.40678165  0.85236841  1  -0.026762  0  0.081517  0.105952  0  1.029537  0
H  H89  1  0.86683745  0.59316709  0.64766545  1  0.014478  0  0.081644  0.105982  0  1.029167  0
H  H90  1  0.72647167  0.59321787  0.14763185  1  -0.026756  0  0.081529  0.105995  0  1.029495  0
H  H91  1  0.13316129  0.40683334  0.35233492  1  0.014468  0  0.08162  0.105941  0  1.029196  0
H  H92  1  0.17851254  0.35861178  0.76657361  1  0.012742  0  0.08365  0.113195  0  1.021517  0
H  H93  1  0.81994443  0.64135111  0.73343818  1  0.013743  0  0.083604  0.112985  0  1.021366  0
H  H94  1  0.82148623  0.64138685  0.23342653  1  0.012754  0  0.083681  0.113246  0  1.021474  0
H  H95  1  0.18005385  0.35864842  0.26656156  1  0.013741  0  0.083604  0.11299  0  1.021363  0
C  C96  1  0.92854277  0.21487674  0.86803508  1  -0.046664  0  -0.226443  -0.475064  0  3.937609  0
C  C97  1  0.71376855  0.78510123  0.63207439  1  -0.056301  0  -0.226202  -0.474844  0  3.93712  0
C  C98  1  0.07145690  0.78512369  0.13196425  1  -0.046437  0  -0.226413  -0.475042  0  3.937628  0
C  C99  1  0.28623302  0.21489739  0.36792367  1  -0.056317  0  -0.226222  -0.47484  0  3.937258  0
C  C100  1  0.90168052  0.09940209  0.88859986  1  0.996697  0  0.237049  0.381452  0  3.943981  0
C  C101  1  0.80240380  0.90059549  0.61152194  1  1.006899  0  0.237302  0.382404  0  3.941128  0
C  C102  1  0.09831824  0.90059653  0.11139871  1  0.996355  0  0.23708  0.381533  0  3.94382  0
C  C103  1  0.19759732  0.09940222  0.38847548  1  1.007272  0  0.237347  0.382419  0  3.941132  0
C  C104  1  0.93424888  0.94282867  0.90766722  1  0.367163  0  0.090292  0.085504  0  4.027859  0
C  C105  1  0.99159523  0.05716061  0.59235520  1  0.329178  0  0.091029  0.086374  0  4.027195  0
C  C106  1  0.06574989  0.05716995  0.09233031  1  0.367042  0  0.09034  0.085562  0  4.027747  0
C  C107  1  0.00840492  0.94283892  0.40764402  1  0.329198  0  0.091037  0.086378  0  4.027388  0
C  C108  1  0.80585331  0.93559408  0.93128411  1  0.339121  0  0.083592  0.147364  0  4.090261  0
C  C109  1  0.87039770  0.06440167  0.56881907  1  0.314448  0  0.08377  0.147384  0  4.09166  0
C  C110  1  0.19414452  0.06440454  0.06871394  1  0.338451  0  0.083591  0.147374  0  4.090299  0
C  C111  1  0.12960384  0.93559876  0.43117974  1  0.31458  0  0.083843  0.147455  0  4.091544  0
C  C112  1  0.98265976  0.85829640  0.91569497  1  -0.028965  0  -0.098937  -0.164737  0  4.017158  0
C  C113  1  0.12453214  0.14169150  0.58426211  1  0.001055  0  -0.09989  -0.165821  0  4.016896  0
C  C114  1  0.01733807  0.14170222  0.08430309  1  -0.028864  0  -0.098956  -0.164723  0  4.017152  0
C  C115  1  0.87546707  0.85830802  0.41573658  1  0.001002  0  -0.099869  -0.165842  0  4.016898  0
C  C116  1  0.89816528  0.76535548  0.94816800  1  -0.031746  0  -0.10015  -0.096738  0  4.035013  0
C  C117  1  0.13300183  0.23463950  0.55181800  1  -0.056089  0  -0.100332  -0.096437  0  4.035584  0
C  C118  1  0.10183393  0.23464404  0.05183122  1  -0.031759  0  -0.100167  -0.096745  0  4.03503  0
C  C119  1  0.86699738  0.76536002  0.44818121  1  -0.056109  0  -0.100324  -0.096342  0  4.035629  0
C  C120  1  0.77000159  0.75730316  0.97155178  1  -0.066655  0  -0.099011  -0.092906  0  4.041873  0
C  C121  1  0.01290002  0.24266491  0.52847355  1  -0.039491  0  -0.098641  -0.092715  0  4.042184  0
C  C122  1  0.22999902  0.24269727  0.02844860  1  -0.066626  0  -0.099025  -0.092947  0  4.041878  0
C  C123  1  0.98709916  0.75733642  0.47152642  1  -0.039487  0  -0.098671  -0.092761  0  4.042307  0
C  C124  1  0.72180608  0.84202110  0.96375103  1  -0.005668  0  -0.091241  -0.151887  0  3.955673  0
C  C125  1  0.87998759  0.15795469  0.53634043  1  -0.013478  0  -0.091857  -0.152418  0  3.954964  0
C  C126  1  0.27819223  0.15797661  0.03624638  1  -0.005522  0  -0.091157  -0.151797  0  3.955581  0
C  C127  1  0.12001159  0.84204665  0.46366058  1  -0.013468  0  -0.0919  -0.152539  0  3.955032  0
C  C128  1  0.12442737  0.09262825  0.84930709  1  0.306226  0  -0.049121  -0.047447  0  3.883693  0
C  C129  1  0.03203754  0.90740696  0.65064641  1  0.311982  0  -0.049137  -0.046552  0  3.882881  0
C  C130  1  0.87557181  0.90737309  0.15069236  1  0.306217  0  -0.049091  -0.047442  0  3.883776  0
C  C131  1  0.96796259  0.09259438  0.34935461  1  0.311992  0  -0.049128  -0.046533  0  3.882903  0
C  C132  1  0.10821439  0.06725158  0.76755937  1  -0.034296  0  -0.165421  -0.169388  0  3.928066  0
C  C133  1  0.04114980  0.93270607  0.73239549  1  -0.009431  0  -0.165681  -0.17038  0  3.930232  0
C  C134  1  0.89178480  0.93274976  0.23244008  1  -0.034278  0  -0.16543  -0.16937  0  3.928102  0
C  C135  1  0.95884984  0.06729617  0.26760564  1  -0.00921  0  -0.165638  -0.170293  0  3.930116  0
C  C136  1  0.52925485  0.17304107  0.83802081  1  1.506271  0  0.186941  0.551366  0  4.232281  0
C  C137  1  0.35631089  0.82701655  0.66195738  1  1.537997  0  0.18597  0.551312  0  4.233164  0
C  C138  1  0.47074437  0.82695846  0.16197997  1  1.506329  0  0.186909  0.55132  0  4.232357  0
C  C139  1  0.64369255  0.17298207  0.33804329  1  1.537963  0  0.186075  0.551536  0  4.232732  0
C  C140  1  0.49865572  0.22623597  0.78074827  1  -0.020269  0  -0.017555  -0.024523  0  3.999695  0
C  C141  1  0.27249401  0.77380054  0.71923843  1  -0.04861  0  -0.017511  -0.025746  0  4.001904  0
C  C142  1  0.50134395  0.77376447  0.21925315  1  -0.020223  0  -0.017568  -0.024564  0  3.999757  0
C  C143  1  0.72750801  0.22619899  0.28076235  1  -0.048594  0  -0.017494  -0.025688  0  4.001791  0
C  C144  1  0.46063341  0.32126492  0.79874762  1  -0.059225  0  -0.07498  -0.131503  0  3.917727  0
C  C145  1  0.13940131  0.67874947  0.70125931  1  -0.09239  0  -0.074851  -0.131651  0  3.920468  0
C  C146  1  0.53936719  0.67873551  0.20125223  1  -0.059408  0  -0.074956  -0.131502  0  3.917791  0
C  C147  1  0.86060162  0.32125187  0.29874327  1  -0.092398  0  -0.074858  -0.131717  0  3.920433  0
C  C148  1  0.43882910  0.37763837  0.74662864  1  -0.009247  0  -0.000546  0.061462  0  3.882959  0
C  C149  1  0.06119507  0.62236987  0.75338170  1  0.051196  0  -0.001029  0.060875  0  3.884891  0
C  C150  1  0.56117105  0.62236115  0.25337110  1  -0.009144  0  -0.000563  0.061458  0  3.882997  0
C  C151  1  0.93880463  0.37762875  0.24661949  1  0.051155  0  -0.000994  0.060967  0  3.884856  0
C  C152  1  0.45512217  0.33441915  0.67590986  1  -0.056558  0  -0.079756  -0.141402  0  3.949317  0
C  C153  1  0.12070277  0.66568964  0.82410474  1  -0.041378  0  -0.079686  -0.141602  0  3.948226  0
C  C154  1  0.54487517  0.66558038  0.32409145  1  -0.056579  0  -0.079755  -0.14144  0  3.949379  0
C  C155  1  0.87929545  0.33431350  0.17589599  1  -0.041357  0  -0.079698  -0.141535  0  3.948218  0
C  C156  1  0.49102389  0.23765054  0.65675947  1  -0.03849  0  -0.023554  -0.048975  0  4.024737  0
C  C157  1  0.25344233  0.76246475  0.84322675  1  -0.023344  0  -0.023497  -0.047942  0  4.022945  0
C  C158  1  0.50897533  0.76234899  0.34324079  1  -0.038463  0  -0.023591  -0.048889  0  4.024698  0
C  C159  1  0.74655686  0.23753659  0.15677427  1  -0.023503  0  -0.023498  -0.047988  0  4.02285  0
C  C160  1  0.51366363  0.18342280  0.70943058  1  -0.05414  0  -0.07961  -0.116858  0  3.93077  0
C  C161  1  0.33035590  0.81662984  0.79053661  1  -0.095314  0  -0.079298  -0.11618  0  3.931264  0
C  C162  1  0.48633653  0.81657673  0.29056968  1  -0.054166  0  -0.079592  -0.116851  0  3.930686  0
C  C163  1  0.66964519  0.18336968  0.20946417  1  -0.095107  0  -0.07928  -0.116196  0  3.93121  0
C  C164  1  0.50098014  0.19506714  0.57935449  1  1.521015  0  0.201406  0.578905  0  4.188532  0
C  C165  1  0.30598224  0.80495750  0.92063872  1  1.524676  0  0.201314  0.579312  0  4.187868  0
C  C166  1  0.49901911  0.80493058  0.42064658  1  1.520925  0  0.20142  0.578884  0  4.188557  0
C  C167  1  0.69401740  0.19504474  0.07936188  1  1.525127  0  0.201313  0.579329  0  4.187583  0
C  C168  1  0.39779731  0.48167841  0.76776608  1  0.080958  0  -0.012214  0.237511  0  3.8074  0
C  C169  1  0.91616426  0.51828817  0.73225105  1  0.057222  0  -0.012408  0.237657  0  3.808446  0
C  C170  1  0.60220097  0.51832111  0.23223523  1  0.080906  0  -0.012239  0.237518  0  3.807502  0
C  C171  1  0.08383496  0.48171136  0.26774973  1  0.057259  0  -0.012407  0.237585  0  3.808526  0
C  C172  1  0.37650232  0.52860428  0.70272381  1  -0.0749  0  -0.246551  -0.414218  0  3.889202  0
C  C173  1  0.84794197  0.47130563  0.79728863  1  -0.05096  0  -0.246544  -0.414503  0  3.889982  0
C  C174  1  0.62349829  0.47139615  0.29727657  1  -0.074939  0  -0.246579  -0.414315  0  3.889149  0
C  C175  1  0.15205771  0.52869481  0.20271226  1  -0.051287  0  -0.246535  -0.414433  0  3.890048  0
C  C176  1  0.51222433  0.58659510  0.82142186  1  -0.034586  0  -0.242586  -0.411057  0  3.892975  0
C  C177  1  0.92562782  0.41341698  0.67854710  1  -0.050556  0  -0.242063  -0.409746  0  3.892628  0
C  C178  1  0.48777582  0.41340443  0.17857945  1  -0.034487  0  -0.242607  -0.411167  0  3.893174  0
C  C179  1  0.07437278  0.58658345  0.32145275  1  -0.05055  0  -0.242057  -0.409727  0  3.89258  0
C  C180  1  0.26074550  0.43576392  0.80334240  1  -0.022968  0  -0.242845  -0.410387  0  3.886477  0
C  C181  1  0.82501616  0.56417858  0.69668829  1  -0.079685  0  -0.242951  -0.410319  0  3.885369  0
C  C182  1  0.73925417  0.56423651  0.19665797  1  -0.02297  0  -0.242865  -0.410444  0  3.886393  0
C  C183  1  0.17498400  0.43582095  0.30331197  1  -0.079666  0  -0.242934  -0.410258  0  3.885387  0
N  N184  1  0.99189384  0.04721172  0.88064976  1  -1.201446  0  -0.238388  -0.078925  0  3.666945  0
N  N185  1  0.94483988  0.95277319  0.61937413  1  -1.226954  0  -0.238875  -0.079464  0  3.666485  0
N  N186  1  0.00810260  0.95278599  0.11934765  1  -1.201431  0  -0.238407  -0.078987  0  3.666813  0
N  N187  1  0.05516076  0.04722543  0.38062497  1  -1.22708  0  -0.238923  -0.079459  0  3.666614  0
N  N188  1  0.78911997  0.03403520  0.91817623  1  -1.212937  0  -0.359672  -0.419309  0  3.433623  0
N  N189  1  0.75521579  0.96598028  0.58198132  1  -1.19744  0  -0.359268  -0.420089  0  3.436416  0
N  N190  1  0.21087741  0.96596251  0.08182171  1  -1.21244  0  -0.359739  -0.41939  0  3.43357  0
N  N191  1  0.24478578  0.03401834  0.41801673  1  -1.197868  0  -0.359305  -0.420087  0  3.436395  0
O  O192  1  0.48318430  0.24915700  0.53396686  1  -1.157869  0  -0.323856  -0.540721  0  2.134091  0
O  O193  1  0.23417693  0.75065446  0.96598275  1  -1.154644  0  -0.323988  -0.541096  0  2.134416  0
O  O194  1  0.51681588  0.75084071  0.46603421  1  -1.157733  0  -0.32391  -0.540756  0  2.134059  0
O  O195  1  0.76582416  0.24934506  0.03401750  1  -1.154644  0  -0.323986  -0.541076  0  2.134363  0
O  O196  1  0.52442667  0.10054237  0.55926769  1  -1.182697  0  -0.348801  -0.598544  0  2.365957  0
O  O197  1  0.42393345  0.89952145  0.94076962  1  -1.190198  0  -0.348567  -0.59907  0  2.366965  0
O  O198  1  0.47557351  0.89945535  0.44073233  1  -1.182755  0  -0.348735  -0.598491  0  2.365993  0
O  O199  1  0.57606623  0.10047898  0.05923127  1  -1.190559  0  -0.348599  -0.599139  0  2.366922  0
O  O200  1  0.60033208  0.11266125  0.82256311  1  -1.127145  0  -0.331796  -0.545538  0  2.200698  0
O  O201  1  0.48780422  0.88734560  0.67740002  1  -1.135292  0  -0.331087  -0.545133  0  2.201043  0
O  O202  1  0.39966714  0.88733827  0.17743715  1  -1.127155  0  -0.331786  -0.545522  0  2.200733  0
O  O203  1  0.51219920  0.11265484  0.32260192  1  -1.135322  0  -0.331179  -0.545337  0  2.200925  0
O  O204  1  0.48698374  0.19027485  0.89969533  1  -1.161211  0  -0.339296  -0.56986  0  2.139376  0
O  O205  1  0.29682043  0.80984248  0.60029849  1  -1.163587  0  -0.339322  -0.570168  0  2.140246  0
O  O206  1  0.51301829  0.80972468  0.10030545  1  -1.161226  0  -0.339277  -0.569832  0  2.139385  0
O  O207  1  0.70318259  0.19015343  0.39970131  1  -1.163661  0  -0.339351  -0.570244  0  2.140083  0
