# generated using pymatgen
data_CdH28C38(N3Cl)2
_symmetry_space_group_name_H-M   'P 1'
_cell_length_a   11.99086445
_cell_length_b   13.04203807
_cell_length_c   12.87614369
_cell_angle_alpha   105.76942092
_cell_angle_beta   90.00715031
_cell_angle_gamma   117.41171316
_symmetry_Int_Tables_number   1
_chemical_formula_structural   CdH28C38(N3Cl)2
_chemical_formula_sum   'Cd2 H56 C76 N12 Cl4'
_cell_volume   1701.68727235
_cell_formula_units_Z   2
loop_
 _symmetry_equiv_pos_site_id
 _symmetry_equiv_pos_as_xyz
  1  'x, y, z'
loop_
 _atom_site_type_symbol
 _atom_site_label
 _atom_site_symmetry_multiplicity
 _atom_site_fract_x
 _atom_site_fract_y
 _atom_site_fract_z
 _atom_site_occupancy
 _atom_site_hle17_bader_spin_density
 _atom_site_hle17_ddec_charge
 _atom_site_hle17_ddec_spin_density
 _atom_site_hle17_ddec_sum_bond_order
 _atom_site_hle17_magmom
 _atom_site_hse06_10hf_bader_spin_density
 _atom_site_hse06_10hf_ddec_charge
 _atom_site_hse06_10hf_ddec_spin_density
 _atom_site_hse06_10hf_ddec_sum_bond_order
 _atom_site_hse06_10hf_magmom
 _atom_site_hse06_bader_spin_density
 _atom_site_hse06_ddec_charge
 _atom_site_hse06_ddec_spin_density
 _atom_site_hse06_ddec_sum_bond_order
 _atom_site_hse06_magmom
 _atom_site_pbe_bader_spin_density
 _atom_site_pbe_cm5_charge
 _atom_site_pbe_ddec_charge
 _atom_site_pbe_ddec_spin_density
 _atom_site_pbe_ddec_sum_bond_order
 _atom_site_pbe_magmom
Cd  Cd0  1  0.25161294  0.50003167  0.25009152  1  0  0.954745  0  1.984816  0  0  0.765755  0  2.466024  0  0  0.814067  0  2.422629  0  0  0.639502  0.732148  0  2.495215  0
Cd  Cd1  1  0.74838753  0.49996953  0.74990775  1  0  0.954754  0  1.98484  0  0  0.765726  0  2.466096  0  0  0.814046  0  2.422686  0  0  0.639485  0.732122  0  2.495293  0
H  H2  1  0.23926113  0.03017058  0.16442977  1  0  0.081373  0  0.954589  0  0  0.096804  0  1.021456  0  0  0.097068  0  1.022499  0  0  0.112402  0.096594  0  1.020757  0
H  H3  1  0.70913741  0.97027020  0.33573278  1  0  0.082272  0  0.954715  0  0  0.097204  0  1.021499  0  0  0.09745  0  1.022515  0  0  0.112455  0.097013  0  1.020786  0
H  H4  1  0.76074227  0.96982980  0.83557626  1  0  0.081383  0  0.95463  0  0  0.096839  0  1.021473  0  0  0.097103  0  1.022513  0  0  0.112415  0.096628  0  1.020779  0
H  H5  1  0.29086638  0.02973097  0.66426415  1  0  0.08221  0  0.954711  0  0  0.097168  0  1.021475  0  0  0.0974  0  1.022505  0  0  0.112425  0.096983  0  1.020757  0
H  H6  1  0.10792757  0.95263287  0.22444780  1  0  0.092826  0  0.901338  0  0  0.11174  0  0.956535  0  0  0.112897  0  0.955726  0  0  0.120553  0.110843  0  0.957206  0
H  H7  1  0.65521782  0.04758371  0.27560748  1  0  0.093284  0  0.901413  0  0  0.111571  0  0.956714  0  0  0.112676  0  0.955946  0  0  0.120524  0.110732  0  0.957341  0
H  H8  1  0.89207241  0.04736567  0.77555541  1  0  0.092815  0  0.90126  0  0  0.11175  0  0.956465  0  0  0.112905  0  0.955655  0  0  0.120535  0.110854  0  0.95713  0
H  H9  1  0.34478893  0.95241836  0.72438891  1  0  0.093261  0  0.901388  0  0  0.111589  0  0.956657  0  0  0.112691  0  0.955888  0  0  0.120514  0.110747  0  0.957287  0
H  H10  1  0.32365251  0.81137818  0.40153261  1  0  0.096083  0  1.004535  0  0  0.104057  0  1.072656  0  0  0.106881  0  1.07108  0  0  0.088576  0.101916  0  1.074007  0
H  H11  1  0.01225444  0.18872219  0.09794429  1  0  0.09563  0  1.004796  0  0  0.103645  0  1.072996  0  0  0.106472  0  1.071403  0  0  0.088113  0.10149  0  1.074402  0
H  H12  1  0.67634782  0.18861939  0.59846568  1  0  0.096096  0  1.004504  0  0  0.104051  0  1.072646  0  0  0.106873  0  1.071074  0  0  0.088591  0.101911  0  1.073994  0
H  H13  1  0.98774892  0.81127813  0.90205629  1  0  0.095662  0  1.004756  0  0  0.103671  0  1.072958  0  0  0.106501  0  1.07136  0  0  0.088113  0.101511  0  1.074374  0
H  H14  1  0.42773043  0.16547970  0.20254448  1  0  0.10089  0  0.990459  0  0  0.11029  0  1.054043  0  0  0.113318  0  1.053219  0  0  0.10481  0.108143  0  1.054704  0
H  H15  1  0.76238261  0.83501028  0.29794152  1  0  0.100509  0  0.990515  0  0  0.110373  0  1.053562  0  0  0.113464  0  1.052729  0  0  0.104571  0.108224  0  1.054147  0
H  H16  1  0.57226755  0.83452152  0.79745634  1  0  0.100912  0  0.990434  0  0  0.110293  0  1.054045  0  0  0.113316  0  1.053237  0  0  0.104804  0.108145  0  1.05471  0
H  H17  1  0.23762080  0.16499179  0.70205487  1  0  0.100462  0  0.990601  0  0  0.110375  0  1.053595  0  0  0.113467  0  1.05276  0  0  0.104589  0.108225  0  1.054182  0
H  H18  1  0.18255376  0.82937447  0.28083543  1  0  0.096385  0  0.93978  0  0  0.111693  0  0.991193  0  0  0.114135  0  0.990892  0  0  0.104448  0.109924  0  0.991516  0
H  H19  1  0.85360814  0.17102109  0.21900809  1  0  0.096213  0  0.93892  0  0  0.111654  0  0.990289  0  0  0.114042  0  0.99006  0  0  0.10422  0.109893  0  0.990595  0
H  H20  1  0.81744664  0.17062493  0.71916490  1  0  0.096379  0  0.939804  0  0  0.111718  0  0.991186  0  0  0.114162  0  0.990884  0  0  0.104452  0.109943  0  0.991507  0
H  H21  1  0.14639553  0.82897649  0.78099099  1  0  0.096203  0  0.938844  0  0  0.111636  0  0.990222  0  0  0.114026  0  0.989993  0  0  0.104215  0.109867  0  0.990536  0
H  H22  1  0.87935072  0.23886140  0.52022839  1  0  0.100562  0  0.992027  0  0  0.10834  0  1.057153  0  0  0.110955  0  1.056567  0  0  0.088387  0.106442  0  1.057614  0
H  H23  1  0.14065249  0.76108003  0.97909560  1  0  0.1001  0  0.99205  0  0  0.107814  0  1.057332  0  0  0.110498  0  1.056691  0  0  0.088139  0.105853  0  1.057884  0
H  H24  1  0.12065009  0.76113715  0.47977638  1  0  0.10045  0  0.991917  0  0  0.108231  0  1.057074  0  0  0.110849  0  1.056483  0  0  0.088307  0.106333  0  1.057537  0
H  H25  1  0.85934771  0.23892395  0.02090906  1  0  0.100127  0  0.99197  0  0  0.107795  0  1.057311  0  0  0.110492  0  1.056655  0  0  0.08811  0.105834  0  1.057868  0
H  H26  1  0.03918950  0.38745107  0.43957049  1  0  0.123662  0  0.965802  0  0  0.130711  0  1.028788  0  0  0.134214  0  1.02654  0  0  0.097818  0.128068  0  1.030645  0
H  H27  1  0.15138791  0.61253152  0.05991453  1  0  0.12325  0  0.96594  0  0  0.130104  0  1.029088  0  0  0.13354  0  1.02691  0  0  0.097715  0.127593  0  1.030756  0
H  H28  1  0.96080531  0.61254382  0.56043020  1  0  0.123539  0  0.965827  0  0  0.130584  0  1.028833  0  0  0.134085  0  1.026584  0  0  0.097766  0.127942  0  1.030688  0
H  H29  1  0.84861033  0.38747521  0.94009398  1  0  0.123314  0  0.965902  0  0  0.130097  0  1.029127  0  0  0.133534  0  1.026947  0  0  0.097692  0.127582  0  1.030801  0
H  H30  1  0.55968898  0.20275752  0.50640297  1  0  0.097878  0  0.992186  0  0  0.105139  0  1.060285  0  0  0.108222  0  1.058409  0  0  0.090137  0.102844  0  1.061835  0
H  H31  1  0.85657816  0.79739821  0.99387783  1  0  0.097981  0  0.992045  0  0  0.10498  0  1.060342  0  0  0.108041  0  1.058527  0  0  0.090185  0.102727  0  1.061803  0
H  H32  1  0.44031296  0.79723828  0.49359874  1  0  0.097954  0  0.99216  0  0  0.105197  0  1.06028  0  0  0.108279  0  1.058405  0  0  0.090164  0.102912  0  1.061793  0
H  H33  1  0.14342601  0.20260205  0.00611808  1  0  0.098049  0  0.992049  0  0  0.105042  0  1.06033  0  0  0.108103  0  1.058515  0  0  0.090228  0.102783  0  1.061794  0
H  H34  1  0.60476290  0.25535790  0.10040685  1  0  0.094463  0  0.958001  0  0  0.10704  0  1.013661  0  0  0.109138  0  1.013563  0  0  0.107228  0.105547  0  1.013717  0
H  H35  1  0.84934495  0.74480473  0.39975765  1  0  0.094588  0  0.958092  0  0  0.106913  0  1.013981  0  0  0.108958  0  1.01393  0  0  0.107011  0.105392  0  1.014046  0
H  H36  1  0.39523211  0.74464238  0.89959139  1  0  0.094429  0  0.958148  0  0  0.10705  0  1.013762  0  0  0.109149  0  1.013663  0  0  0.107257  0.105558  0  1.013815  0
H  H37  1  0.15065922  0.25519553  0.60023826  1  0  0.094623  0  0.95814  0  0  0.106938  0  1.014023  0  0  0.108988  0  1.013967  0  0  0.10704  0.105419  0  1.014085  0
H  H38  1  0.47419415  0.50956165  0.08572688  1  0  0.068714  0  0.951811  0  0  0.075116  0  1.022516  0  0  0.077209  0  1.021056  0  0  0.110732  0.073571  0  1.023628  0
H  H39  1  0.46418486  0.49099194  0.41479286  1  0  0.068693  0  0.952768  0  0  0.075094  0  1.02366  0  0  0.077217  0  1.022182  0  0  0.110738  0.07356  0  1.024711  0
H  H40  1  0.52579443  0.49043411  0.91427171  1  0  0.068653  0  0.951931  0  0  0.075128  0  1.022492  0  0  0.07723  0  1.02103  0  0  0.110741  0.073566  0  1.02365  0
H  H41  1  0.53581781  0.50901198  0.58520713  1  0  0.068756  0  0.952573  0  0  0.075099  0  1.023535  0  0  0.077218  0  1.022068  0  0  0.11076  0.073556  0  1.024591  0
H  H42  1  0.85996639  0.03476710  0.49049394  1  0  0.08124  0  0.975642  0  0  0.089501  0  1.043515  0  0  0.09157  0  1.043932  0  0  0.092532  0.087881  0  1.043528  0
H  H43  1  0.32563614  0.96529052  0.00918386  1  0  0.079983  0  0.976723  0  0  0.08858  0  1.044293  0  0  0.090681  0  1.044682  0  0  0.092417  0.087055  0  1.044069  0
H  H44  1  0.14003527  0.96523148  0.50951239  1  0  0.081255  0  0.975732  0  0  0.089541  0  1.043566  0  0  0.091605  0  1.043987  0  0  0.092561  0.087924  0  1.043568  0
H  H45  1  0.67436711  0.03470791  0.99081001  1  0  0.080049  0  0.976626  0  0  0.088614  0  1.044223  0  0  0.090716  0  1.044614  0  0  0.09243  0.087079  0  1.044031  0
H  H46  1  0.00028491  0.97157214  0.37754798  1  0  0.101177  0  0.962226  0  0  0.113173  0  1.022572  0  0  0.115972  0  1.021469  0  0  0.102478  0.111166  0  1.023392  0
H  H47  1  0.52899199  0.02853524  0.12260173  1  0  0.100764  0  0.962837  0  0  0.112726  0  1.023072  0  0  0.11554  0  1.021948  0  0  0.102231  0.110693  0  1.023992  0
H  H48  1  0.99971886  0.02842732  0.62245625  1  0  0.101179  0  0.962356  0  0  0.113197  0  1.022664  0  0  0.115999  0  1.021553  0  0  0.102497  0.111193  0  1.02348  0
H  H49  1  0.47101134  0.97146499  0.87739184  1  0  0.100718  0  0.962884  0  0  0.112671  0  1.023131  0  0  0.115487  0  1.022005  0  0  0.102195  0.110635  0  1.024051  0
H  H50  1  0.63216349  0.43239443  0.04080901  1  0  0.115008  0  0.946851  0  0  0.123187  0  1.00761  0  0  0.126617  0  1.006152  0  0  0.110817  0.12067  0  1.008845  0
H  H51  1  0.69943907  0.56758088  0.45903501  1  0  0.114213  0  0.947902  0  0  0.122701  0  1.00835  0  0  0.126051  0  1.007  0  0  0.110871  0.120225  0  1.009552  0
H  H52  1  0.36782423  0.56760129  0.95918569  1  0  0.115003  0  0.946915  0  0  0.123176  0  1.007677  0  0  0.126598  0  1.006231  0  0  0.110834  0.120659  0  1.008911  0
H  H53  1  0.30056443  0.43242303  0.54096420  1  0  0.114222  0  0.9479  0  0  0.122679  0  1.008393  0  0  0.12603  0  1.007043  0  0  0.110861  0.120221  0  1.009572  0
H  H54  1  0.41275301  0.21865754  0.39044804  1  0  0.083323  0  0.967714  0  0  0.094571  0  1.029646  0  0  0.096642  0  1.029787  0  0  0.094145  0.093055  0  1.029667  0
H  H55  1  0.69378821  0.78172610  0.10978485  1  0  0.083432  0  0.967749  0  0  0.094384  0  1.029992  0  0  0.096451  0  1.03019  0  0  0.094237  0.092906  0  1.029917  0
H  H56  1  0.58725038  0.78134282  0.60955566  1  0  0.083396  0  0.967653  0  0  0.094578  0  1.02965  0  0  0.09665  0  1.029789  0  0  0.09414  0.093062  0  1.029667  0
H  H57  1  0.30621376  0.21827142  0.89020955  1  0  0.083451  0  0.96768  0  0  0.094361  0  1.029986  0  0  0.096429  0  1.030182  0  0  0.094226  0.092882  0  1.029907  0
C  C58  1  0.45579338  0.00536295  0.46413808  1  0  0.045287  0  3.759912  0  0  0.059255  0  3.994471  0  0  0.059326  0  4.018171  0  0  -0.013842  0.059225  0  3.978263  0
C  C59  1  0.95042450  0.99475604  0.03587136  1  0  0.044511  0  3.761413  0  0  0.059002  0  3.99499  0  0  0.059099  0  4.018639  0  0  -0.014391  0.058959  0  3.978814  0
C  C60  1  0.54420659  0.99463558  0.53586435  1  0  0.045267  0  3.760159  0  0  0.05922  0  3.994708  0  0  0.059291  0  4.018408  0  0  -0.013877  0.059183  0  3.978506  0
C  C61  1  0.04957756  0.00524333  0.96412586  1  0  0.044627  0  3.761212  0  0  0.05895  0  3.99493  0  0  0.059026  0  4.018597  0  0  -0.014427  0.058921  0  3.978737  0
C  C62  1  0.20290307  0.03219891  0.24282375  1  0  -0.026472  0  3.664201  0  0  -0.09723  0  3.918133  0  0  -0.092277  0  3.927883  0  0  -0.044075  -0.100486  0  3.911454  0
C  C63  1  0.67072897  0.96813771  0.25730504  1  0  -0.028975  0  3.664015  0  0  -0.097628  0  3.916452  0  0  -0.092581  0  3.926115  0  0  -0.04374  -0.100916  0  3.909769  0
C  C64  1  0.79709607  0.96779963  0.75718024  1  0  -0.026365  0  3.664048  0  0  -0.097253  0  3.918065  0  0  -0.092294  0  3.927799  0  0  -0.044049  -0.100506  0  3.911381  0
C  C65  1  0.32927483  0.03186347  0.74269266  1  0  -0.028785  0  3.663886  0  0  -0.097524  0  3.916384  0  0  -0.092461  0  3.926036  0  0  -0.043677  -0.100822  0  3.909706  0
C  C66  1  0.34701282  0.90203379  0.39929746  1  0  -0.099761  0  3.70989  0  0  -0.120796  0  3.959835  0  0  -0.122942  0  3.980626  0  0  -0.092494  -0.119161  0  3.945626  0
C  C67  1  0.94501862  0.09811123  0.10045036  1  0  -0.099751  0  3.711151  0  0  -0.121033  0  3.960693  0  0  -0.123199  0  3.981508  0  0  -0.092448  -0.119431  0  3.946563  0
C  C68  1  0.65298358  0.09795926  0.60070119  1  0  -0.099743  0  3.710055  0  0  -0.120748  0  3.960002  0  0  -0.122896  0  3.980796  0  0  -0.092512  -0.119111  0  3.945779  0
C  C69  1  0.05498729  0.90189084  0.89954603  1  0  -0.099888  0  3.711232  0  0  -0.121125  0  3.96082  0  0  -0.123287  0  3.981638  0  0  -0.092486  -0.119526  0  3.94669  0
C  C70  1  0.35393278  0.28814550  0.19447670  1  0  0.153695  0  3.782515  0  0  0.154268  0  4.029141  0  0  0.158539  0  4.048281  0  0  0.122886  0.151231  0  4.016159  0
C  C71  1  0.56566426  0.71211113  0.30567470  1  0  0.152772  0  3.782822  0  0  0.153106  0  4.029553  0  0  0.157479  0  4.048535  0  0  0.12229  0.149967  0  4.016791  0
C  C72  1  0.64606384  0.71185300  0.80552340  1  0  0.15364  0  3.782525  0  0  0.154199  0  4.029208  0  0  0.15847  0  4.048341  0  0  0.122874  0.151175  0  4.016215  0
C  C73  1  0.43433703  0.28789005  0.69432222  1  0  0.152763  0  3.782781  0  0  0.153195  0  4.029474  0  0  0.157564  0  4.048461  0  0  0.122343  0.150056  0  4.016708  0
C  C74  1  0.43719335  0.23915350  0.17285292  1  0  -0.143395  0  3.694345  0  0  -0.162654  0  3.938419  0  0  -0.16703  0  3.956883  0  0  -0.082635  -0.159821  0  3.926072  0
C  C75  1  0.69801981  0.76114368  0.32737264  1  0  -0.142291  0  3.693413  0  0  -0.161851  0  3.937064  0  0  -0.166335  0  3.955411  0  0  -0.081838  -0.158959  0  3.924755  0
C  C76  1  0.56280245  0.76084501  0.82714873  1  0  -0.143399  0  3.694387  0  0  -0.162649  0  3.93851  0  0  -0.167023  0  3.956969  0  0  -0.082619  -0.159811  0  3.926154  0
C  C77  1  0.30198527  0.23885839  0.67262375  1  0  -0.142278  0  3.693646  0  0  -0.161917  0  3.937289  0  0  -0.1664  0  3.955636  0  0  -0.08191  -0.159029  0  3.924987  0
C  C78  1  0.24927538  0.24947024  0.25907735  1  0  0.26201  0  3.715079  0  0  0.222771  0  3.991709  0  0  0.239364  0  4.003722  0  0  0.22768  0.212049  0  3.983022  0
C  C79  1  0.49966735  0.75072599  0.24102603  1  0  0.262106  0  3.715471  0  0  0.223621  0  3.991786  0  0  0.240239  0  4.003765  0  0  0.227686  0.212906  0  3.983152  0
C  C80  1  0.75071821  0.75052554  0.74092202  1  0  0.262303  0  3.714756  0  0  0.222914  0  3.991495  0  0  0.239507  0  4.003502  0  0  0.227713  0.212176  0  3.982821  0
C  C81  1  0.50033571  0.24927705  0.75897527  1  0  0.262417  0  3.715078  0  0  0.223762  0  3.991565  0  0  0.240379  0  4.003545  0  0  0.227766  0.213052  0  3.982928  0
C  C82  1  0.28784174  0.02494873  0.32416535  1  0  0.045232  0  3.772121  0  0  0.064251  0  4.01756  0  0  0.063556  0  4.041529  0  0  -0.023211  0.064828  0  4.001197  0
C  C83  1  0.76298759  0.97544432  0.17595954  1  0  0.046196  0  3.772068  0  0  0.065334  0  4.016432  0  0  0.064682  0  4.040318  0  0  -0.023102  0.065831  0  4.000212  0
C  C84  1  0.71215703  0.97505074  0.67583967  1  0  0.045236  0  3.772052  0  0  0.064247  0  4.017528  0  0  0.063554  0  4.041495  0  0  -0.023161  0.06482  0  4.001171  0
C  C85  1  0.23701447  0.02455505  0.82403768  1  0  0.04599  0  3.772078  0  0  0.065112  0  4.016484  0  0  0.064458  0  4.040367  0  0  -0.023154  0.065617  0  4.00025  0
C  C86  1  0.26500467  0.91178382  0.33075644  1  0  -0.110929  0  3.758136  0  0  -0.128011  0  4.003815  0  0  -0.130794  0  4.025957  0  0  -0.091077  -0.126081  0  3.988714  0
C  C87  1  0.85341746  0.08852526  0.16914663  1  0  -0.110259  0  3.758072  0  0  -0.127506  0  4.003387  0  0  -0.130253  0  4.025529  0  0  -0.090731  -0.125635  0  3.9884  0
C  C88  1  0.73499408  0.08821560  0.66924545  1  0  -0.110972  0  3.758209  0  0  -0.128079  0  4.003897  0  0  -0.130864  0  4.026041  0  0  -0.091103  -0.126135  0  3.988788  0
C  C89  1  0.14658461  0.91147413  0.83085215  1  0  -0.110069  0  3.758037  0  0  -0.127296  0  4.00331  0  0  -0.130044  0  4.025454  0  0  -0.090675  -0.125422  0  3.988322  0
C  C90  1  0.10928471  0.26256954  0.36252814  1  0  0.151806  0  3.834821  0  0  0.150852  0  4.08198  0  0  0.153526  0  4.106272  0  0  0.092242  0.149034  0  4.065476  0
C  C91  1  0.34647503  0.73748215  0.13743925  1  0  0.152645  0  3.832905  0  0  0.151338  0  4.080729  0  0  0.154063  0  4.104943  0  0  0.09244  0.14943  0  4.064469  0
C  C92  1  0.89071046  0.73742438  0.63746763  1  0  0.151713  0  3.834832  0  0  0.150752  0  4.081997  0  0  0.153428  0  4.106282  0  0  0.092188  0.148932  0  4.065499  0
C  C93  1  0.65352358  0.26252366  0.86256745  1  0  0.152677  0  3.833048  0  0  0.151413  0  4.080794  0  0  0.154138  0  4.105007  0  0  0.092523  0.149507  0  4.06452  0
C  C94  1  0.94174151  0.21339934  0.47083905  1  0  -0.083989  0  3.762783  0  0  -0.099107  0  4.013181  0  0  -0.102427  0  4.036199  0  0  -0.099747  -0.096765  0  3.997471  0
C  C95  1  0.22840811  0.78660599  0.02876254  1  0  -0.08391  0  3.762236  0  0  -0.098987  0  4.012673  0  0  -0.10238  0  4.035696  0  0  -0.099635  -0.096664  0  3.997024  0
C  C96  1  0.05825119  0.78659467  0.52916373  1  0  -0.083739  0  3.762708  0  0  -0.098859  0  4.013087  0  0  -0.102179  0  4.036109  0  0  -0.099698  -0.096511  0  3.997372  0
C  C97  1  0.77158996  0.21339708  0.97124110  1  0  -0.083952  0  3.762368  0  0  -0.098991  0  4.012792  0  0  -0.102393  0  4.035809  0  0  -0.099606  -0.09667  0  3.997147  0
C  C98  1  0.09777702  0.14594818  0.34616006  1  0  0.104197  0  3.793455  0  0  0.091191  0  4.04156  0  0  0.094721  0  4.065058  0  0  0.092557  0.088712  0  4.025778  0
C  C99  1  0.45171261  0.85416056  0.15393841  1  0  0.104402  0  3.792713  0  0  0.091565  0  4.041765  0  0  0.095071  0  4.065302  0  0  0.092922  0.089075  0  4.026005  0
C  C100  1  0.90221748  0.85404941  0.65383979  1  0  0.104231  0  3.793461  0  0  0.091145  0  4.04156  0  0  0.094675  0  4.06506  0  0  0.09257  0.088672  0  4.02577  0
C  C101  1  0.54828802  0.14584430  0.84606416  1  0  0.104299  0  3.792849  0  0  0.091448  0  4.041864  0  0  0.094954  0  4.065401  0  0  0.092902  0.088976  0  4.026072  0
C  C102  1  0.03040616  0.29763443  0.42606618  1  0  -0.124678  0  3.694985  0  0  -0.140479  0  3.935073  0  0  -0.14315  0  3.955139  0  0  -0.084346  -0.13862  0  3.921548  0
C  C103  1  0.23260242  0.70237685  0.07365137  1  0  -0.124883  0  3.694627  0  0  -0.140374  0  3.934895  0  0  -0.143005  0  3.955031  0  0  -0.084131  -0.138531  0  3.921331  0
C  C104  1  0.96959067  0.70236950  0.57393458  1  0  -0.12458  0  3.695285  0  0  -0.140365  0  3.935363  0  0  -0.143035  0  3.95543  0  0  -0.084273  -0.13851  0  3.921844  0
C  C105  1  0.76739619  0.29762897  0.92635611  1  0  -0.12495  0  3.694763  0  0  -0.140388  0  3.935002  0  0  -0.14302  0  3.955144  0  0  -0.084143  -0.13855  0  3.921455  0
C  C106  1  0.47688872  0.11922466  0.45865647  1  0  -0.110696  0  3.732957  0  0  -0.128966  0  3.980054  0  0  -0.131628  0  4.001386  0  0  -0.096835  -0.127001  0  3.965567  0
C  C107  1  0.85751742  0.88097182  0.04157280  1  0  -0.109825  0  3.732176  0  0  -0.127967  0  3.978899  0  0  -0.130637  0  4.000218  0  0  -0.096089  -0.125979  0  3.964358  0
C  C108  1  0.52310989  0.88077114  0.54134524  1  0  -0.110793  0  3.733001  0  0  -0.12903  0  3.980058  0  0  -0.131691  0  4.001388  0  0  -0.096843  -0.127049  0  3.965569  0
C  C109  1  0.14248766  0.11903024  0.95842281  1  0  -0.110041  0  3.732016  0  0  -0.128135  0  3.978786  0  0  -0.1308  0  4.000108  0  0  -0.096209  -0.126144  0  3.964231  0
C  C110  1  0.53780630  0.29063178  0.11682458  1  0  0.006959  0  3.710149  0  0  -0.008546  0  3.952358  0  0  -0.005745  0  3.970442  0  0  -0.064374  -0.010187  0  3.939931  0
C  C111  1  0.74704789  0.70951295  0.38324039  1  0  0.006548  0  3.711532  0  0  -0.008806  0  3.953639  0  0  -0.005945  0  3.971728  0  0  -0.064053  -0.010401  0  3.941222  0
C  C112  1  0.46218902  0.70936579  0.88317372  1  0  0.007007  0  3.710452  0  0  -0.008542  0  3.952656  0  0  -0.005741  0  3.970734  0  0  -0.064389  -0.010188  0  3.940227  0
C  C113  1  0.25295461  0.29048730  0.61675474  1  0  0.006559  0  3.711656  0  0  -0.008768  0  3.953749  0  0  -0.005909  0  3.971836  0  0  -0.064012  -0.010365  0  3.941335  0
C  C114  1  0.46618737  0.43164221  0.10798606  1  0  0.128926  0  3.727117  0  0  0.100296  0  3.982597  0  0  0.106216  0  4.000121  0  0  0.047191  0.096413  0  3.970656  0
C  C115  1  0.53421448  0.56865766  0.39224149  1  0  0.128875  0  3.728308  0  0  0.099963  0  3.983858  0  0  0.105866  0  4.001424  0  0  0.047324  0.096165  0  3.97187  0
C  C116  1  0.53380249  0.56835446  0.89201277  1  0  0.128992  0  3.727329  0  0  0.100319  0  3.982781  0  0  0.106232  0  4.000311  0  0  0.047125  0.09643  0  3.970832  0
C  C117  1  0.46579023  0.43134535  0.60775748  1  0  0.128905  0  3.72818  0  0  0.10003  0  3.983745  0  0  0.10593  0  4.001312  0  0  0.047313  0.096232  0  3.971765  0
C  C118  1  0.93082625  0.09723877  0.45324463  1  0  -0.086171  0  3.806456  0  0  -0.100893  0  4.064097  0  0  -0.102488  0  4.086278  0  0  -0.101256  -0.099713  0  4.049038  0
C  C119  1  0.33377686  0.90281467  0.04654318  1  0  -0.084652  0  3.807038  0  0  -0.099738  0  4.064701  0  0  -0.101365  0  4.086918  0  0  -0.101385  -0.09848  0  4.049528  0
C  C120  1  0.06917705  0.90275974  0.54675625  1  0  -0.086357  0  3.806309  0  0  -0.101115  0  4.063988  0  0  -0.102705  0  4.086168  0  0  -0.101276  -0.099928  0  4.048922  0
C  C121  1  0.66622618  0.09718832  0.95345423  1  0  -0.084716  0  3.807078  0  0  -0.099773  0  4.064735  0  0  -0.1014  0  4.086955  0  0  -0.10142  -0.09852  0  4.049565  0
C  C122  1  0.00836626  0.06090653  0.39027861  1  0  -0.16037  0  3.773973  0  0  -0.180676  0  4.033404  0  0  -0.184122  0  4.054001  0  0  -0.101326  -0.178239  0  4.019418  0
C  C123  1  0.44755059  0.93920415  0.10977517  1  0  -0.159653  0  3.77474  0  0  -0.179757  0  4.034069  0  0  -0.1832  0  4.054697  0  0  -0.100821  -0.177345  0  4.020129  0
C  C124  1  0.99163052  0.93909563  0.60972479  1  0  -0.160273  0  3.773669  0  0  -0.180586  0  4.033081  0  0  -0.184031  0  4.053674  0  0  -0.101335  -0.178156  0  4.019093  0
C  C125  1  0.55245071  0.06079704  0.89022331  1  0  -0.159522  0  3.774764  0  0  -0.179614  0  4.034068  0  0  -0.183058  0  4.054696  0  0  -0.100775  -0.177205  0  4.020119  0
C  C126  1  0.55346820  0.38901015  0.08338127  1  0  -0.114795  0  3.706537  0  0  -0.128729  0  3.956683  0  0  -0.133353  0  3.975765  0  0  -0.080131  -0.125703  0  3.943836  0
C  C127  1  0.66420144  0.61106947  0.41660255  1  0  -0.114173  0  3.707108  0  0  -0.128256  0  3.957035  0  0  -0.132827  0  3.976154  0  0  -0.080745  -0.125331  0  3.944227  0
C  C128  1  0.44652377  0.61098739  0.91661469  1  0  -0.11478  0  3.706746  0  0  -0.128685  0  3.956866  0  0  -0.133303  0  3.975956  0  0  -0.080092  -0.125655  0  3.944013  0
C  C129  1  0.33580326  0.38893351  0.58339408  1  0  -0.114207  0  3.70716  0  0  -0.128271  0  3.957082  0  0  -0.132844  0  3.976205  0  0  -0.08079  -0.125361  0  3.944261  0
C  C130  1  0.39377273  0.12850227  0.39070724  1  0  -0.126351  0  3.780131  0  0  -0.145572  0  4.030222  0  0  -0.14824  0  4.052545  0  0  -0.104221  -0.143685  0  4.014968  0
C  C131  1  0.76517285  0.87185363  0.10951517  1  0  -0.126888  0  3.780835  0  0  -0.146129  0  4.031122  0  0  -0.148836  0  4.053445  0  0  -0.104524  -0.144189  0  4.015804  0
C  C132  1  0.60622893  0.87149630  0.60929831  1  0  -0.126469  0  3.780166  0  0  -0.145636  0  4.030253  0  0  -0.148305  0  4.052574  0  0  -0.104288  -0.14376  0  4.015003  0
C  C133  1  0.23483208  0.12814482  0.89048025  1  0  -0.126712  0  3.780646  0  0  -0.145927  0  4.030922  0  0  -0.148633  0  4.053244  0  0  -0.104442  -0.143992  0  4.015593  0
N  N134  1  0.20406949  0.32411711  0.30741380  1  0  -0.437147  0  3.144693  0  0  -0.383448  0  3.426219  0  0  -0.40347  0  3.44132  0  0  -0.338965  -0.369783  0  3.415356  0
N  N135  1  0.37972567  0.67601378  0.19262427  1  0  -0.436798  0  3.142168  0  0  -0.382902  0  3.423173  0  0  -0.402929  0  3.438267  0  0  -0.338578  -0.369274  0  3.412701  0
N  N136  1  0.79592204  0.67587956  0.69258425  1  0  -0.437307  0  3.144488  0  0  -0.383548  0  3.426016  0  0  -0.403582  0  3.44114  0  0  -0.338988  -0.369881  0  3.415162  0
N  N137  1  0.62027286  0.32399019  0.80737962  1  0  -0.436925  0  3.142196  0  0  -0.383007  0  3.423268  0  0  -0.403034  0  3.438364  0  0  -0.338646  -0.369367  0  3.412747  0
N  N138  1  0.36978127  0.38342160  0.16181115  1  0  -0.32989  0  3.208157  0  0  -0.271073  0  3.463081  0  0  -0.286513  0  3.481923  0  0  -0.312503  -0.260366  0  3.450059  0
N  N139  1  0.48612736  0.61689185  0.33841449  1  0  -0.329263  0  3.21122  0  0  -0.269992  0  3.46576  0  0  -0.285497  0  3.484611  0  0  -0.312385  -0.259447  0  3.452924  0
N  N140  1  0.63021322  0.61657599  0.83818871  1  0  -0.329945  0  3.208191  0  0  -0.271087  0  3.463108  0  0  -0.286525  0  3.481947  0  0  -0.312487  -0.260386  0  3.450098  0
N  N141  1  0.51387736  0.38311116  0.66158448  1  0  -0.329373  0  3.211233  0  0  -0.270099  0  3.465716  0  0  -0.2856  0  3.484567  0  0  -0.312393  -0.259551  0  3.452875  0
N  N142  1  0.18712510  0.13990071  0.28021313  1  0  -0.14385  0  3.493255  0  0  -0.057697  0  3.715342  0  0  -0.07439  0  3.739012  0  0  -0.234112  -0.046575  0  3.699084  0
N  N143  1  0.54717004  0.86032096  0.21993033  1  0  -0.143371  0  3.492277  0  0  -0.058952  0  3.715563  0  0  -0.075722  0  3.739338  0  0  -0.234668  -0.04778  0  3.699228  0
N  N144  1  0.81287236  0.86009780  0.71978775  1  0  -0.144021  0  3.493288  0  0  -0.057624  0  3.715197  0  0  -0.07432  0  3.738865  0  0  -0.234121  -0.046496  0  3.698935  0
N  N145  1  0.45283089  0.13968114  0.78006918  1  0  -0.14357  0  3.492287  0  0  -0.059064  0  3.715574  0  0  -0.075838  0  3.739344  0  0  -0.234756  -0.0479  0  3.699236  0
Cl  Cl146  1  0.10037546  0.39789927  0.07540391  1  0  -0.611207  0  0.827761  0  0  -0.553961  0  1.059834  0  0  -0.569231  0  1.038411  0  0  -0.36237  -0.54274  0  1.074429  0
Cl  Cl147  1  0.20202056  0.60208022  0.42445821  1  0  -0.611011  0  0.827409  0  0  -0.553909  0  1.059528  0  0  -0.569166  0  1.038078  0  0  -0.362355  -0.542657  0  1.07419  0
Cl  Cl148  1  0.89962387  0.60210465  0.92459607  1  0  -0.611208  0  0.827765  0  0  -0.553949  0  1.059851  0  0  -0.56922  0  1.038424  0  0  -0.362362  -0.542727  0  1.074448  0
Cl  Cl149  1  0.79797978  0.39791738  0.57554243  1  0  -0.610996  0  0.827405  0  0  -0.553895  0  1.05953  0  0  -0.56915  0  1.038079  0  0  -0.362344  -0.542637  0  1.074195  0
