# generated using pymatgen
data_CdH56C72N4(ClO6)2
_symmetry_space_group_name_H-M   'P 1'
_cell_length_a   14.38322253
_cell_length_b   17.58818471
_cell_length_c   19.31892274
_cell_angle_alpha   89.99996790
_cell_angle_beta   90.00008186
_cell_angle_gamma   90.00000400
_symmetry_Int_Tables_number   1
_chemical_formula_structural   CdH56C72N4(ClO6)2
_chemical_formula_sum   'Cd2 H112 C144 N8 Cl4 O24'
_cell_volume   4887.20012338
_cell_formula_units_Z   2
loop_
 _symmetry_equiv_pos_site_id
 _symmetry_equiv_pos_as_xyz
  1  'x, y, z'
loop_
 _atom_site_type_symbol
 _atom_site_label
 _atom_site_symmetry_multiplicity
 _atom_site_fract_x
 _atom_site_fract_y
 _atom_site_fract_z
 _atom_site_occupancy
 _atom_site_pbe_bader_charge
 _atom_site_pbe_bader_spin_density
 _atom_site_pbe_cm5_charge
 _atom_site_pbe_ddec_charge
 _atom_site_pbe_ddec_spin_density
 _atom_site_pbe_ddec_sum_bond_order
 _atom_site_pbe_magmom
Cd  Cd0  1  0.50000102  0.00000045  0.43225781  1  1.248357  0  0.797422  0.783128  0  2.313696  0
Cd  Cd1  1  0.99999969  0.50000143  0.56774220  1  1.248327  0  0.79744  0.783171  0  2.313698  0
H  H2  1  0.04923820  0.30719684  0.99822538  1  0.084754  0  0.100447  0.101275  0  1.016927  0
H  H3  1  0.95076358  0.69280175  0.99822421  1  0.084793  0  0.100461  0.101297  0  1.016912  0
H  H4  1  0.45076272  0.80719758  0.00177549  1  0.084771  0  0.100439  0.101262  0  1.016873  0
H  H5  1  0.54923715  0.19280218  0.00177363  1  0.084714  0  0.100448  0.101268  0  1.01691  0
H  H6  1  0.03465662  0.44648922  0.98521012  1  0.025416  0  0.097547  0.092047  0  1.015151  0
H  H7  1  0.96534305  0.55350995  0.98520903  1  0.025089  0  0.097566  0.092115  0  1.015107  0
H  H8  1  0.46534362  0.94648996  0.01479172  1  0.025438  0  0.097581  0.092118  0  1.01512  0
H  H9  1  0.53465697  0.05350980  0.01478836  1  0.025014  0  0.097561  0.092067  0  1.015136  0
H  H10  1  0.09989503  0.51189623  0.88087616  1  0.072823  0  0.093235  0.087817  0  1.052165  0
H  H11  1  0.90010583  0.48810414  0.88087711  1  0.072728  0  0.093226  0.087824  0  1.05214  0
H  H12  1  0.40010725  0.01189603  0.11912590  1  0.0728  0  0.09323  0.087865  0  1.052108  0
H  H13  1  0.59989284  0.98810195  0.11912316  1  0.072761  0  0.093198  0.087811  0  1.052208  0
H  H14  1  0.18083299  0.43695447  0.79027645  1  0.068842  0  0.101221  0.107407  0  1.010834  0
H  H15  1  0.81916769  0.56304425  0.79027676  1  0.068806  0  0.101223  0.107452  0  1.010806  0
H  H16  1  0.31916794  0.93695338  0.20972435  1  0.068818  0  0.101211  0.107414  0  1.010875  0
H  H17  1  0.68083025  0.06304569  0.20972270  1  0.06888  0  0.101246  0.10745  0  1.010767  0
H  H18  1  0.53474207  0.10074654  0.29469837  1  0.085355  0  0.114548  0.091144  0  1.015936  0
H  H19  1  0.46525837  0.89925305  0.29469812  1  0.08536  0  0.114553  0.091168  0  1.015904  0
H  H20  1  0.96525935  0.60074686  0.70530211  1  0.085378  0  0.114549  0.091161  0  1.015904  0
H  H21  1  0.03474047  0.39925361  0.70530218  1  0.085379  0  0.114534  0.091129  0  1.015953  0
H  H22  1  0.28968094  0.02930252  0.38802955  1  0.139394  0  0.118342  0.09328  0  0.997356  0
H  H23  1  0.71032037  0.97069758  0.38802901  1  0.139394  0  0.118317  0.093244  0  0.997343  0
H  H24  1  0.21032065  0.52930345  0.61197095  1  0.139419  0  0.11832  0.093254  0  0.997362  0
H  H25  1  0.78967900  0.47069765  0.61197024  1  0.139391  0  0.118315  0.093257  0  0.997372  0
H  H26  1  0.44990632  0.14604345  0.19011329  1  0.089337  0  0.105012  0.113833  0  1.015049  0
H  H27  1  0.55009391  0.85395676  0.19011316  1  0.089364  0  0.105012  0.113834  0  1.015053  0
H  H28  1  0.05009528  0.64604426  0.80988611  1  0.089344  0  0.10504  0.113881  0  1.015053  0
H  H29  1  0.94990475  0.35395672  0.80988615  1  0.089373  0  0.105008  0.113838  0  1.015064  0
H  H30  1  0.19498857  0.07230812  0.28915751  1  0.092436  0  0.111833  0.120214  0  0.9893  0
H  H31  1  0.80501115  0.92769260  0.28915710  1  0.092469  0  0.111841  0.120234  0  0.98928  0
H  H32  1  0.30501232  0.57230900  0.71084193  1  0.092453  0  0.111852  0.120235  0  0.989249  0
H  H33  1  0.69498821  0.42769204  0.71084114  1  0.092417  0  0.111842  0.120213  0  0.989264  0
H  H34  1  0.30353712  0.16906460  0.12961138  1  0.08727  0  0.105318  0.110732  0  1.037163  0
H  H35  1  0.69646230  0.83093508  0.12961090  1  0.087231  0  0.105328  0.110742  0  1.037144  0
H  H36  1  0.19646379  0.66906538  0.87038852  1  0.087266  0  0.105304  0.110685  0  1.037227  0
H  H37  1  0.80353635  0.33093556  0.87038790  1  0.0873  0  0.105332  0.11072  0  1.037231  0
H  H38  1  0.14329978  0.07223480  0.18718700  1  0.051786  0  0.099495  0.088464  0  1.012917  0
H  H39  1  0.85670114  0.92776484  0.18718664  1  0.05179  0  0.099498  0.088473  0  1.012902  0
H  H40  1  0.35670181  0.57223506  0.81281348  1  0.051791  0  0.099495  0.088478  0  1.012875  0
H  H41  1  0.64329753  0.42776478  0.81281263  1  0.051762  0  0.099495  0.088444  0  1.012949  0
H  H42  1  0.23318839  0.31501126  0.74523621  1  0.113802  0  0.105041  0.123888  0  1.025816  0
H  H43  1  0.76681291  0.68498578  0.74523381  1  0.113805  0  0.105013  0.123828  0  1.025901  0
H  H44  1  0.26681114  0.81501184  0.25476414  1  0.113783  0  0.105033  0.123871  0  1.025837  0
H  H45  1  0.73318713  0.18498777  0.25476351  1  0.113817  0  0.105042  0.123904  0  1.025806  0
H  H46  1  0.26829526  0.10094141  0.75637718  1  0.090509  0  0.100535  0.094285  0  1.029829  0
H  H47  1  0.73170466  0.89905676  0.75637722  1  0.090526  0  0.100526  0.094262  0  1.029948  0
H  H48  1  0.23170425  0.60094200  0.24362328  1  0.090518  0  0.100529  0.094253  0  1.029894  0
H  H49  1  0.76829470  0.39905705  0.24362310  1  0.090541  0  0.100519  0.094211  0  1.029991  0
H  H50  1  0.27549732  0.24570794  0.66623081  1  0.077814  0  0.102939  0.109708  0  1.030969  0
H  H51  1  0.72450382  0.75429142  0.66623040  1  0.077833  0  0.102953  0.10968  0  1.031036  0
H  H52  1  0.22450359  0.74570790  0.33376957  1  0.077802  0  0.102961  0.109722  0  1.031029  0
H  H53  1  0.77549761  0.25429222  0.33376948  1  0.077808  0  0.102944  0.109697  0  1.030946  0
H  H54  1  0.39064949  0.96135601  0.57439689  1  0.074918  0  0.117183  0.092436  0  0.986244  0
H  H55  1  0.60935009  0.03864397  0.57439621  1  0.074912  0  0.117184  0.092445  0  0.986237  0
H  H56  1  0.10934866  0.46135619  0.42560338  1  0.074916  0  0.1172  0.09246  0  0.98618  0
H  H57  1  0.89064993  0.53864446  0.42560326  1  0.074901  0  0.117185  0.092418  0  0.986224  0
H  H58  1  0.32081749  0.02878049  0.67450879  1  0.064147  0  0.107595  0.115457  0  0.996178  0
H  H59  1  0.67918228  0.97121886  0.67450873  1  0.064158  0  0.107595  0.115468  0  0.996197  0
H  H60  1  0.17918132  0.52878103  0.32549119  1  0.064157  0  0.107596  0.115477  0  0.99619  0
H  H61  1  0.82081778  0.47121968  0.32549155  1  0.064154  0  0.107591  0.1158  0  0.995962  0
H  H62  1  0.41953787  0.16133830  0.46321545  1  0.096029  0  0.118408  0.094104  0  0.984625  0
H  H63  1  0.58046289  0.83866232  0.46321433  1  0.095997  0  0.118434  0.094146  0  0.984631  0
H  H64  1  0.08046165  0.66133870  0.53678446  1  0.096016  0  0.118411  0.094093  0  0.984646  0
H  H65  1  0.91953855  0.33866244  0.53678551  1  0.096003  0  0.118414  0.094126  0  0.984617  0
H  H66  1  0.34677401  0.23763437  0.55752759  1  0.101873  0  0.112146  0.131909  0  0.994878  0
H  H67  1  0.65322553  0.76236562  0.55752813  1  0.101836  0  0.11216  0.131949  0  0.994828  0
H  H68  1  0.15322551  0.73763427  0.44247228  1  0.101843  0  0.112152  0.131953  0  0.994833  0
H  H69  1  0.84677451  0.26236636  0.44247226  1  0.101897  0  0.112167  0.131929  0  0.994852  0
H  H70  1  0.00374408  0.07254411  0.13744450  1  0.084174  0  0.100737  0.099142  0  1.008517  0
H  H71  1  0.99625674  0.92745329  0.13744429  1  0.08445  0  0.100717  0.099139  0  1.008507  0
H  H72  1  0.49625612  0.57254434  0.86255753  1  0.084689  0  0.100722  0.099139  0  1.008501  0
H  H73  1  0.50374331  0.42745490  0.86255602  1  0.084195  0  0.100741  0.099176  0  1.008565  0
H  H74  1  0.84733454  0.06292008  0.08689969  1  0.066685  0  0.097895  0.097061  0  1.015872  0
H  H75  1  0.15266619  0.93707679  0.08689806  1  0.066657  0  0.097932  0.097116  0  1.015931  0
H  H76  1  0.65266549  0.56292026  0.91310287  1  0.066739  0  0.097906  0.097107  0  1.015892  0
H  H77  1  0.34733404  0.43708066  0.91310067  1  0.066693  0  0.097909  0.097082  0  1.015827  0
H  H78  1  0.95958900  0.19732769  0.87521696  1  0.067687  0  0.098488  0.09824  0  1.023209  0
H  H79  1  0.04041115  0.80267098  0.87521632  1  0.067653  0  0.098523  0.098319  0  1.023204  0
H  H80  1  0.54041034  0.69733004  0.12478346  1  0.067666  0  0.098518  0.098305  0  1.023209  0
H  H81  1  0.45958977  0.30267192  0.12478404  1  0.067672  0  0.098484  0.098247  0  1.023161  0
H  H82  1  0.73802750  0.09236343  0.99181809  1  0.060926  0  0.095991  0.095121  0  1.031131  0
H  H83  1  0.26197357  0.90763687  0.99181711  1  0.060911  0  0.095995  0.095135  0  1.031086  0
H  H84  1  0.76197253  0.59236416  0.00818446  1  0.060946  0  0.096024  0.095188  0  1.031041  0
H  H85  1  0.23802805  0.40763730  0.00818267  1  0.060937  0  0.095992  0.095179  0  1.0311  0
H  H86  1  0.79388345  0.16113918  0.88659278  1  0.047971  0  0.103384  0.099538  0  0.98507  0
H  H87  1  0.20611673  0.83886175  0.88659125  1  0.047947  0  0.103389  0.099502  0  0.985  0
H  H88  1  0.70611519  0.66114042  0.11340870  1  0.047957  0  0.103394  0.099514  0  0.985038  0
H  H89  1  0.29388419  0.33886098  0.11340753  1  0.04797  0  0.103386  0.099525  0  0.98505  0
H  H90  1  0.38048081  0.15760297  0.00284504  1  0.073514  0  0.099868  0.10733  0  1.00479  0
H  H91  1  0.61951906  0.84239736  0.00284499  1  0.073512  0  0.099874  0.107326  0  1.004786  0
H  H92  1  0.11951940  0.65760310  0.99715539  1  0.073515  0  0.099873  0.10732  0  1.004787  0
H  H93  1  0.88048029  0.34239720  0.99715536  1  0.073518  0  0.099845  0.10729  0  1.004864  0
H  H94  1  0.29903265  0.10854873  0.94755814  1  0.074442  0  0.095967  0.102978  0  1.037231  0
H  H95  1  0.70096695  0.89145160  0.94755763  1  0.074429  0  0.095971  0.102952  0  1.037229  0
H  H96  1  0.20096686  0.60854886  0.05244231  1  0.074429  0  0.09596  0.102945  0  1.037242  0
H  H97  1  0.79903241  0.39145143  0.05244165  1  0.074436  0  0.095978  0.10297  0  1.037233  0
H  H98  1  0.31384834  0.07917758  0.03571642  1  0.029152  0  0.088179  0.082439  0  1.04076  0
H  H99  1  0.68615229  0.92082216  0.03571692  1  0.029186  0  0.088182  0.082436  0  1.040737  0
H  H100  1  0.18615117  0.57917774  0.96428353  1  0.029181  0  0.08818  0.082424  0  1.040751  0
H  H101  1  0.81384777  0.42082258  0.96428391  1  0.029154  0  0.088174  0.082449  0  1.040735  0
H  H102  1  0.13321300  0.98774353  0.84624162  1  0.063444  0  0.100607  0.106531  0  1.006821  0
H  H103  1  0.86678501  0.01225402  0.84624123  1  0.063461  0  0.100589  0.106498  0  1.006885  0
H  H104  1  0.36678584  0.48774444  0.15375916  1  0.063425  0  0.100599  0.106527  0  1.006815  0
H  H105  1  0.63321362  0.51225636  0.15375878  1  0.06345  0  0.100592  0.10652  0  1.006821  0
H  H106  1  0.09992273  0.05761458  0.78257835  1  0.06686  0  0.095652  0.093361  0  0.989513  0
H  H107  1  0.90007725  0.94238471  0.78257855  1  0.066857  0  0.095639  0.093331  0  0.989545  0
H  H108  1  0.40007678  0.55761520  0.21742213  1  0.06685  0  0.095626  0.093326  0  0.989533  0
H  H109  1  0.59992350  0.44238500  0.21742175  1  0.066862  0  0.095632  0.093338  0  0.989526  0
H  H110  1  0.04922833  0.05921392  0.86767469  1  0.059276  0  0.091687  0.089152  0  1.041204  0
H  H111  1  0.95077112  0.94078475  0.86767494  1  0.059785  0  0.091678  0.089144  0  1.041187  0
H  H112  1  0.45077048  0.55921459  0.13232580  1  0.059839  0  0.091647  0.089081  0  1.041218  0
H  H113  1  0.54922894  0.44078566  0.13232536  1  0.059293  0  0.091685  0.089147  0  1.041193  0
C  C114  1  0.16085559  0.32875511  0.84186475  1  -0.0758  0  -0.009636  0.068997  0  4.031411  0
C  C115  1  0.83914380  0.67124414  0.84186347  1  -0.075812  0  -0.009633  0.068937  0  4.031568  0
C  C116  1  0.33914254  0.82875576  0.15813559  1  -0.075823  0  -0.009685  0.068873  0  4.031641  0
C  C117  1  0.66085484  0.17124505  0.15813387  1  -0.075652  0  -0.009642  0.068988  0  4.031449  0
C  C118  1  0.12286277  0.29130097  0.90153939  1  0.013616  0  -0.004781  0.040938  0  3.982441  0
C  C119  1  0.87713743  0.70869768  0.90153813  1  0.013666  0  -0.004798  0.040921  0  3.982374  0
C  C120  1  0.37713675  0.79130109  0.09846149  1  0.013625  0  -0.00478  0.040959  0  3.982511  0
C  C121  1  0.62286191  0.20869805  0.09845970  1  0.013675  0  -0.004781  0.0409  0  3.982437  0
C  C122  1  0.07737302  0.33563071  0.95263382  1  -0.037579  0  -0.093288  -0.138126  0  4.005243  0
C  C123  1  0.92262728  0.66436904  0.95263366  1  -0.037649  0  -0.093287  -0.138061  0  4.005275  0
C  C124  1  0.42262651  0.83563086  0.04736652  1  -0.037595  0  -0.093283  -0.138097  0  4.005362  0
C  C125  1  0.57737414  0.16436830  0.04736419  1  -0.037605  0  -0.093305  -0.138139  0  4.005183  0
C  C126  1  0.06960563  0.41342953  0.94518048  1  -0.139942  0  -0.098204  -0.095829  0  4.055269  0
C  C127  1  0.93039327  0.58657193  0.94518037  1  -0.139647  0  -0.098263  -0.096013  0  4.055236  0
C  C128  1  0.43039460  0.91342797  0.05481930  1  -0.139645  0  -0.098204  -0.095845  0  4.055162  0
C  C129  1  0.56960676  0.08657005  0.05481648  1  -0.139958  0  -0.098144  -0.095676  0  4.055026  0
C  C130  1  0.10722162  0.45056869  0.88651159  1  0.013591  0  -0.101585  -0.103544  0  4.056046  0
C  C131  1  0.89277577  0.54943110  0.88651146  1  0.013561  0  -0.101539  -0.10345  0  4.055805  0
C  C132  1  0.39277722  0.95056880  0.11348921  1  0.013519  0  -0.101603  -0.103674  0  4.055812  0
C  C133  1  0.60722147  0.04942976  0.11348645  1  0.013612  0  -0.101601  -0.103709  0  4.055961  0
C  C134  1  0.15207939  0.40905277  0.83602847  1  -0.064633  0  -0.087907  -0.12519  0  3.963757  0
C  C135  1  0.84791860  0.59094592  0.83602673  1  -0.064617  0  -0.087968  -0.125299  0  3.963794  0
C  C136  1  0.34791875  0.90905284  0.16397286  1  -0.064607  0  -0.087917  -0.125147  0  3.963811  0
C  C137  1  0.65207726  0.09094682  0.16397065  1  -0.064597  0  -0.087958  -0.125221  0  3.963618  0
C  C138  1  0.45929861  0.09507057  0.29084149  1  0.470322  0  0.044771  0.09703  0  3.954315  0
C  C139  1  0.54070112  0.90493072  0.29084080  1  0.470275  0  0.044763  0.096995  0  3.954382  0
C  C140  1  0.04070229  0.59507029  0.70915846  1  0.470297  0  0.044822  0.097126  0  3.954357  0
C  C141  1  0.95929824  0.40493131  0.70915848  1  0.470289  0  0.044838  0.097174  0  3.954314  0
C  C142  1  0.32272356  0.05534729  0.34304154  1  0.435626  0  0.046589  0.09913  0  3.972119  0
C  C143  1  0.67727696  0.94465340  0.34304098  1  0.435615  0  0.046629  0.099204  0  3.971992  0
C  C144  1  0.17727873  0.55534706  0.65695842  1  0.435603  0  0.046585  0.099149  0  3.971869  0
C  C145  1  0.82272240  0.44465458  0.65695828  1  0.435593  0  0.046608  0.099117  0  3.971962  0
C  C146  1  0.41137883  0.12074009  0.23296711  1  -0.015153  0  -0.085258  -0.180749  0  3.922268  0
C  C147  1  0.58862079  0.87926124  0.23296701  1  -0.015128  0  -0.085257  -0.180784  0  3.922263  0
C  C148  1  0.08862137  0.62074092  0.76703282  1  -0.01512  0  -0.085316  -0.180927  0  3.922231  0
C  C149  1  0.91137788  0.37926065  0.76703229  1  -0.015104  0  -0.085311  -0.180915  0  3.922343  0
C  C150  1  0.27016852  0.07917921  0.28699542  1  0.03688  0  -0.08279  -0.175647  0  3.925027  0
C  C151  1  0.72983189  0.92082094  0.28699493  1  0.037148  0  -0.082814  -0.175725  0  3.924959  0
C  C152  1  0.22983237  0.57918122  0.71300453  1  0.036803  0  -0.082802  -0.175684  0  3.924938  0
C  C153  1  0.77016608  0.42081981  0.71300383  1  0.037152  0  -0.082794  -0.175635  0  3.924913  0
C  C154  1  0.31416765  0.11154357  0.22884261  1  -0.034986  0  0.00842  0.154645  0  4.024349  0
C  C155  1  0.68583196  0.88845719  0.22884209  1  -0.035315  0  0.008414  0.154707  0  4.024231  0
C  C156  1  0.18583325  0.61154327  0.77115785  1  -0.03497  0  0.008406  0.154711  0  4.024128  0
C  C157  1  0.81416601  0.38845603  0.77115669  1  -0.035261  0  0.008457  0.15476  0  4.024303  0
C  C158  1  0.26538228  0.13306088  0.16568429  1  0.001658  0  -0.096234  -0.15954  0  3.97423  0
C  C159  1  0.73461721  0.86693935  0.16568435  1  0.001705  0  -0.096233  -0.159512  0  3.974175  0
C  C160  1  0.23461862  0.63306168  0.83431615  1  0.00167  0  -0.096204  -0.159497  0  3.974227  0
C  C161  1  0.76538006  0.36693872  0.83431495  1  0.001678  0  -0.096252  -0.159572  0  3.974328  0
C  C162  1  0.17880570  0.10836077  0.14932930  1  -0.106863  0  -0.079658  -0.087042  0  3.992674  0
C  C163  1  0.82119515  0.89163833  0.14932944  1  -0.106583  0  -0.079687  -0.087115  0  3.99267  0
C  C164  1  0.32119590  0.60836157  0.85067115  1  -0.106864  0  -0.079682  -0.087075  0  3.992576  0
C  C165  1  0.67880421  0.39163938  0.85067036  1  -0.106603  0  -0.079587  -0.086897  0  3.99273  0
C  C166  1  0.21390555  0.20687444  0.79546056  1  0.046933  0  -0.016434  0.024462  0  4.050572  0
C  C167  1  0.78609306  0.79312427  0.79545968  1  0.047332  0  -0.016379  0.024496  0  4.050619  0
C  C168  1  0.28609397  0.70687449  0.20453984  1  0.047344  0  -0.016418  0.024447  0  4.050546  0
C  C169  1  0.71390490  0.29312515  0.20453862  1  0.046938  0  -0.01642  0.024411  0  4.050619  0
C  C170  1  0.20576412  0.28542661  0.79038986  1  -0.047739  0  -0.080276  -0.153656  0  3.90445  0
C  C171  1  0.79423727  0.71457211  0.79038851  1  -0.047793  0  -0.080248  -0.153563  0  3.904671  0
C  C172  1  0.29423610  0.78542665  0.20961050  1  -0.047746  0  -0.080241  -0.153592  0  3.904604  0
C  C173  1  0.70576347  0.21457298  0.20960932  1  -0.047862  0  -0.080274  -0.153646  0  3.904507  0
C  C174  1  0.17633614  0.17044826  0.85566422  1  0.465225  0  0.083582  0.148573  0  3.990421  0
C  C175  1  0.82366328  0.82955041  0.85566336  1  0.464848  0  0.08366  0.148667  0  3.990339  0
C  C176  1  0.32366338  0.67044835  0.14433620  1  0.464816  0  0.083632  0.148641  0  3.990342  0
C  C177  1  0.67633468  0.32955189  0.14433596  1  0.465236  0  0.083596  0.148603  0  3.990407  0
C  C178  1  0.13237038  0.21081853  0.90778873  1  0.026814  0  -0.012088  -0.062021  0  4.008943  0
C  C179  1  0.86762983  0.78918011  0.90778897  1  0.026766  0  -0.012132  -0.062077  0  4.008952  0
C  C180  1  0.36762983  0.71081922  0.09221167  1  0.026804  0  -0.012088  -0.062031  0  4.008935  0
C  C181  1  0.63236951  0.28918106  0.09221037  1  0.026769  0  -0.012108  -0.062039  0  4.009011  0
C  C182  1  0.25868197  0.16060703  0.74259171  1  -0.078786  0  -0.086573  -0.105558  0  3.987725  0
C  C183  1  0.74131723  0.83939342  0.74259179  1  -0.078686  0  -0.086584  -0.105555  0  3.987744  0
C  C184  1  0.24131754  0.66060705  0.25740872  1  -0.078784  0  -0.086567  -0.105511  0  3.987762  0
C  C185  1  0.75868212  0.33939199  0.25740804  1  -0.078768  0  -0.086534  -0.105446  0  3.98774  0
C  C186  1  0.28667286  0.18620606  0.67995727  1  -0.008275  0  -0.085768  -0.123947  0  3.946518  0
C  C187  1  0.71332692  0.81379216  0.67995578  1  -0.008405  0  -0.085798  -0.123932  0  3.946466  0
C  C188  1  0.21332666  0.68620660  0.32004314  1  -0.008283  0  -0.085796  -0.123951  0  3.946548  0
C  C189  1  0.78667312  0.31379354  0.32004303  1  -0.008277  0  -0.08578  -0.123944  0  3.946424  0
C  C190  1  0.32859526  0.14057374  0.62549878  1  -0.027996  0  0.012424  0.160168  0  4.008418  0
C  C191  1  0.67140581  0.85942622  0.62549723  1  -0.027985  0  0.012439  0.160219  0  4.008443  0
C  C192  1  0.17140495  0.64057424  0.37450217  1  -0.027993  0  0.012419  0.160161  0  4.00845  0
C  C193  1  0.82859633  0.35942643  0.37450104  1  -0.027985  0  0.012428  0.160185  0  4.008453  0
C  C194  1  0.38064543  0.02285552  0.57345867  1  0.422398  0  0.041072  0.087157  0  3.99164  0
C  C195  1  0.61935832  0.97714503  0.57345752  1  0.422393  0  0.041131  0.08722  0  3.991634  0
C  C196  1  0.11935685  0.52285543  0.42654234  1  0.422355  0  0.041104  0.087189  0  3.991518  0
C  C197  1  0.88064522  0.47714522  0.42654173  1  0.422389  0  0.041116  0.08725  0  3.991677  0
C  C198  1  0.34166326  0.06118294  0.62903421  1  0.073923  0  -0.08594  -0.182862  0  3.938616  0
C  C199  1  0.65833781  0.93881701  0.62903363  1  0.073928  0  -0.085952  -0.182912  0  3.938643  0
C  C200  1  0.15833764  0.56118288  0.37096628  1  0.073933  0  -0.085948  -0.182884  0  3.938621  0
C  C201  1  0.84166364  0.43881723  0.37096615  1  0.073932  0  -0.085954  -0.183283  0  3.93871  0
C  C202  1  0.39581861  0.13441737  0.51089564  1  0.532083  0  0.045532  0.101964  0  3.957813  0
C  C203  1  0.60418224  0.86558322  0.51089401  1  0.532099  0  0.045558  0.102013  0  3.957724  0
C  C204  1  0.10418021  0.63441780  0.48910480  1  0.532096  0  0.04559  0.102093  0  3.957771  0
C  C205  1  0.89581851  0.36558337  0.48910529  1  0.532067  0  0.045483  0.101867  0  3.957823  0
C  C206  1  0.35697201  0.17675828  0.56399691  1  -0.026624  0  -0.076767  -0.159713  0  3.894835  0
C  C207  1  0.64303033  0.82324171  0.56399534  1  -0.026596  0  -0.076823  -0.15983  0  3.89487  0
C  C208  1  0.14302820  0.67675817  0.43600351  1  -0.026631  0  -0.076828  -0.159859  0  3.894864  0
C  C209  1  0.85697320  0.32324246  0.43600346  1  -0.026609  0  -0.07675  -0.159644  0  3.894751  0
C  C210  1  0.09580909  0.17168485  0.97050547  1  0.07162  0  -0.010703  -0.062335  0  3.993202  0
C  C211  1  0.90418985  0.82831262  0.97050521  1  0.071604  0  -0.010736  -0.062431  0  3.993232  0
C  C212  1  0.40419042  0.67168558  0.02949547  1  0.071621  0  -0.01074  -0.062378  0  3.993141  0
C  C213  1  0.59580880  0.32831587  0.02949463  1  0.071606  0  -0.010716  -0.062291  0  3.993252  0
C  C214  1  0.15505152  0.15794864  0.02569971  1  0.469933  0  0.089176  0.167629  0  3.970383  0
C  C215  1  0.84494840  0.84204939  0.02569990  1  0.469973  0  0.089164  0.167587  0  3.970287  0
C  C216  1  0.34494869  0.65794823  0.97430020  1  0.469946  0  0.089205  0.167651  0  3.970275  0
C  C217  1  0.65505095  0.34205151  0.97430045  1  0.469936  0  0.089219  0.167667  0  3.970203  0
C  C218  1  0.99966774  0.15145027  0.97499740  1  -0.035599  0  -0.0039  0.041529  0  3.979124  0
C  C219  1  0.00033191  0.84854663  0.97499773  1  -0.035585  0  -0.003897  0.041584  0  3.979055  0
C  C220  1  0.50033230  0.65145268  0.02500304  1  -0.035603  0  -0.003907  0.041574  0  3.979052  0
C  C221  1  0.49966762  0.34854991  0.02500312  1  -0.035603  0  -0.0039  0.041534  0  3.979142  0
C  C222  1  0.96680841  0.11361549  0.03607755  1  -0.008345  0  -0.011518  0.069579  0  4.033046  0
C  C223  1  0.03319152  0.88638197  0.03607685  1  -0.008189  0  -0.011488  0.069637  0  4.032991  0
C  C224  1  0.53319092  0.61361621  0.96392395  1  -0.008343  0  -0.011486  0.069564  0  4.032953  0
C  C225  1  0.46680801  0.38638468  0.96392243  1  -0.008354  0  -0.011511  0.06956  0  4.033069  0
C  C226  1  0.02981191  0.09994889  0.09056612  1  -0.090621  0  -0.081832  -0.161161  0  3.961153  0
C  C227  1  0.97018883  0.90004968  0.09056537  1  -0.090379  0  -0.081826  -0.161197  0  3.961102  0
C  C228  1  0.47018830  0.59995023  0.90943486  1  -0.090612  0  -0.081821  -0.161172  0  3.961148  0
C  C229  1  0.52981192  0.40005069  0.90943443  1  -0.090637  0  -0.081825  -0.161186  0  3.961232  0
C  C230  1  0.12274032  0.12220588  0.08804014  1  3.1e-05  0  -0.019357  0.01002  0  4.059178  0
C  C231  1  0.87726041  0.87779212  0.08804034  1  -0.000261  0  -0.019329  0.010094  0  4.059123  0
C  C232  1  0.37725919  0.62220607  0.91196083  1  -3.1e-05  0  -0.019324  0.010084  0  4.05907  0
C  C233  1  0.62273964  0.37779427  0.91195947  1  -0.000268  0  -0.019399  0.009963  0  4.059246  0
C  C234  1  0.87178729  0.09208911  0.04045249  1  -0.065733  0  -0.085132  -0.114357  0  3.955232  0
C  C235  1  0.12821335  0.90790836  0.04045136  1  -0.065758  0  -0.085161  -0.114451  0  3.955311  0
C  C236  1  0.62821274  0.59208926  0.95954954  1  -0.065666  0  -0.085168  -0.114411  0  3.955119  0
C  C237  1  0.37178758  0.40791106  0.95954842  1  -0.065728  0  -0.085132  -0.114312  0  3.955252  0
C  C238  1  0.93514390  0.16781809  0.92142657  1  -0.082785  0  -0.096768  -0.150174  0  4.009091  0
C  C239  1  0.06485565  0.83217998  0.92142645  1  -0.082772  0  -0.096763  -0.150284  0  4.009037  0
C  C240  1  0.56485474  0.66782048  0.07857438  1  -0.082854  0  -0.096748  -0.150245  0  4.009099  0
C  C241  1  0.43514458  0.33218265  0.07857440  1  -0.08281  0  -0.096792  -0.150251  0  4.009097  0
C  C242  1  0.81094370  0.10835770  0.98737689  1  0.001687  0  -0.091789  -0.075688  0  4.002205  0
C  C243  1  0.18905736  0.89164090  0.98737532  1  0.001652  0  -0.091891  -0.075823  0  4.002235  0
C  C244  1  0.68905633  0.60835899  0.01262565  1  0.001662  0  -0.09192  -0.07592  0  4.002168  0
C  C245  1  0.31094425  0.39164304  0.01262396  1  0.00148  0  -0.091838  -0.075911  0  4.002375  0
C  C246  1  0.84286347  0.14707177  0.92774469  1  -0.002895  0  -0.086548  -0.066859  0  4.021372  0
C  C247  1  0.15713609  0.85292686  0.92774466  1  -0.002919  0  -0.086502  -0.066668  0  4.021182  0
C  C248  1  0.65713517  0.64707360  0.07225576  1  -0.002925  0  -0.086523  -0.066697  0  4.021239  0
C  C249  1  0.34286414  0.35292839  0.07225619  1  -0.002692  0  -0.086518  -0.066711  0  4.021345  0
C  C250  1  0.31333313  0.12831058  0.00037179  1  0.370337  0  -0.144938  -0.17518  0  3.886533  0
C  C251  1  0.68666744  0.87168918  0.00037128  1  0.370327  0  -0.144909  -0.175088  0  3.886441  0
C  C252  1  0.18666638  0.62831014  0.99962866  1  0.370305  0  -0.144905  -0.175046  0  3.886427  0
C  C253  1  0.81333262  0.37168959  0.99962854  1  0.370331  0  -0.144915  -0.175116  0  3.88655  0
C  C254  1  0.11277943  0.04708136  0.83802918  1  0.356136  0  -0.140498  -0.165881  0  3.903309  0
C  C255  1  0.88721996  0.95291619  0.83802935  1  0.356169  0  -0.140454  -0.165821  0  3.903442  0
C  C256  1  0.38721938  0.54708200  0.16197183  1  0.35615  0  -0.140414  -0.165767  0  3.903292  0
C  C257  1  0.61278010  0.45291823  0.16197146  1  0.356122  0  -0.140479  -0.165885  0  3.903333  0
N  N258  1  0.40773736  0.05865059  0.51514694  1  -1.246863  0  -0.340752  -0.251126  0  3.527349  0
N  N259  1  0.59226489  0.94134943  0.51514681  1  -1.246875  0  -0.340794  -0.251185  0  3.527321  0
N  N260  1  0.09226284  0.55865103  0.48485251  1  -1.246817  0  -0.340792  -0.251208  0  3.527385  0
N  N261  1  0.90773726  0.44135015  0.48485349  1  -1.246863  0  -0.340777  -0.251159  0  3.527405  0
N  N262  1  0.41610736  0.06193524  0.34488383  1  -1.266326  0  -0.335943  -0.254873  0  3.515767  0
N  N263  1  0.58389316  0.93806602  0.34488265  1  -1.266303  0  -0.335925  -0.254861  0  3.515818  0
N  N264  1  0.08389214  0.56193614  0.65511665  1  -1.266272  0  -0.335928  -0.254879  0  3.515685  0
N  N265  1  0.91610759  0.43806607  0.65511661  1  -1.266322  0  -0.335947  -0.254901  0  3.515669  0
Cl  Cl266  1  0.32068032  0.85997038  0.42846069  1  3.037933  0  0.7144  1.297816  0  6.792991  0
Cl  Cl267  1  0.67931967  0.14002912  0.42846055  1  3.038009  0  0.714396  1.297769  0  6.793061  0
Cl  Cl268  1  0.17931782  0.35997104  0.57154015  1  3.037978  0  0.714445  1.2978  0  6.792971  0
Cl  Cl269  1  0.82068106  0.64003066  0.57153887  1  3.037535  0  0.714336  1.297648  0  6.793134  0
O  O270  1  0.18893415  0.09265229  0.86263720  1  -1.101284  0  -0.210918  -0.203409  0  2.574726  0
O  O271  1  0.81106598  0.90734582  0.86263629  1  -1.101264  0  -0.210927  -0.203396  0  2.574828  0
O  O272  1  0.31106605  0.59265294  0.13736378  1  -1.101285  0  -0.210949  -0.203434  0  2.574768  0
O  O273  1  0.68893408  0.40734730  0.13736403  1  -1.101281  0  -0.210918  -0.203369  0  2.574734  0
O  O274  1  0.24539010  0.18387060  0.02158876  1  -1.081689  0  -0.204746  -0.189876  0  2.564803  0
O  O275  1  0.75460981  0.81612801  0.02158835  1  -1.081734  0  -0.204782  -0.189913  0  2.56477  0
O  O276  1  0.25461011  0.68387074  0.97841217  1  -1.081667  0  -0.204784  -0.189969  0  2.564701  0
O  O277  1  0.74539024  0.31612900  0.97841150  1  -1.081682  0  -0.20478  -0.189949  0  2.56472  0
O  O278  1  0.41530309  0.88453630  0.45032634  1  -0.943204  0  -0.342087  -0.554487  0  2.224334  0
O  O279  1  0.58469695  0.11546717  0.45032663  1  -0.94303  0  -0.342061  -0.554506  0  2.224349  0
O  O280  1  0.08469575  0.38453639  0.54967552  1  -0.943239  0  -0.342078  -0.554479  0  2.224376  0
O  O281  1  0.91530308  0.61546588  0.54967280  1  -0.943048  0  -0.342078  -0.554478  0  2.224363  0
O  O282  1  0.25171807  0.90157045  0.46821700  1  -0.997511  0  -0.331557  -0.502445  0  2.000585  0
O  O283  1  0.74828061  0.09842618  0.46821644  1  -0.997584  0  -0.33154  -0.502357  0  2.000576  0
O  O284  1  0.24828008  0.40157341  0.53178486  1  -0.997483  0  -0.331583  -0.502432  0  2.000534  0
O  O285  1  0.75171803  0.59843115  0.53178248  1  -0.997444  0  -0.331559  -0.502393  0  2.000622  0
O  O286  1  0.31403717  0.77889265  0.44062443  1  -0.997449  0  -0.312243  -0.482125  0  2.065023  0
O  O287  1  0.68596771  0.22110628  0.44062529  1  -0.997449  0  -0.312251  -0.482129  0  2.0651  0
O  O288  1  0.18596444  0.27889388  0.55937490  1  -0.997421  0  -0.312218  -0.482096  0  2.065059  0
O  O289  1  0.81403720  0.72110838  0.55937616  1  -0.997141  0  -0.31218  -0.482058  0  2.06512  0
O  O290  1  0.30996290  0.87698353  0.35453730  1  -0.997371  0  -0.329583  -0.536716  0  2.088997  0
O  O291  1  0.69003695  0.12301716  0.35453667  1  -0.997395  0  -0.329605  -0.536739  0  2.089003  0
O  O292  1  0.19003593  0.37698300  0.64546457  1  -0.997433  0  -0.329637  -0.536751  0  2.088948  0
O  O293  1  0.80996378  0.62301694  0.64546276  1  -0.997348  0  -0.329582  -0.53667  0  2.088962  0
