# generated using pymatgen
data_Zr6H22C51(Br5O16)2
_symmetry_space_group_name_H-M   'P 1'
_cell_length_a   14.78619559
_cell_length_b   14.80031732
_cell_length_c   14.84871035
_cell_angle_alpha   60.03616861
_cell_angle_beta   59.90283427
_cell_angle_gamma   60.21286047
_symmetry_Int_Tables_number   1
_chemical_formula_structural   Zr6H22C51(Br5O16)2
_chemical_formula_sum   'Zr6 H22 C51 Br10 O32'
_cell_volume   2300.34416138
_cell_formula_units_Z   1
loop_
 _symmetry_equiv_pos_site_id
 _symmetry_equiv_pos_as_xyz
  1  'x, y, z'
loop_
 _atom_site_type_symbol
 _atom_site_label
 _atom_site_symmetry_multiplicity
 _atom_site_fract_x
 _atom_site_fract_y
 _atom_site_fract_z
 _atom_site_occupancy
 _atom_site_pbe_bader_charge
 _atom_site_pbe_bader_spin_density
 _atom_site_pbe_cm5_charge
 _atom_site_pbe_ddec_charge
 _atom_site_pbe_ddec_spin_density
 _atom_site_pbe_ddec_sum_bond_order
 _atom_site_pbe_magmom
Zr  Zr0  1  0.87597756  0.88484535  0.61503056  1  2.637529  0  1.628382  2.376569  0  2.760221  0
Zr  Zr1  1  0.12226979  0.11547109  0.38426041  1  2.638335  0  1.634945  2.375633  0  2.774344  0
Zr  Zr2  1  0.11464947  0.87753405  0.62220732  1  2.637454  0  1.627028  2.376291  0  2.749039  0
Zr  Zr3  1  0.88399774  0.12414215  0.37578781  1  2.634669  0  1.623109  2.374902  0  2.733333  0
Zr  Zr4  1  0.11799293  0.88121717  0.38024578  1  2.638526  0  1.627156  2.380923  0  2.753335  0
Zr  Zr5  1  0.87971866  0.11959810  0.61876500  1  2.637178  0  1.626819  2.380709  0  2.751271  0
H  H6  1  0.08589702  0.71908190  0.59385071  1  0.59757  0  0.332134  0.424173  0  0.855273  0
H  H7  1  0.09932222  0.09481054  0.21806292  1  0.601458  0  0.332278  0.424458  0  0.854178  0
H  H8  1  0.09334005  0.08838320  0.59896735  1  0.610605  0  0.331788  0.424349  0  0.854802  0
H  H9  1  0.71704075  0.10020325  0.58775433  1  0.589764  0  0.331245  0.424371  0  0.853502  0
H  H10  1  0.15027927  0.57859251  0.38346404  1  0.136603  0  0.105042  0.121693  0  1.027747  0
H  H11  1  0.84035558  0.42943324  0.60831767  1  0.123986  0  0.103487  0.120126  0  1.035351  0
H  H12  1  0.62246459  0.10593444  0.93106198  1  0.136528  0  0.103988  0.120783  0  1.03314  0
H  H13  1  0.38810193  0.88136118  0.07983387  1  0.156636  0  0.104826  0.121476  0  1.028957  0
H  H14  1  0.85761346  0.13334479  0.09751755  1  0.156472  0  0.107231  0.12266  0  1.02402  0
H  H15  1  0.13013889  0.85707210  0.91178735  1  0.112097  0  0.109742  0.127549  0  1.011691  0
H  H16  1  0.59951309  0.41286991  0.35555389  1  0.146934  0  0.108833  0.124122  0  1.022333  0
H  H17  1  0.41056202  0.59986033  0.63057946  1  0.126502  0  0.108377  0.126418  0  1.016776  0
H  H18  1  0.13515212  0.59910204  0.90939885  1  0.092771  0  0.105733  0.118655  0  0.998836  0
H  H19  1  0.73728211  0.61554146  0.97482308  1  0.056723  0  0.089227  0.100825  0  1.010758  0
H  H20  1  0.82419629  0.53099274  0.88965447  1  0.07259  0  0.090155  0.100512  0  1.003955  0
H  H21  1  0.83733997  0.36127576  0.05887629  1  0.035202  0  0.094195  0.106341  0  0.988771  0
H  H22  1  0.75051892  0.44584628  0.14418539  1  0.059904  0  0.0942  0.106998  0  0.992742  0
H  H23  1  0.60315215  0.86390252  0.62719844  1  0.154397  0  0.098231  0.117165  0  1.051601  0
H  H24  1  0.40398656  0.12884863  0.36278830  1  0.131081  0  0.097264  0.115674  0  1.055984  0
H  H25  1  0.17527944  0.49430297  0.09618956  1  0.04436  0  0.088269  0.128646  0  1.001122  0
H  H26  1  0.18950618  0.35271208  0.14690498  1  0.097305  0  0.087086  0.137006  0  1.068015  0
H  H27  1  0.25871402  0.41640862  0.00579421  1  0.038866  0  0.088575  0.127883  0  0.998558  0
C  C28  1  0.98596281  0.70574816  0.49537690  1  1.601707  0  0.236321  0.650459  0  4.088754  0
C  C29  1  0.31162043  0.99513940  0.20560235  1  1.581584  0  0.236583  0.649395  0  4.088517  0
C  C30  1  0.00558184  0.30128808  0.49780167  1  1.582475  0  0.237161  0.649769  0  4.088769  0
C  C31  1  0.69454240  0.99737881  0.80144967  1  1.591734  0  0.237713  0.650958  0  4.087512  0
C  C32  1  0.98885408  0.70152707  0.80546598  1  1.535902  0  0.237787  0.648471  0  4.093929  0
C  C33  1  0.69999668  0.00883404  0.48377490  1  1.588611  0  0.237581  0.652337  0  4.079577  0
C  C34  1  0.00438714  0.30684913  0.19961493  1  1.511461  0  0.238818  0.652685  0  4.082348  0
C  C35  1  0.30603842  0.98509667  0.50732378  1  1.585385  0  0.237524  0.652632  0  4.079519  0
C  C36  1  0.30254744  0.69747014  0.49446320  1  1.581155  0  0.23692  0.650832  0  4.086536  0
C  C37  1  0.98720566  0.99683573  0.81031831  1  1.589944  0  0.236687  0.649216  0  4.088455  0
C  C38  1  0.70447389  0.31201254  0.49496552  1  1.5645  0  0.237444  0.650073  0  4.087968  0
C  C39  1  0.00336968  0.99619919  0.19609770  1  1.588543  0  0.236986  0.650801  0  4.086639  0
C  C40  1  0.00607871  0.40395590  0.49443196  1  -0.007636  0  -0.011639  -0.059504  0  3.911145  0
C  C41  1  0.98473316  0.60383523  0.49779840  1  -0.025702  0  -0.011383  -0.05975  0  3.911465  0
C  C42  1  0.09480759  0.44633544  0.43095985  1  -0.075441  0  -0.007541  0.097601  0  3.918664  0
C  C43  1  0.89665165  0.56048161  0.56266347  1  -0.112515  0  -0.007001  0.098841  0  3.916895  0
C  C44  1  0.08237876  0.54503899  0.43267184  1  0.05804  0  -0.086142  -0.136771  0  3.960429  0
C  C45  1  0.90839524  0.46279625  0.55941609  1  0.080021  0  -0.085711  -0.133668  0  3.953231  0
C  C46  1  0.41371269  0.99594701  0.10495636  1  0.026907  0  -0.012167  -0.059324  0  3.909451  0
C  C47  1  0.59600502  0.99237595  0.90528314  1  -0.001926  0  -0.01157  -0.059341  0  3.910784  0
C  C48  1  0.48100755  0.05984776  0.06229236  1  -0.120368  0  -0.007263  0.097119  0  3.919561  0
C  C49  1  0.52904661  0.92804655  0.94816990  1  -0.123739  0  -0.007127  0.098606  0  3.916913  0
C  C50  1  0.57003607  0.05697308  0.96439596  1  0.058629  0  -0.084793  -0.132921  0  3.95422  0
C  C51  1  0.44044754  0.93041335  0.04642597  1  0.03281  0  -0.086219  -0.137065  0  3.960206  0
C  C52  1  0.98517563  0.99978909  0.91110414  1  0.050759  0  -0.011413  -0.060777  0  3.904308  0
C  C53  1  0.00300779  0.99102782  0.09776157  1  -0.007616  0  -0.011958  -0.061222  0  3.905382  0
C  C54  1  0.90754285  0.07889499  0.96441804  1  -0.132704  0  -0.006998  0.099173  0  3.916549  0
C  C55  1  0.08063049  0.91187823  0.04450743  1  -0.06359  0  -0.005601  0.101206  0  3.913927  0
C  C56  1  0.91754827  0.07293831  0.05573205  1  0.019853  0  -0.084837  -0.135375  0  3.957568  0
C  C57  1  0.07025888  0.91750632  0.95355414  1  0.03798  0  -0.084679  -0.135042  0  3.95171  0
C  C58  1  0.40687232  0.59944657  0.48887852  1  0.027155  0  -0.011327  -0.059912  0  3.903333  0
C  C59  1  0.60299046  0.41302232  0.49750907  1  0.031943  0  -0.011957  -0.060978  0  3.906017  0
C  C60  1  0.46166866  0.54598916  0.40990129  1  -0.107033  0  -0.005707  0.100421  0  3.916959  0
C  C61  1  0.54851250  0.46686285  0.57608009  1  -0.155449  0  -0.006302  0.100896  0  3.915577  0
C  C62  1  0.55744135  0.45503634  0.41559906  1  0.057464  0  -0.085791  -0.138146  0  3.959589  0
C  C63  1  0.45281674  0.55789509  0.57034534  1  0.058927  0  -0.084796  -0.135863  0  3.953341  0
C  C64  1  0.99014896  0.60247455  0.90649547  1  -0.107083  0  -0.015324  -0.079851  0  4.005551  0
C  C65  1  0.00469631  0.40793142  0.09989355  1  0.01096  0  -0.014517  -0.154223  0  3.903575  0
C  C66  1  0.91366878  0.54714095  0.96118056  1  0.02884  0  -0.006241  0.058866  0  3.894477  0
C  C67  1  0.08424860  0.46316213  0.04443223  1  -0.019207  0  0.005991  0.176294  0  3.902915  0
C  C68  1  0.92153890  0.45324414  0.05463659  1  -0.011672  0  -0.005131  0.065485  0  3.890903  0
C  C69  1  0.07390845  0.55771178  0.95098136  1  -0.007743  0  -0.087667  -0.165485  0  3.929293  0
C  C70  1  0.81232850  0.54431227  0.96185243  1  -0.03718  0  -0.155647  -0.197346  0  3.878117  0
C  C71  1  0.82070926  0.43797362  0.06786090  1  -0.012717  0  -0.152834  -0.19356  0  3.873078  0
C  C72  1  0.40820327  0.98512011  0.50589009  1  0.061474  0  -0.012018  -0.058444  0  3.900011  0
C  C73  1  0.59930198  0.00734863  0.48367027  1  -0.059261  0  -0.012192  -0.057188  0  3.899008  0
C  C74  1  0.46504331  0.90932423  0.58181546  1  -0.155058  0  -0.007424  0.103691  0  3.916467  0
C  C75  1  0.54219215  0.08338592  0.40800758  1  -0.062486  0  -0.00753  0.101374  0  3.916509  0
C  C76  1  0.55838400  0.92165165  0.56931452  1  0.083436  0  -0.090245  -0.144441  0  3.974388  0
C  C77  1  0.44904008  0.07088165  0.42035896  1  0.02831  0  -0.089886  -0.143042  0  3.978147  0
C  C78  1  0.18194577  0.42832583  0.07640171  1  -0.071728  0  -0.250227  -0.433698  0  3.972732  0
Br  Br79  1  0.23758090  0.37608674  0.34420545  1  -0.030442  0  0.043692  -0.045609  0  1.500194  0
Br  Br80  1  0.75663177  0.62626401  0.65597306  1  -0.02803  0  0.045415  -0.045774  0  1.522372  0
Br  Br81  1  0.46335727  0.15101395  0.12951749  1  -0.024064  0  0.047554  -0.040852  0  1.525913  0
Br  Br82  1  0.54528436  0.83884488  0.87944851  1  -0.028888  0  0.042701  -0.049201  0  1.497689  0
Br  Br83  1  0.78573649  0.19832687  0.92212618  1  -0.026635  0  0.040816  -0.045515  0  1.469693  0
Br  Br84  1  0.20394180  0.79398783  0.08527657  1  -0.029238  0  0.037734  -0.04688  0  1.452618  0
Br  Br85  1  0.41570284  0.58664893  0.29195824  1  -0.028382  0  0.039623  -0.045111  0  1.456899  0
Br  Br86  1  0.59452695  0.42607251  0.69400578  1  -0.025353  0  0.040512  -0.045632  0  1.471864  0
Br  Br87  1  0.42440158  0.78780651  0.70476831  1  -0.027576  0  0.0406  -0.041678  0  1.463412  0
Br  Br88  1  0.58131823  0.20647770  0.28659350  1  -0.028499  0  0.041927  -0.040101  0  1.468736  0
O  O89  1  0.91095854  0.74567244  0.57175167  1  -1.184781  0  -0.358341  -0.617448  0  2.366405  0
O  O90  1  0.26997514  0.07219017  0.24473322  1  -1.178078  0  -0.358167  -0.615462  0  2.359574  0
O  O91  1  0.08254061  0.25919941  0.42359661  1  -1.185065  0  -0.357972  -0.616212  0  2.36507  0
O  O92  1  0.73381388  0.92362415  0.75880790  1  -1.18431  0  -0.359297  -0.618114  0  2.373591  0
O  O93  1  0.06729475  0.74060710  0.76393724  1  -1.184715  0  -0.372764  -0.633622  0  2.310171  0
O  O94  1  0.74023305  0.08562165  0.40942205  1  -1.176571  0  -0.354922  -0.616477  0  2.343972  0
O  O95  1  0.92743580  0.26746361  0.23587476  1  -1.16695  0  -0.360267  -0.622379  0  2.281799  0
O  O96  1  0.26340859  0.91071550  0.58408270  1  -1.184222  0  -0.355187  -0.617382  0  2.344568  0
O  O97  1  0.25988961  0.73703614  0.42075602  1  -1.17525  0  -0.360411  -0.620014  0  2.376316  0
O  O98  1  0.91316070  0.07319502  0.76789142  1  -1.179273  0  -0.360127  -0.619818  0  2.373592  0
O  O99  1  0.74382087  0.26902585  0.57194455  1  -1.182294  0  -0.359182  -0.618555  0  2.375027  0
O  O100  1  0.07952900  0.92179064  0.23634432  1  -1.180658  0  -0.36014  -0.619045  0  2.376819  0
O  O101  1  0.06441989  0.91934291  0.77294864  1  -1.181709  0  -0.342949  -0.603681  0  2.267359  0
O  O102  1  0.74271146  0.27495860  0.41706023  1  -1.170741  0  -0.344533  -0.606221  0  2.268884  0
O  O103  1  0.92794969  0.07538730  0.23180219  1  -1.1826  0  -0.343834  -0.606616  0  2.270128  0
O  O104  1  0.26339610  0.73347077  0.57330320  1  -1.178197  0  -0.343451  -0.604666  0  2.26632  0
O  O105  1  0.91295067  0.74011767  0.76566297  1  -1.172971  0  -0.341279  -0.595945  0  2.237028  0
O  O106  1  0.26804664  0.06249303  0.43049851  1  -1.179942  0  -0.352069  -0.61179  0  2.32389  0
O  O107  1  0.07827195  0.26357340  0.24344467  1  -1.180699  0  -0.349008  -0.599267  0  2.318696  0
O  O108  1  0.73722911  0.93202586  0.56129897  1  -1.18312  0  -0.351463  -0.609554  0  2.322287  0
O  O109  1  0.73221548  0.07519910  0.76345036  1  -1.176575  0  -0.346965  -0.607576  0  2.278622  0
O  O110  1  0.06443103  0.74293356  0.41895343  1  -1.183331  0  -0.346516  -0.607148  0  2.281703  0
O  O111  1  0.27160774  0.91946124  0.24231711  1  -1.172404  0  -0.346228  -0.607134  0  2.282383  0
O  O112  1  0.92738131  0.26381595  0.57473690  1  -1.172723  0  -0.347158  -0.607416  0  2.280739  0
O  O113  1  0.79728464  0.07262858  0.56186503  1  -1.220467  0  -0.693035  -1.067741  0  2.356266  0
O  O114  1  0.06637794  0.06279011  0.57133312  1  -1.240297  0  -0.695344  -1.06846  0  2.365484  0
O  O115  1  0.07102963  0.06702965  0.29808347  1  -1.229096  0  -0.69566  -1.071224  0  2.369729  0
O  O116  1  0.06152209  0.79913258  0.56617395  1  -1.225788  0  -0.694927  -1.069248  0  2.367165  0
O  O117  1  0.14789377  0.94725862  0.45314156  1  -1.20135  0  -0.79219  -1.149826  0  2.131657  0
O  O118  1  0.94929894  0.95464804  0.44649979  1  -1.197887  0  -0.789388  -1.147023  0  2.123484  0
O  O119  1  0.95266230  0.14882721  0.45024721  1  -1.194259  0  -0.792335  -1.149975  0  2.136747  0
O  O120  1  0.94615384  0.95108211  0.64798789  1  -1.19728  0  -0.791528  -1.149781  0  2.132892  0
