# generated using pymatgen
data_CdH28C28(N5O3)2
_symmetry_space_group_name_H-M   'P 1'
_cell_length_a   9.03694643
_cell_length_b   9.45219920
_cell_length_c   9.88779881
_cell_angle_alpha   79.46585497
_cell_angle_beta   62.92455495
_cell_angle_gamma   81.49468743
_symmetry_Int_Tables_number   1
_chemical_formula_structural   CdH28C28(N5O3)2
_chemical_formula_sum   'Cd1 H28 C28 N10 O6'
_cell_volume   737.34770823
_cell_formula_units_Z   1
loop_
 _symmetry_equiv_pos_site_id
 _symmetry_equiv_pos_as_xyz
  1  'x, y, z'
loop_
 _atom_site_type_symbol
 _atom_site_label
 _atom_site_symmetry_multiplicity
 _atom_site_fract_x
 _atom_site_fract_y
 _atom_site_fract_z
 _atom_site_occupancy
 _atom_site_hle17_bader_spin_density
 _atom_site_hle17_ddec_charge
 _atom_site_hle17_ddec_spin_density
 _atom_site_hle17_ddec_sum_bond_order
 _atom_site_hle17_magmom
 _atom_site_hse06_10hf_bader_spin_density
 _atom_site_hse06_10hf_ddec_charge
 _atom_site_hse06_10hf_ddec_spin_density
 _atom_site_hse06_10hf_ddec_sum_bond_order
 _atom_site_hse06_10hf_magmom
 _atom_site_hse06_bader_spin_density
 _atom_site_hse06_ddec_charge
 _atom_site_hse06_ddec_spin_density
 _atom_site_hse06_ddec_sum_bond_order
 _atom_site_hse06_magmom
 _atom_site_pbe_bader_spin_density
 _atom_site_pbe_cm5_charge
 _atom_site_pbe_ddec_charge
 _atom_site_pbe_ddec_spin_density
 _atom_site_pbe_ddec_sum_bond_order
 _atom_site_pbe_magmom
Cd  Cd0  1  0.99999959  0.50000031  0.49999930  1  0  1.04228  0  1.824052  0  0  0.840288  0  2.280847  0  0  0.887825  0  2.239901  0  0  0.795484  0.804567  0  2.311567  0
H  H1  1  0.01040618  0.51358765  0.14360514  1  0  0.106565  0  0.961067  0  0  0.114724  0  1.02325  0  0  0.117615  0  1.021449  0  0  0.116685  0.112426  0  1.02495  0
H  H2  1  0.98959651  0.48641599  0.85638929  1  0  0.106587  0  0.961056  0  0  0.114746  0  1.023236  0  0  0.117637  0  1.021435  0  0  0.116708  0.112447  0  1.024937  0
H  H3  1  0.18879873  0.30471998  0.94664179  1  0  0.121616  0  0.971538  0  0  0.126381  0  1.04117  0  0  0.130027  0  1.038273  0  0  0.120807  0.123314  0  1.044224  0
H  H4  1  0.81120423  0.69528039  0.05335507  1  0  0.121653  0  0.971663  0  0  0.126433  0  1.041261  0  0  0.130083  0  1.038366  0  0  0.120817  0.123366  0  1.044314  0
H  H5  1  0.26222468  0.20747709  0.34879176  1  0  0.10403  0  0.94083  0  0  0.10733  0  1.014193  0  0  0.110679  0  1.010263  0  0  0.13488  0.10454  0  1.017806  0
H  H6  1  0.73776947  0.79252431  0.65121057  1  0  0.103956  0  0.940908  0  0  0.107262  0  1.014281  0  0  0.110612  0  1.010345  0  0  0.13487  0.104468  0  1.017901  0
H  H7  1  0.19815788  0.95828954  0.12976451  1  0  0.127931  0  0.963534  0  0  0.131785  0  1.034157  0  0  0.136006  0  1.030701  0  0  0.10886  0.12861  0  1.036657  0
H  H8  1  0.80184132  0.04171076  0.87023796  1  0  0.127942  0  0.963518  0  0  0.131793  0  1.034143  0  0  0.136025  0  1.030675  0  0  0.108867  0.128618  0  1.036643  0
H  H9  1  0.54427174  0.36996454  0.93355496  1  0  0.107811  0  0.965631  0  0  0.12678  0  1.032768  0  0  0.127676  0  1.033851  0  0  0.089565  0.125999  0  1.031943  0
H  H10  1  0.45572737  0.63003685  0.06644635  1  0  0.107793  0  0.965611  0  0  0.126756  0  1.032759  0  0  0.127654  0  1.033841  0  0  0.089555  0.125975  0  1.031932  0
H  H11  1  0.74049052  0.28812953  0.91868576  1  0  0.120489  0  0.954929  0  0  0.140741  0  1.016701  0  0  0.141677  0  1.017474  0  0  0.094495  0.140257  0  1.015641  0
H  H12  1  0.25950868  0.71187078  0.08131568  1  0  0.120451  0  0.954932  0  0  0.140684  0  1.016728  0  0  0.141623  0  1.0175  0  0  0.094461  0.140201  0  1.01567  0
H  H13  1  0.57194524  0.30780308  0.10087377  1  0  0.099879  0  0.957538  0  0  0.121715  0  1.022487  0  0  0.122395  0  1.022861  0  0  0.088944  0.121091  0  1.023086  0
H  H14  1  0.42805283  0.69219618  0.89912628  1  0  0.099862  0  0.957512  0  0  0.121686  0  1.022471  0  0  0.122366  0  1.022845  0  0  0.088929  0.121063  0  1.023068  0
H  H15  1  0.13574036  0.82439775  0.49989970  1  0  0.107621  0  0.934057  0  0  0.117545  0  0.995278  0  0  0.120027  0  0.992034  0  0  0.139539  0.115523  0  0.997867  0
H  H16  1  0.86425778  0.17560036  0.50010558  1  0  0.107613  0  0.934086  0  0  0.117515  0  0.995335  0  0  0.12003  0  0.992047  0  0  0.13954  0.115493  0  0.997924  0
H  H17  1  0.43463730  0.45628431  0.31675442  1  0  0.095045  0  0.956082  0  0  0.105734  0  1.015572  0  0  0.108022  0  1.014522  0  0  0.114156  0.103651  0  1.017292  0
H  H18  1  0.56536203  0.54371499  0.68324309  1  0  0.095069  0  0.956057  0  0  0.105756  0  1.015554  0  0  0.108044  0  1.014502  0  0  0.114163  0.103673  0  1.017275  0
H  H19  1  0.63363732  0.64174742  0.34170077  1  0  0.127552  0  0.980379  0  0  0.133521  0  1.047138  0  0  0.137324  0  1.044189  0  0  0.118989  0.1296  0  1.051268  0
H  H20  1  0.36636324  0.35825185  0.65829827  1  0  0.127567  0  0.980364  0  0  0.133531  0  1.047123  0  0  0.137333  0  1.044177  0  0  0.119003  0.129611  0  1.051253  0
H  H21  1  0.63101523  0.93616156  0.23638353  1  0  0.110983  0  0.957399  0  0  0.119189  0  1.025483  0  0  0.121538  0  1.025693  0  0  0.105774  0.117683  0  1.024832  0
H  H22  1  0.36898542  0.06383661  0.76361666  1  0  0.110999  0  0.957378  0  0  0.119221  0  1.025444  0  0  0.121568  0  1.025657  0  0  0.105781  0.117719  0  1.024787  0
H  H23  1  0.11001572  0.87237361  0.74024294  1  0  0.119287  0  0.956689  0  0  0.137302  0  1.024279  0  0  0.138509  0  1.024061  0  0  0.093237  0.136223  0  1.0245  0
H  H24  1  0.88998473  0.12762672  0.25975698  1  0  0.119328  0  0.956691  0  0  0.137329  0  1.024289  0  0  0.138557  0  1.024055  0  0  0.09326  0.136262  0  1.024501  0
H  H25  1  0.21006594  0.85829347  0.85869104  1  0  0.123966  0  0.950847  0  0  0.14894  0  1.005424  0  0  0.150206  0  1.005597  0  0  0.096368  0.14794  0  1.005228  0
H  H26  1  0.78993471  0.14170470  0.14130915  1  0  0.123991  0  0.950826  0  0  0.148964  0  1.005399  0  0  0.15023  0  1.005574  0  0  0.096372  0.147964  0  1.005203  0
H  H27  1  0.25030166  0.72048753  0.74184849  1  0  0.104144  0  0.948721  0  0  0.125147  0  1.009771  0  0  0.126313  0  1.010141  0  0  0.088966  0.124211  0  1.009762  0
H  H28  1  0.74969756  0.27951280  0.25815194  1  0  0.104143  0  0.94873  0  0  0.125147  0  1.009778  0  0  0.126312  0  1.010154  0  0  0.088961  0.12421  0  1.00977  0
C  C29  1  0.09075820  0.41967947  0.15524875  1  0  -0.001533  0  3.748739  0  0  -0.031857  0  4.009157  0  0  -0.030436  0  4.029675  0  0  -0.003987  -0.032753  0  3.994578  0
C  C30  1  0.90924209  0.58032308  0.84474684  1  0  -0.001514  0  3.748601  0  0  -0.031832  0  4.009034  0  0  -0.03041  0  4.029555  0  0  -0.003992  -0.032727  0  3.994455  0
C  C31  1  0.18006774  0.32017358  0.05609467  1  0  -0.052061  0  3.645899  0  0  -0.088356  0  3.896364  0  0  -0.086957  0  3.914846  0  0  0.006134  -0.089137  0  3.884538  0
C  C32  1  0.81993388  0.67982786  0.94390257  1  0  -0.05215  0  3.646104  0  0  -0.088523  0  3.896529  0  0  -0.087131  0  3.915018  0  0  0.0061  -0.089303  0  3.884701  0
C  C33  1  0.21967869  0.26569865  0.26613730  1  0  0.163458  0  3.650504  0  0  0.1026  0  3.917713  0  0  0.116793  0  3.928341  0  0  0.142106  0.093144  0  3.911451  0
C  C34  1  0.78031672  0.73430278  0.73386249  1  0  0.163656  0  3.650557  0  0  0.102732  0  3.91774  0  0  0.116927  0  3.928364  0  0  0.142128  0.093278  0  3.911486  0
C  C35  1  0.55247755  0.13851684  0.99140555  1  0  0.094962  0  3.739613  0  0  0.112363  0  3.986975  0  0  0.112178  0  4.011125  0  0  -0.002511  0.112732  0  3.969812  0
C  C36  1  0.44752175  0.86148238  0.00859705  1  0  0.094978  0  3.739607  0  0  0.112333  0  3.987042  0  0  0.112148  0  4.011189  0  0  -0.002495  0.112702  0  3.969878  0
C  C37  1  0.38364834  0.10932740  0.06218170  1  0  0.109947  0  3.754015  0  0  0.097244  0  4.004795  0  0  0.100425  0  4.028325  0  0  0.088037  0.095663  0  3.987787  0
C  C38  1  0.61635088  0.89067294  0.93781771  1  0  0.110002  0  3.75397  0  0  0.097247  0  4.00476  0  0  0.100427  0  4.028293  0  0  0.088064  0.095666  0  3.987752  0
C  C39  1  0.33100950  0.97497087  0.07165421  1  0  -0.177401  0  3.696806  0  0  -0.205411  0  3.951589  0  0  -0.208555  0  3.97008  0  0  -0.084893  -0.203011  0  3.938093  0
C  C40  1  0.66899087  0.02503055  0.92834456  1  0  -0.177425  0  3.696756  0  0  -0.205441  0  3.951534  0  0  -0.208598  0  3.970024  0  0  -0.084898  -0.203044  0  3.938046  0
C  C41  1  0.60549161  0.28370482  0.98529781  1  0  -0.330268  0  3.726721  0  0  -0.415528  0  3.967245  0  0  -0.417435  0  3.978037  0  0  -0.243745  -0.413643  0  3.959193  0
C  C42  1  0.39450636  0.71629551  0.01470313  1  0  -0.330192  0  3.726677  0  0  -0.415418  0  3.967226  0  0  -0.417328  0  3.978019  0  0  -0.243704  -0.413533  0  3.959176  0
C  C43  1  0.24169642  0.74709911  0.45482693  1  0  0.179065  0  3.640458  0  0  0.117195  0  3.907481  0  0  0.131404  0  3.920067  0  0  0.144517  0.107487  0  3.898717  0
C  C44  1  0.75830296  0.25289902  0.54517682  1  0  0.179118  0  3.640514  0  0  0.117274  0  3.907524  0  0  0.131458  0  3.920097  0  0  0.144537  0.107568  0  3.898759  0
C  C45  1  0.40255502  0.56143866  0.35583857  1  0  0.004892  0  3.773669  0  0  -0.025657  0  4.039351  0  0  -0.023559  0  4.059438  0  0  -0.005706  -0.027326  0  4.026239  0
C  C46  1  0.59744678  0.43856062  0.64415894  1  0  0.00491  0  3.77366  0  0  -0.025639  0  4.039337  0  0  -0.023541  0  4.059419  0  0  -0.005667  -0.027309  0  4.026228  0
C  C47  1  0.50312136  0.65102162  0.36510730  1  0  -0.070736  0  3.655728  0  0  -0.11135  0  3.914135  0  0  -0.110515  0  3.93283  0  0  -0.002328  -0.111612  0  3.902416  0
C  C48  1  0.49687911  0.34897873  0.63489161  1  0  -0.070753  0  3.655702  0  0  -0.111361  0  3.914109  0  0  -0.110527  0  3.932803  0  0  -0.002376  -0.111623  0  3.902393  0
C  C49  1  0.44655063  0.88676603  0.46801522  1  0  0.115782  0  3.756008  0  0  0.103739  0  4.00351  0  0  0.107354  0  4.026659  0  0  0.089274  0.101277  0  3.988098  0
C  C50  1  0.55345257  0.11323102  0.53198713  1  0  0.11575  0  3.755969  0  0  0.103609  0  4.003573  0  0  0.107221  0  4.026726  0  0  0.089223  0.101146  0  3.988162  0
C  C51  1  0.57477648  0.96539608  0.35205078  1  0  -0.178754  0  3.723687  0  0  -0.210199  0  3.98128  0  0  -0.214146  0  4.003487  0  0  -0.091314  -0.208029  0  3.966782  0
C  C52  1  0.42522673  0.03460098  0.64795056  1  0  -0.178772  0  3.723725  0  0  -0.210199  0  3.981363  0  0  -0.214148  0  4.003576  0  0  -0.091329  -0.208031  0  3.96687  0
C  C53  1  0.36752095  0.91918550  0.61963135  1  0  0.090192  0  3.745942  0  0  0.109385  0  3.991228  0  0  0.108848  0  4.015579  0  0  -0.007663  0.109603  0  3.975222  0
C  C54  1  0.63248217  0.08081265  0.38036985  1  0  0.09026  0  3.74584  0  0  0.109516  0  3.991089  0  0  0.108979  0  4.015444  0  0  -0.007646  0.109736  0  3.975083  0
C  C55  1  0.22830492  0.83733047  0.74664106  1  0  -0.340693  0  3.737304  0  0  -0.426189  0  3.976976  0  0  -0.428154  0  3.987125  0  0  -0.244875  -0.424323  0  3.970103  0
C  C56  1  0.77169553  0.16266985  0.25335988  1  0  -0.340778  0  3.737324  0  0  -0.426275  0  3.976994  0  0  -0.428266  0  3.987124  0  0  -0.244899  -0.424421  0  3.97011  0
N  N57  1  0.11655974  0.38411155  0.28515211  1  0  -0.377532  0  3.273166  0  0  -0.303  0  3.557745  0  0  -0.322839  0  3.575572  0  0  -0.358109  -0.288914  0  3.544871  0
N  N58  1  0.88343806  0.61589099  0.71484551  1  0  -0.37762  0  3.273117  0  0  -0.303093  0  3.557726  0  0  -0.322931  0  3.575552  0  0  -0.358132  -0.289006  0  3.544852  0
N  N59  1  0.26112740  0.22323552  0.12816106  1  0  -0.087622  0  3.603081  0  0  0.005186  0  3.809944  0  0  -0.009388  0  3.836182  0  0  -0.227806  0.014696  0  3.792317  0
N  N60  1  0.73887058  0.77676483  0.87183886  1  0  -0.087692  0  3.603121  0  0  0.005301  0  3.809785  0  0  -0.009271  0  3.836026  0  0  -0.227795  0.014813  0  3.792158  0
N  N61  1  0.24059421  0.62254581  0.41130590  1  0  -0.382416  0  3.232471  0  0  -0.309506  0  3.514585  0  0  -0.329536  0  3.532451  0  0  -0.358411  -0.29466  0  3.502049  0
N  N62  1  0.75940633  0.37745342  0.58869517  1  0  -0.382469  0  3.232464  0  0  -0.309567  0  3.514579  0  0  -0.329598  0  3.532452  0  0  -0.358446  -0.29472  0  3.502044  0
N  N63  1  0.07746114  0.21058122  0.70118099  1  0  0.690307  0  4.151679  0  0  0.737678  0  4.430862  0  0  0.766019  0  4.435514  0  0  0.094283  0.718569  0  4.427407  0
N  N64  1  0.92253932  0.78941913  0.29881791  1  0  0.690309  0  4.151627  0  0  0.737623  0  4.430883  0  0  0.765965  0  4.435525  0  0  0.094247  0.718516  0  4.427422  0
N  N65  1  0.39844570  0.76827065  0.42966532  1  0  -0.08767  0  3.606775  0  0  0.004446  0  3.816427  0  0  -0.010268  0  3.842613  0  0  -0.229135  0.014411  0  3.798372  0
N  N66  1  0.60155485  0.23172859  0.57033575  1  0  -0.087679  0  3.606765  0  0  0.004465  0  3.816417  0  0  -0.010252  0  3.84261  0  0  -0.229081  0.014431  0  3.798362  0
O  O67  1  0.14781023  0.32758974  0.62132901  1  0  -0.539656  0  1.794062  0  0  -0.520646  0  2.033602  0  0  -0.537781  0  2.02331  0  0  -0.231364  -0.507642  0  2.041378  0
O  O68  1  0.85218774  0.67241059  0.37867193  1  0  -0.539678  0  1.79405  0  0  -0.520633  0  2.033592  0  0  -0.537785  0  2.023325  0  0  -0.231379  -0.507634  0  2.041364  0
O  O69  1  0.03918335  0.12703733  0.63845558  1  0  -0.464561  0  1.737577  0  0  -0.464715  0  1.944227  0  0  -0.478371  0  1.938724  0  0  -0.190442  -0.454874  0  1.948347  0
O  O70  1  0.96082103  0.87296087  0.36154206  1  0  -0.464559  0  1.737565  0  0  -0.464692  0  1.944225  0  0  -0.478343  0  1.938716  0  0  -0.190421  -0.454852  0  1.948344  0
O  O71  1  0.05034828  0.18374030  0.83961703  1  0  -0.455787  0  1.70902  0  0  -0.454416  0  1.909347  0  0  -0.467013  0  1.903183  0  0  -0.191082  -0.445028  0  1.913549  0
O  O72  1  0.94965094  0.81626004  0.16038238  1  0  -0.45577  0  1.708989  0  0  -0.45438  0  1.909332  0  0  -0.466977  0  1.903173  0  0  -0.191053  -0.44499  0  1.913532  0
