# generated using pymatgen
data_ZnH22C20(NO2)2
_symmetry_space_group_name_H-M   'P 1'
_cell_length_a   7.88912641
_cell_length_b   8.01076491
_cell_length_c   14.81969585
_cell_angle_alpha   89.99890337
_cell_angle_beta   90.00114689
_cell_angle_gamma   92.86109203
_symmetry_Int_Tables_number   1
_chemical_formula_structural   ZnH22C20(NO2)2
_chemical_formula_sum   'Zn2 H44 C40 N4 O8'
_cell_volume   935.40674876
_cell_formula_units_Z   2
loop_
 _symmetry_equiv_pos_site_id
 _symmetry_equiv_pos_as_xyz
  1  'x, y, z'
loop_
 _atom_site_type_symbol
 _atom_site_label
 _atom_site_symmetry_multiplicity
 _atom_site_fract_x
 _atom_site_fract_y
 _atom_site_fract_z
 _atom_site_occupancy
 _atom_site_hle17_bader_spin_density
 _atom_site_hle17_ddec_charge
 _atom_site_hle17_ddec_spin_density
 _atom_site_hle17_ddec_sum_bond_order
 _atom_site_hle17_magmom
 _atom_site_hse06_10hf_bader_spin_density
 _atom_site_hse06_10hf_ddec_charge
 _atom_site_hse06_10hf_ddec_spin_density
 _atom_site_hse06_10hf_ddec_sum_bond_order
 _atom_site_hse06_10hf_magmom
 _atom_site_hse06_bader_spin_density
 _atom_site_hse06_ddec_charge
 _atom_site_hse06_ddec_spin_density
 _atom_site_hse06_ddec_sum_bond_order
 _atom_site_hse06_magmom
 _atom_site_pbe_bader_spin_density
 _atom_site_pbe_cm5_charge
 _atom_site_pbe_ddec_charge
 _atom_site_pbe_ddec_spin_density
 _atom_site_pbe_ddec_sum_bond_order
 _atom_site_pbe_magmom
Zn  Zn0  1  0.97256773  0.77655553  0.99992879  1  0  1.007287  0  1.897709  0  0  0.825318  0  2.346763  0  0  0.87372  0  2.293332  0  0  0.6676  0.791717  0  2.383172  0
Zn  Zn1  1  0.02744854  0.22343674  0.49992959  1  0  1.007102  0  1.897923  0  0  0.825228  0  2.34692  0  0  0.873631  0  2.293492  0  0  0.667544  0.791624  0  2.383326  0
H  H2  1  0.60040339  0.63648118  0.75985882  1  0  0.119895  0  0.943829  0  0  0.142023  0  1.003074  0  0  0.144207  0  1.002068  0  0  0.094268  0.140488  0  1.003755  0
H  H3  1  0.39958047  0.36350339  0.25985503  1  0  0.11994  0  0.943727  0  0  0.14208  0  1.00294  0  0  0.144259  0  1.00194  0  0  0.094334  0.140546  0  1.003618  0
H  H4  1  0.68332194  0.44227293  0.78797154  1  0  0.118202  0  0.956623  0  0  0.139227  0  1.018838  0  0  0.141061  0  1.018763  0  0  0.092322  0.137913  0  1.018917  0
H  H5  1  0.31665030  0.55771182  0.28798098  1  0  0.118379  0  0.956529  0  0  0.139298  0  1.018828  0  0  0.141127  0  1.018759  0  0  0.092386  0.137982  0  1.018914  0
H  H6  1  0.75789781  0.55142125  0.68946393  1  0  0.114285  0  0.983639  0  0  0.133076  0  1.046577  0  0  0.134355  0  1.048147  0  0  0.085606  0.132148  0  1.04552  0
H  H7  1  0.24210192  0.44858332  0.18947173  1  0  0.114294  0  0.983786  0  0  0.133077  0  1.04671  0  0  0.134357  0  1.048278  0  0  0.085611  0.132151  0  1.045651  0
H  H8  1  0.00357847  0.71718190  0.70314893  1  0  0.114716  0  0.983671  0  0  0.124685  0  1.045174  0  0  0.127671  0  1.047554  0  0  0.089713  0.122627  0  1.043636  0
H  H9  1  0.99641136  0.28281585  0.20314221  1  0  0.1147  0  0.983641  0  0  0.124713  0  1.045083  0  0  0.127703  0  1.047455  0  0  0.089715  0.122649  0  1.043548  0
H  H10  1  0.38326382  0.88041754  0.79531458  1  0  0.120278  0  0.943267  0  0  0.141933  0  1.002294  0  0  0.144331  0  1.000925  0  0  0.093205  0.1402  0  1.003303  0
H  H11  1  0.61673244  0.11959227  0.29532650  1  0  0.120354  0  0.943305  0  0  0.142032  0  1.002289  0  0  0.144428  0  1.000923  0  0  0.093233  0.140296  0  1.003298  0
H  H12  1  0.26383814  0.04275486  0.75107664  1  0  0.122515  0  0.966508  0  0  0.142571  0  1.029601  0  0  0.14439  0  1.029899  0  0  0.092244  0.141288  0  1.02939  0
H  H13  1  0.73616874  0.95724404  0.25109771  1  0  0.122497  0  0.966577  0  0  0.142583  0  1.029657  0  0  0.144401  0  1.029958  0  0  0.092248  0.141299  0  1.029445  0
H  H14  1  0.26659994  0.84845034  0.69241931  1  0  0.113113  0  0.963904  0  0  0.13235  0  1.025461  0  0  0.133951  0  1.026068  0  0  0.086433  0.131173  0  1.025125  0
H  H15  1  0.73338739  0.15155898  0.19242268  1  0  0.113148  0  0.963802  0  0  0.132349  0  1.025404  0  0  0.133949  0  1.026014  0  0  0.086439  0.131174  0  1.025062  0
H  H16  1  0.68239672  0.46809657  0.21821004  1  0  0.121705  0  0.949799  0  0  0.143575  0  1.007809  0  0  0.145882  0  1.00678  0  0  0.092229  0.141878  0  1.008624  0
H  H17  1  0.31757858  0.53190424  0.71821600  1  0  0.121682  0  0.949768  0  0  0.143585  0  1.007757  0  0  0.14588  0  1.006739  0  0  0.092255  0.141895  0  1.008568  0
H  H18  1  0.63694289  0.66716398  0.26194984  1  0  0.115938  0  0.943166  0  0  0.137104  0  1.00428  0  0  0.139424  0  1.003056  0  0  0.091909  0.135476  0  1.005124  0
H  H19  1  0.36302700  0.33281784  0.76195235  1  0  0.115867  0  0.943182  0  0  0.137054  0  1.004285  0  0  0.139371  0  1.003065  0  0  0.091918  0.135431  0  1.005121  0
H  H20  1  0.79535057  0.55097490  0.31464470  1  0  0.116181  0  0.975338  0  0  0.133928  0  1.039399  0  0  0.135027  0  1.041678  0  0  0.087202  0.133131  0  1.037854  0
H  H21  1  0.20462995  0.44903531  0.81464900  1  0  0.116012  0  0.975492  0  0  0.133845  0  1.039488  0  0  0.134947  0  1.041768  0  0  0.08719  0.13305  0  1.037939  0
H  H22  1  0.01907930  0.74750460  0.29763108  1  0  0.113507  0  0.985971  0  0  0.124039  0  1.047831  0  0  0.126977  0  1.050202  0  0  0.08948  0.121985  0  1.046337  0
H  H23  1  0.98092597  0.25250649  0.79763762  1  0  0.113473  0  0.985875  0  0  0.123925  0  1.047846  0  0  0.126846  0  1.050241  0  0  0.089437  0.121896  0  1.046317  0
H  H24  1  0.31051021  0.06324645  0.21013787  1  0  0.12001  0  0.957824  0  0  0.140878  0  1.018757  0  0  0.142555  0  1.019038  0  0  0.092705  0.13966  0  1.018608  0
H  H25  1  0.68951496  0.93677402  0.71013331  1  0  0.120157  0  0.957701  0  0  0.141024  0  1.018612  0  0  0.142699  0  1.018897  0  0  0.092735  0.139809  0  1.018467  0
H  H26  1  0.38574900  0.86035911  0.22606550  1  0  0.117392  0  0.942591  0  0  0.139964  0  1.001014  0  0  0.142176  0  0.999974  0  0  0.093465  0.138412  0  1.001725  0
H  H27  1  0.61425369  0.13965430  0.72607206  1  0  0.117441  0  0.942656  0  0  0.140013  0  1.001067  0  0  0.142227  0  1.000027  0  0  0.093505  0.138465  0  1.001776  0
H  H28  1  0.24666700  0.94338847  0.30706058  1  0  0.117305  0  0.977905  0  0  0.136479  0  1.039741  0  0  0.138001  0  1.040702  0  0  0.088182  0.13535  0  1.039151  0
H  H29  1  0.75336652  0.05662268  0.80705939  1  0  0.117324  0  0.977927  0  0  0.136495  0  1.039773  0  0  0.138017  0  1.040735  0  0  0.088182  0.135368  0  1.039185  0
H  H30  1  0.95240738  0.14905070  0.94745959  1  0  0.077122  0  0.961928  0  0  0.084104  0  1.030963  0  0  0.086555  0  1.029075  0  0  0.115661  0.082264  0  1.032474  0
H  H31  1  0.04759476  0.85096418  0.44747113  1  0  0.077197  0  0.961848  0  0  0.08419  0  1.03089  0  0  0.086646  0  1.028994  0  0  0.115709  0.082352  0  1.032399  0
H  H32  1  0.74554829  0.37444078  0.94651395  1  0  0.116817  0  0.977903  0  0  0.123659  0  1.042891  0  0  0.127481  0  1.041233  0  0  0.109582  0.120907  0  1.044234  0
H  H33  1  0.25444062  0.62556022  0.44652268  1  0  0.116876  0  0.97787  0  0  0.123712  0  1.042869  0  0  0.127537  0  1.041195  0  0  0.109582  0.120956  0  1.044218  0
H  H34  1  0.37266736  0.00614140  0.05075670  1  0  0.11879  0  0.998054  0  0  0.123581  0  1.064694  0  0  0.128188  0  1.061916  0  0  0.108075  0.120276  0  1.066806  0
H  H35  1  0.62733764  0.99387154  0.55077313  1  0  0.118849  0  0.997904  0  0  0.123604  0  1.064544  0  0  0.128201  0  1.061785  0  0  0.108098  0.120298  0  1.066658  0
H  H36  1  0.60354839  0.80745766  0.05724566  1  0  0.082418  0  0.95349  0  0  0.089744  0  1.018074  0  0  0.092178  0  1.016678  0  0  0.117116  0.087913  0  1.019217  0
H  H37  1  0.39644328  0.19253116  0.55725340  1  0  0.082485  0  0.9535  0  0  0.089809  0  1.018079  0  0  0.092247  0  1.016688  0  0  0.117163  0.087976  0  1.019224  0
H  H38  1  0.57817349  0.54954076  0.95537735  1  0  0.121687  0  0.990569  0  0  0.125787  0  1.057913  0  0  0.130584  0  1.054797  0  0  0.108015  0.122358  0  1.060255  0
H  H39  1  0.42182016  0.45044252  0.45538838  1  0  0.121675  0  0.99053  0  0  0.125794  0  1.057856  0  0  0.130593  0  1.054734  0  0  0.108014  0.122364  0  1.060196  0
H  H40  1  0.35016912  0.75071438  0.95575766  1  0  0.077877  0  0.965388  0  0  0.084554  0  1.032872  0  0  0.086864  0  1.031611  0  0  0.11559  0.082795  0  1.033926  0
H  H41  1  0.64983938  0.24929282  0.45576517  1  0  0.0779  0  0.9654  0  0  0.084557  0  1.032897  0  0  0.086913  0  1.031573  0  0  0.115556  0.082798  0  1.033959  0
H  H42  1  0.99084717  0.39662672  0.04296892  1  0  0.074897  0  0.962914  0  0  0.081337  0  1.032239  0  0  0.083725  0  1.030668  0  0  0.113854  0.079598  0  1.03344  0
H  H43  1  0.00915920  0.60336276  0.54297692  1  0  0.074845  0  0.96294  0  0  0.08133  0  1.032222  0  0  0.083718  0  1.030657  0  0  0.113867  0.079585  0  1.033429  0
H  H44  1  0.19741161  0.17117915  0.04152190  1  0  0.121506  0  0.972695  0  0  0.127324  0  1.038329  0  0  0.131435  0  1.036099  0  0  0.110907  0.12436  0  1.040099  0
H  H45  1  0.80259832  0.82880543  0.54152982  1  0  0.121495  0  0.972667  0  0  0.127261  0  1.038379  0  0  0.131367  0  1.03615  0  0  0.110884  0.124294  0  1.040156  0
C  C46  1  0.71668583  0.56596398  0.75935710  1  0  -0.411673  0  3.695546  0  0  -0.492022  0  3.930836  0  0  -0.49774  0  3.935182  0  0  -0.250384  -0.487891  0  3.927545  0
C  C47  1  0.28330454  0.43402569  0.25936415  1  0  -0.411813  0  3.695852  0  0  -0.492078  0  3.931086  0  0  -0.497794  0  3.935437  0  0  -0.250424  -0.487961  0  3.927805  0
C  C48  1  0.84871118  0.65735283  0.81738752  1  0  0.517695  0  3.769444  0  0  0.504811  0  4.034827  0  0  0.532439  0  4.039005  0  0  0.117718  0.486426  0  4.031159  0
C  C49  1  0.15128388  0.34263625  0.31738335  1  0  0.517703  0  3.769755  0  0  0.50499  0  4.034914  0  0  0.532626  0  4.039091  0  0  0.11774  0.486606  0  4.031235  0
C  C50  1  0.98988641  0.73877714  0.77523919  1  0  -0.465566  0  3.706097  0  0  -0.481778  0  3.960621  0  0  -0.508194  0  3.981695  0  0  -0.1635  -0.46421  0  3.946004  0
C  C51  1  0.01010641  0.26122827  0.27523642  1  0  -0.465554  0  3.706293  0  0  -0.481805  0  3.960749  0  0  -0.508226  0  3.981812  0  0  -0.16342  -0.464234  0  3.946133  0
C  C52  1  0.11532867  0.84589216  0.81586909  1  0  0.518464  0  3.769987  0  0  0.506363  0  4.035236  0  0  0.533631  0  4.039874  0  0  0.119022  0.488165  0  4.031338  0
C  C53  1  0.88467346  0.15411829  0.31587134  1  0  0.518408  0  3.769991  0  0  0.506255  0  4.03532  0  0  0.533543  0  4.039954  0  0  0.118895  0.488057  0  4.031421  0
C  C54  1  0.26558695  0.90659441  0.75933399  1  0  -0.410139  0  3.693087  0  0  -0.489717  0  3.928468  0  0  -0.495268  0  3.932194  0  0  -0.249311  -0.485711  0  3.925706  0
C  C55  1  0.73440393  0.09340901  0.25934137  1  0  -0.41017  0  3.693089  0  0  -0.489783  0  3.928528  0  0  -0.495335  0  3.93225  0  0  -0.249294  -0.485774  0  3.925768  0
C  C56  1  0.73954124  0.58151698  0.24943170  1  0  -0.409825  0  3.695264  0  0  -0.489686  0  3.931993  0  0  -0.495504  0  3.936344  0  0  -0.248949  -0.485496  0  3.928788  0
C  C57  1  0.26044167  0.41848666  0.74943962  1  0  -0.409607  0  3.695372  0  0  -0.4896  0  3.932162  0  0  -0.49542  0  3.936503  0  0  -0.248999  -0.485412  0  3.928926  0
C  C58  1  0.86768943  0.66515483  0.18603386  1  0  0.513407  0  3.77769  0  0  0.501892  0  4.042869  0  0  0.529369  0  4.046631  0  0  0.117748  0.483545  0  4.039596  0
C  C59  1  0.13231388  0.33484740  0.68604133  1  0  0.513308  0  3.77791  0  0  0.501719  0  4.043191  0  0  0.529232  0  4.046897  0  0  0.117555  0.48337  0  4.039919  0
C  C60  1  0.00696875  0.75665380  0.22466523  1  0  -0.468606  0  3.713633  0  0  -0.486571  0  3.969411  0  0  -0.512969  0  3.990368  0  0  -0.165458  -0.468988  0  3.954903  0
C  C61  1  0.99302350  0.24337704  0.72467143  1  0  -0.468588  0  3.71333  0  0  -0.486512  0  3.969081  0  0  -0.512927  0  3.990031  0  0  -0.165435  -0.468942  0  3.954547  0
C  C62  1  0.12862904  0.86203814  0.18037695  1  0  0.521351  0  3.764235  0  0  0.508409  0  4.029765  0  0  0.535801  0  4.034565  0  0  0.118668  0.490179  0  4.025715  0
C  C63  1  0.87137702  0.13797556  0.68037277  1  0  0.521466  0  3.764058  0  0  0.508718  0  4.029285  0  0  0.53614  0  4.034046  0  0  0.118855  0.490475  0  4.025257  0
C  C64  1  0.27512879  0.93746327  0.23494052  1  0  -0.410506  0  3.696215  0  0  -0.48969  0  3.930722  0  0  -0.495453  0  3.935302  0  0  -0.249575  -0.485535  0  3.92731  0
C  C65  1  0.72488582  0.06255499  0.73494032  1  0  -0.410778  0  3.696361  0  0  -0.490003  0  3.930825  0  0  -0.495786  0  3.9354  0  0  -0.249617  -0.485847  0  3.927422  0
C  C66  1  0.82322402  0.12590803  0.97223484  1  0  0.114483  0  3.728419  0  0  0.085448  0  3.982278  0  0  0.091823  0  3.999223  0  0  0.044668  0.081314  0  3.970826  0
C  C67  1  0.17677996  0.87409732  0.47224008  1  0  0.114328  0  3.728543  0  0  0.085283  0  3.982394  0  0  0.091652  0  3.999348  0  0  0.044556  0.081151  0  3.970943  0
C  C68  1  0.70571069  0.24973959  0.97036847  1  0  -0.16417  0  3.691278  0  0  -0.18174  0  3.938778  0  0  -0.189001  0  3.958627  0  0  -0.081308  -0.177028  0  3.925534  0
C  C69  1  0.29429797  0.75025714  0.47036414  1  0  -0.164348  0  3.691224  0  0  -0.181933  0  3.938758  0  0  -0.189209  0  3.958639  0  0  -0.081351  -0.177223  0  3.925519  0
C  C70  1  0.53821162  0.21154475  0.99875029  1  0  0.094702  0  3.741056  0  0  0.107328  0  3.967102  0  0  0.110866  0  3.98935  0  0  0.011877  0.105073  0  3.951961  0
C  C71  1  0.46179562  0.78845352  0.49875137  1  0  0.094957  0  3.741493  0  0  0.107509  0  3.967414  0  0  0.11105  0  3.989654  0  0  0.012018  0.105263  0  3.952266  0
C  C72  1  0.49989787  0.04754746  0.02877222  1  0  -0.158672  0  3.682261  0  0  -0.175742  0  3.928187  0  0  -0.183164  0  3.948164  0  0  -0.080169  -0.170968  0  3.914935  0
C  C73  1  0.50011949  0.95244513  0.52877088  1  0  -0.158809  0  3.682045  0  0  -0.175821  0  3.928029  0  0  -0.183241  0  3.948009  0  0  -0.080255  -0.171038  0  3.91477  0
C  C74  1  0.62728504  0.93392592  0.03144093  1  0  0.126376  0  3.703147  0  0  0.097266  0  3.954851  0  0  0.103063  0  3.973265  0  0  0.047584  0.093523  0  3.942415  0
C  C75  1  0.37272495  0.06607023  0.53144640  1  0  0.126213  0  3.702656  0  0  0.097083  0  3.954361  0  0  0.102871  0  3.972784  0  0  0.047477  0.093342  0  3.941927  0
C  C76  1  0.40857298  0.33884917  0.99801813  1  0  0.096814  0  3.737907  0  0  0.109169  0  3.963464  0  0  0.112462  0  3.985693  0  0  0.013592  0.10709  0  3.948326  0
C  C77  1  0.59142512  0.66114276  0.49803410  1  0  0.096295  0  3.738338  0  0  0.108981  0  3.963419  0  0  0.112272  0  3.985649  0  0  0.013556  0.106894  0  3.948284  0
C  C78  1  0.44983071  0.50601163  0.97457568  1  0  -0.156329  0  3.673232  0  0  -0.172806  0  3.918846  0  0  -0.179995  0  3.938458  0  0  -0.079886  -0.168182  0  3.905821  0
C  C79  1  0.55016133  0.49397725  0.47459773  1  0  -0.156322  0  3.673306  0  0  -0.172873  0  3.918787  0  0  -0.180069  0  3.938424  0  0  -0.079962  -0.168237  0  3.905755  0
C  C80  1  0.32346919  0.62082602  0.97502379  1  0  0.125181  0  3.707321  0  0  0.097358  0  3.956839  0  0  0.102982  0  3.975494  0  0  0.046896  0.093743  0  3.944281  0
C  C81  1  0.67653207  0.37917170  0.47503762  1  0  0.1252  0  3.70727  0  0  0.097367  0  3.956838  0  0  0.102963  0  3.975491  0  0  0.046981  0.093742  0  3.944283  0
C  C82  1  0.12217068  0.42248926  0.02225660  1  0  0.113403  0  3.725571  0  0  0.085416  0  3.979552  0  0  0.09146  0  3.996723  0  0  0.044063  0.081476  0  3.967974  0
C  C83  1  0.87783648  0.57750840  0.52226868  1  0  0.11348  0  3.72531  0  0  0.085465  0  3.979317  0  0  0.091501  0  3.996492  0  0  0.044127  0.081542  0  3.967733  0
C  C84  1  0.23913975  0.29806852  0.02207705  1  0  -0.159961  0  3.682725  0  0  -0.176226  0  3.928934  0  0  -0.183016  0  3.948112  0  0  -0.079107  -0.171846  0  3.916179  0
C  C85  1  0.76085322  0.70192272  0.52209870  1  0  -0.159613  0  3.682405  0  0  -0.175958  0  3.9286  0  0  -0.182739  0  3.947777  0  0  -0.079073  -0.171577  0  3.915845  0
N  N86  1  0.78661440  0.97080607  0.00321698  1  0  -0.30362  0  3.252967  0  0  -0.233087  0  3.518122  0  0  -0.24869  0  3.533342  0  0  -0.316833  -0.222577  0  3.507703  0
N  N87  1  0.21339579  0.02918976  0.50321508  1  0  -0.303382  0  3.2531  0  0  -0.232842  0  3.518243  0  0  -0.248449  0  3.533469  0  0  -0.316725  -0.222336  0  3.507827  0
N  N88  1  0.16180562  0.58131595  0.99834212  1  0  -0.309524  0  3.255785  0  0  -0.239777  0  3.519263  0  0  -0.255464  0  3.535604  0  0  -0.317223  -0.229214  0  3.50813  0
N  N89  1  0.83819559  0.41869100  0.49834643  1  0  -0.309559  0  3.255903  0  0  -0.239829  0  3.51941  0  0  -0.255524  0  3.535775  0  0  -0.31725  -0.22927  0  3.508283  0
O  O90  1  0.81914072  0.65409449  0.90252071  1  0  -0.591118  0  2.058602  0  0  -0.517287  0  2.302817  0  0  -0.545299  0  2.294246  0  0  -0.306893  -0.497929  0  2.308158  0
O  O91  1  0.18085436  0.34587806  0.40251816  1  0  -0.591021  0  2.058342  0  0  -0.517485  0  2.302803  0  0  -0.545468  0  2.294146  0  0  -0.307041  -0.498096  0  2.308104  0
O  O92  1  0.11468256  0.89818722  0.89753850  1  0  -0.589952  0  2.028036  0  0  -0.521327  0  2.276973  0  0  -0.547648  0  2.267362  0  0  -0.312926  -0.503099  0  2.282966  0
O  O93  1  0.88530800  0.10183914  0.39755077  1  0  -0.589981  0  2.028051  0  0  -0.521266  0  2.276919  0  0  -0.547636  0  2.267337  0  0  -0.312893  -0.503047  0  2.282917  0
O  O94  1  0.83548836  0.64927836  0.10168454  1  0  -0.586876  0  2.038942  0  0  -0.517715  0  2.287723  0  0  -0.543983  0  2.277891  0  0  -0.310615  -0.499495  0  2.293844  0
O  O95  1  0.16452793  0.35068059  0.60169555  1  0  -0.58682  0  2.039177  0  0  -0.517523  0  2.287801  0  0  -0.543819  0  2.277961  0  0  -0.310438  -0.499301  0  2.293922  0
O  O96  1  0.12916538  0.89885054  0.09619622  1  0  -0.588794  0  2.060151  0  0  -0.515535  0  2.304619  0  0  -0.543252  0  2.295998  0  0  -0.305065  -0.496301  0  2.309769  0
O  O97  1  0.87085474  0.10114862  0.59619782  1  0  -0.588667  0  2.060024  0  0  -0.515607  0  2.30457  0  0  -0.543269  0  2.295825  0  0  -0.305183  -0.496389  0  2.309777  0
