# generated using pymatgen
data_ZnH22C18N2O7
_symmetry_space_group_name_H-M   'P 1'
_cell_length_a   5.95546477
_cell_length_b   8.11106837
_cell_length_c   20.29696292
_cell_angle_alpha   89.99810058
_cell_angle_beta   98.37357376
_cell_angle_gamma   90.00124512
_symmetry_Int_Tables_number   1
_chemical_formula_structural   ZnH22C18N2O7
_chemical_formula_sum   'Zn2 H44 C36 N4 O14'
_cell_volume   969.99651862
_cell_formula_units_Z   2
loop_
 _symmetry_equiv_pos_site_id
 _symmetry_equiv_pos_as_xyz
  1  'x, y, z'
loop_
 _atom_site_type_symbol
 _atom_site_label
 _atom_site_symmetry_multiplicity
 _atom_site_fract_x
 _atom_site_fract_y
 _atom_site_fract_z
 _atom_site_occupancy
 _atom_site_hle17_bader_spin_density
 _atom_site_hle17_ddec_charge
 _atom_site_hle17_ddec_spin_density
 _atom_site_hle17_ddec_sum_bond_order
 _atom_site_hle17_magmom
 _atom_site_hse06_10hf_bader_spin_density
 _atom_site_hse06_10hf_ddec_charge
 _atom_site_hse06_10hf_ddec_spin_density
 _atom_site_hse06_10hf_ddec_sum_bond_order
 _atom_site_hse06_10hf_magmom
 _atom_site_hse06_bader_spin_density
 _atom_site_hse06_ddec_charge
 _atom_site_hse06_ddec_spin_density
 _atom_site_hse06_ddec_sum_bond_order
 _atom_site_hse06_magmom
 _atom_site_pbe_bader_spin_density
 _atom_site_pbe_cm5_charge
 _atom_site_pbe_ddec_charge
 _atom_site_pbe_ddec_spin_density
 _atom_site_pbe_ddec_sum_bond_order
 _atom_site_pbe_magmom
Zn  Zn0  1  0.00051520  0.17523615  0.75366900  1  0  1.059667  0  1.760254  0  0  0.891793  0  2.203508  0  0  0.93708  0  2.151711  0  0  0.667539  0.859981  0  2.239127  0
Zn  Zn1  1  0.99945331  0.67522232  0.24632691  1  0  1.059591  0  1.760326  0  0  0.891727  0  2.203564  0  0  0.93701  0  2.151766  0  0  0.667533  0.859917  0  2.239169  0
H  H2  1  0.47539770  0.32071163  0.88998262  1  0  0.070768  0  0.917688  0  0  0.08072  0  0.978759  0  0  0.081778  0  0.979678  0  0  0.112335  0.079865  0  0.978383  0
H  H3  1  0.52458381  0.82070604  0.11001045  1  0  0.070702  0  0.917659  0  0  0.080657  0  0.97865  0  0  0.081714  0  0.979566  0  0  0.112312  0.079815  0  0.978251  0
H  H4  1  0.10519209  0.36296028  0.85759516  1  0  0.304586  0  0.947408  0  0  0.290444  0  1.004616  0  0  0.297853  0  0.999066  0  0  0.290263  0.285249  0  1.008466  0
H  H5  1  0.89479165  0.86296168  0.14240347  1  0  0.304628  0  0.947435  0  0  0.290479  0  1.00464  0  0  0.29789  0  0.999088  0  0  0.290266  0.285284  0  1.008488  0
H  H6  1  0.06987818  0.17164175  0.87996130  1  0  0.292409  0  0.913112  0  0  0.283497  0  0.968387  0  0  0.288921  0  0.965463  0  0  0.293479  0.279586  0  0.970645  0
H  H7  1  0.93010363  0.67164751  0.12003403  1  0  0.292522  0  0.912976  0  0  0.283594  0  0.968275  0  0  0.289019  0  0.96535  0  0  0.293426  0.279677  0  0.970537  0
H  H8  1  0.40552937  0.95130853  0.86357816  1  0  0.092191  0  0.931831  0  0  0.107738  0  0.991866  0  0  0.109477  0  0.99076  0  0  0.096535  0.106396  0  0.992766  0
H  H9  1  0.59442765  0.45129916  0.13642520  1  0  0.092209  0  0.931701  0  0  0.107741  0  0.991717  0  0  0.109482  0  0.990613  0  0  0.096527  0.1064  0  0.992616  0
H  H10  1  0.64566290  0.05235939  0.90871559  1  0  0.092731  0  0.941619  0  0  0.106652  0  1.007691  0  0  0.107914  0  1.007784  0  0  0.097022  0.10563  0  1.007861  0
H  H11  1  0.35432335  0.55236081  0.09128019  1  0  0.092863  0  0.94158  0  0  0.106721  0  1.007708  0  0  0.107982  0  1.007804  0  0  0.097015  0.105699  0  1.007881  0
H  H12  1  0.60246011  0.18346026  0.02224517  1  0  0.096741  0  0.966961  0  0  0.106413  0  1.031146  0  0  0.108509  0  1.03124  0  0  0.098319  0.104726  0  1.031552  0
H  H13  1  0.39758146  0.68347447  0.97775201  1  0  0.096794  0  0.966833  0  0  0.106464  0  1.031008  0  0  0.108559  0  1.031102  0  0  0.098321  0.104781  0  1.031408  0
H  H14  1  0.39050908  0.18975173  0.11846092  1  0  0.107222  0  0.947947  0  0  0.119495  0  1.004007  0  0  0.122994  0  1.002327  0  0  0.102407  0.116979  0  1.005314  0
H  H15  1  0.60955927  0.68977689  0.88154498  1  0  0.10717  0  0.947989  0  0  0.119395  0  1.004106  0  0  0.122893  0  1.002429  0  0  0.102344  0.116883  0  1.005401  0
H  H16  1  0.04487346  0.11685399  0.15975347  1  0  0.386802  0  0.909131  0  0  0.355506  0  0.988099  0  0  0.367605  0  0.974721  0  0  0.296673  0.346994  0  0.997411  0
H  H17  1  0.95517252  0.61685044  0.84025508  1  0  0.386823  0  0.909091  0  0  0.355445  0  0.988146  0  0  0.367542  0  0.974777  0  0  0.296637  0.346942  0  0.997438  0
H  H18  1  0.85606674  0.90161897  0.00794999  1  0  0.106108  0  0.967805  0  0  0.11662  0  1.030983  0  0  0.118836  0  1.03211  0  0  0.099828  0.114853  0  1.030702  0
H  H19  1  0.14392685  0.40157517  0.99206133  1  0  0.105849  0  0.967785  0  0  0.116473  0  1.03087  0  0  0.118688  0  1.032001  0  0  0.099788  0.114704  0  1.030599  0
H  H20  1  0.07233482  0.89163663  0.91199446  1  0  0.100227  0  0.973578  0  0  0.105994  0  1.04265  0  0  0.109765  0  1.03964  0  0  0.098058  0.103279  0  1.044818  0
H  H21  1  0.92764161  0.39162056  0.08801730  1  0  0.100145  0  0.973584  0  0  0.105927  0  1.042659  0  0  0.109699  0  1.039647  0  0  0.098048  0.103214  0  1.044823  0
H  H22  1  0.61909334  0.81550958  0.67320780  1  0  0.064529  0  0.900108  0  0  0.078941  0  0.952378  0  0  0.080873  0  0.950906  0  0  0.113254  0.077426  0  0.953777  0
H  H23  1  0.38089469  0.31551859  0.32679680  1  0  0.064562  0  0.900193  0  0  0.078937  0  0.952445  0  0  0.080868  0  0.950973  0  0  0.113246  0.07743  0  0.953837  0
H  H24  1  0.62858231  0.09198210  0.68940951  1  0  0.293504  0  0.929079  0  0  0.278131  0  0.995256  0  0  0.285209  0  0.989554  0  0  0.291236  0.273078  0  0.99932  0
H  H25  1  0.37139033  0.59199152  0.31058788  1  0  0.293504  0  0.929097  0  0  0.278084  0  0.995347  0  0  0.285166  0  0.989646  0  0  0.291198  0.273029  0  0.999418  0
H  H26  1  0.78322300  0.08932417  0.62872469  1  0  0.291404  0  0.904305  0  0  0.286034  0  0.955759  0  0  0.290602  0  0.953844  0  0  0.297502  0.282812  0  0.957145  0
H  H27  1  0.21675463  0.58931847  0.37127285  1  0  0.291434  0  0.904313  0  0  0.286053  0  0.955766  0  0  0.290619  0  0.953861  0  0  0.297543  0.282834  0  0.957146  0
H  H28  1  0.09150940  0.85853078  0.63328286  1  0  0.085288  0  0.913919  0  0  0.104688  0  0.970148  0  0  0.105932  0  0.969582  0  0  0.097396  0.103621  0  0.970845  0
H  H29  1  0.90847813  0.35850456  0.36671982  1  0  0.085371  0  0.914012  0  0  0.104819  0  0.970161  0  0  0.106052  0  0.969609  0  0  0.097441  0.103748  0  0.970866  0
H  H30  1  0.95490656  0.66758625  0.63799139  1  0  0.100856  0  0.943007  0  0  0.116363  0  1.004303  0  0  0.118428  0  1.002969  0  0  0.103095  0.114766  0  1.005404  0
H  H31  1  0.04509694  0.16757091  0.36201495  1  0  0.100881  0  0.942968  0  0  0.116379  0  1.004279  0  0  0.118443  0  1.002943  0  0  0.103091  0.114784  0  1.005379  0
H  H32  1  0.49730103  0.93634455  0.57655458  1  0  0.081504  0  0.977001  0  0  0.091427  0  1.041965  0  0  0.094147  0  1.040429  0  0  0.09581  0.089438  0  1.043198  0
H  H33  1  0.50270764  0.43634722  0.42343555  1  0  0.081373  0  0.976894  0  0  0.091259  0  1.041925  0  0  0.093976  0  1.040393  0  0  0.095732  0.089273  0  1.04316  0
H  H34  1  0.33125782  0.96912966  0.45982500  1  0  0.11057  0  0.955193  0  0  0.121171  0  1.015628  0  0  0.123791  0  1.015782  0  0  0.10146  0.119158  0  1.015904  0
H  H35  1  0.66874866  0.46914040  0.54016561  1  0  0.110529  0  0.955258  0  0  0.121095  0  1.015731  0  0  0.123705  0  1.015887  0  0  0.101438  0.11908  0  1.016002  0
H  H36  1  0.58726943  0.81078922  0.32367077  1  0  0.391587  0  0.888354  0  0  0.363312  0  0.962727  0  0  0.374191  0  0.950761  0  0  0.303489  0.355638  0  0.971139  0
H  H37  1  0.41273420  0.31079260  0.67632592  1  0  0.391373  0  0.888521  0  0  0.363119  0  0.962858  0  0  0.373993  0  0.950895  0  0  0.303396  0.355444  0  0.971265  0
H  H38  1  0.91277287  0.73376196  0.39783486  1  0  0.105384  0  0.973288  0  0  0.11722  0  1.034819  0  0  0.120432  0  1.033185  0  0  0.099244  0.114904  0  1.03612  0
H  H39  1  0.08725078  0.23376371  0.60216677  1  0  0.105469  0  0.97342  0  0  0.117292  0  1.034939  0  0  0.120511  0  1.033295  0  0  0.099269  0.11498  0  1.036241  0
H  H40  1  0.08589900  0.70256879  0.51617109  1  0  0.092693  0  0.948753  0  0  0.104832  0  1.007907  0  0  0.107007  0  1.008104  0  0  0.098801  0.103204  0  1.007918  0
H  H41  1  0.91411396  0.20256682  0.48383412  1  0  0.092723  0  0.94892  0  0  0.104863  0  1.008064  0  0  0.107039  0  1.00826  0  0  0.098828  0.10323  0  1.008085  0
H  H42  1  0.78177026  0.38906392  0.67191217  1  0  0.405404  0  0.902318  0  0  0.375519  0  0.966639  0  0  0.385748  0  0.951683  0  0  0.290557  0.368301  0  0.977179  0
H  H43  1  0.21821177  0.88904105  0.32808003  1  0  0.405314  0  0.902258  0  0  0.375388  0  0.966769  0  0  0.385613  0  0.951821  0  0  0.290494  0.368169  0  0.97731  0
H  H44  1  0.92938479  0.49766889  0.72345543  1  0  0.427727  0  0.874979  0  0  0.396184  0  0.938646  0  0  0.407277  0  0.92268  0  0  0.291071  0.388378  0  0.949862  0
H  H45  1  0.07060486  0.99765531  0.27654062  1  0  0.42772  0  0.874978  0  0  0.396135  0  0.938732  0  0  0.40723  0  0.922762  0  0  0.291037  0.388327  0  0.94995  0
C  C46  1  0.48964306  0.21996879  0.79412666  1  0  0.663267  0  3.797777  0  0  0.615383  0  4.091527  0  0  0.648582  0  4.083977  0  0  0.220854  0.592801  0  4.096024  0
C  C47  1  0.51033533  0.71996248  0.20586863  1  0  0.663054  0  3.797742  0  0  0.614958  0  4.091716  0  0  0.648154  0  4.084171  0  0  0.220592  0.592373  0  4.09622  0
C  C48  1  0.39246130  0.21898354  0.85972607  1  0  0.067417  0  3.60812  0  0  0.050926  0  3.848305  0  0  0.049607  0  3.861362  0  0  0.001945  0.051769  0  3.839291  0
C  C49  1  0.60751720  0.71897266  0.14027021  1  0  0.067376  0  3.608307  0  0  0.051181  0  3.848027  0  0  0.049865  0  3.861082  0  0  0.001975  0.052012  0  3.839011  0
C  C50  1  0.45984745  0.05483472  0.89710996  1  0  -0.189318  0  3.671096  0  0  -0.238693  0  3.922694  0  0  -0.239361  0  3.934745  0  0  -0.154869  -0.23791  0  3.914193  0
C  C51  1  0.54013401  0.55483304  0.10288715  1  0  -0.189325  0  3.671163  0  0  -0.238676  0  3.922693  0  0  -0.239351  0  3.934752  0  0  -0.15478  -0.237898  0  3.914202  0
C  C52  1  0.34906150  0.04190181  0.95905091  1  0  0.056799  0  3.776315  0  0  0.075386  0  4.018556  0  0  0.073202  0  4.043489  0  0  -0.030364  0.07675  0  4.001517  0
C  C53  1  0.65094091  0.54190128  0.04095423  1  0  0.05669  0  3.776001  0  0  0.0752  0  4.018337  0  0  0.073015  0  4.043268  0  0  -0.030403  0.076569  0  4.001302  0
C  C54  1  0.43815547  0.12206186  0.01836704  1  0  -0.095456  0  3.749279  0  0  -0.116182  0  4.002628  0  0  -0.11562  0  4.022694  0  0  -0.093671  -0.116353  0  3.989281  0
C  C55  1  0.56186922  0.62207277  0.98163298  1  0  -0.095554  0  3.749299  0  0  -0.116255  0  4.002667  0  0  -0.115692  0  4.022734  0  0  -0.093653  -0.116434  0  3.989322  0
C  C56  1  0.31896303  0.12670553  0.07272152  1  0  -0.207957  0  3.75549  0  0  -0.225041  0  4.009467  0  0  -0.231055  0  4.028771  0  0  -0.109619  -0.220905  0  3.996281  0
C  C57  1  0.68107100  0.62671763  0.92728373  1  0  -0.207952  0  3.755338  0  0  -0.224983  0  4.009266  0  0  -0.230999  0  4.028572  0  0  -0.109667  -0.220848  0  3.996088  0
C  C58  1  0.10397223  0.05283500  0.06805572  1  0  0.332288  0  3.835106  0  0  0.319909  0  4.100137  0  0  0.331195  0  4.116585  0  0  0.078098  0.312099  0  4.088954  0
C  C59  1  0.89608511  0.55282958  0.93195309  1  0  0.332226  0  3.835176  0  0  0.319864  0  4.100146  0  0  0.331151  0  4.116588  0  0  0.078089  0.312048  0  4.088973  0
C  C60  1  0.01891128  0.96445294  0.01048665  1  0  -0.197028  0  3.757722  0  0  -0.217632  0  4.012521  0  0  -0.223807  0  4.033985  0  0  -0.113137  -0.213478  0  3.998374  0
C  C61  1  0.98107282  0.46443488  0.98952595  1  0  -0.197051  0  3.75843  0  0  -0.21774  0  4.013169  0  0  -0.223921  0  4.034641  0  0  -0.113294  -0.213589  0  3.999036  0
C  C62  1  0.14041291  0.95973154  0.95686145  1  0  -0.126089  0  3.79484  0  0  -0.142048  0  4.042835  0  0  -0.14198  0  4.061679  0  0  -0.100368  -0.141769  0  4.0298  0
C  C63  1  0.85959125  0.45971733  0.04313893  1  0  -0.125826  0  3.795291  0  0  -0.141768  0  4.043294  0  0  -0.141697  0  4.062142  0  0  -0.100288  -0.141485  0  4.030255  0
C  C64  1  0.90111296  0.81647146  0.75058390  1  0  0.647501  0  3.848732  0  0  0.597155  0  4.151681  0  0  0.629177  0  4.146097  0  0  0.216288  0.5755  0  4.154668  0
C  C65  1  0.09888966  0.31646892  0.24941623  1  0  0.647778  0  3.848371  0  0  0.597491  0  4.15115  0  0  0.629511  0  4.145563  0  0  0.21643  0.575827  0  4.154154  0
C  C66  1  0.79099618  0.86936004  0.68038615  1  0  0.069438  0  3.629518  0  0  0.05066  0  3.876111  0  0  0.05047  0  3.888597  0  0  -0.000911  0.050689  0  3.867546  0
C  C67  1  0.20899321  0.36935679  0.31961513  1  0  0.069152  0  3.629735  0  0  0.050538  0  3.876022  0  0  0.050348  0  3.888509  0  0  -0.000968  0.050559  0  3.867478  0
C  C68  1  0.92276508  0.79921448  0.62743360  1  0  -0.186418  0  3.692733  0  0  -0.233374  0  3.943494  0  0  -0.234282  0  3.955457  0  0  -0.154148  -0.232449  0  3.935259  0
C  C69  1  0.07722168  0.29920270  0.37256601  1  0  -0.18656  0  3.692839  0  0  -0.233564  0  3.943635  0  0  -0.234466  0  3.955595  0  0  -0.154207  -0.232626  0  3.935382  0
C  C70  1  0.80825387  0.81925171  0.55610859  1  0  0.060372  0  3.763338  0  0  0.077226  0  4.008224  0  0  0.075748  0  4.033776  0  0  -0.028703  0.078104  0  3.990716  0
C  C71  1  0.19176439  0.31924896  0.44389399  1  0  0.060372  0  3.763866  0  0  0.077059  0  4.008956  0  0  0.075583  0  4.034501  0  0  -0.028824  0.077942  0  3.991446  0
C  C72  1  0.59410952  0.89179705  0.53850473  1  0  -0.122879  0  3.805314  0  0  -0.142717  0  4.057676  0  0  -0.143766  0  4.079327  0  0  -0.103085  -0.141773  0  4.042943  0
C  C73  1  0.40588291  0.39179056  0.46148878  1  0  -0.12266  0  3.805503  0  0  -0.142411  0  4.057886  0  0  -0.143461  0  4.079537  0  0  -0.103007  -0.141483  0  4.043162  0
C  C74  1  0.49622930  0.90967026  0.47215019  1  0  -0.193641  0  3.762341  0  0  -0.213387  0  4.016342  0  0  -0.218983  0  4.037637  0  0  -0.112842  -0.209598  0  4.002165  0
C  C75  1  0.50379611  0.40967589  0.52784535  1  0  -0.193457  0  3.762338  0  0  -0.213142  0  4.016295  0  0  -0.218724  0  4.03758  0  0  -0.11267  -0.209346  0  4.002107  0
C  C76  1  0.61098811  0.85243762  0.42131474  1  0  0.326629  0  3.838309  0  0  0.315823  0  4.099739  0  0  0.326403  0  4.116286  0  0  0.07242  0.308487  0  4.088405  0
C  C77  1  0.38903004  0.35243902  0.57867901  1  0  0.326437  0  3.838665  0  0  0.315592  0  4.100149  0  0  0.326163  0  4.116704  0  0  0.072386  0.30826  0  4.088804  0
C  C78  1  0.82319072  0.77633674  0.43773611  1  0  -0.206363  0  3.770576  0  0  -0.225691  0  4.022935  0  0  -0.231005  0  4.042937  0  0  -0.113907  -0.222025  0  4.009403  0
C  C79  1  0.17683177  0.27632937  0.56227098  1  0  -0.206394  0  3.770316  0  0  -0.225685  0  4.022662  0  0  -0.231006  0  4.042661  0  0  -0.113867  -0.22203  0  4.009142  0
C  C80  1  0.91975066  0.76124612  0.50423398  1  0  -0.10021  0  3.769474  0  0  -0.118388  0  4.018453  0  0  -0.119247  0  4.040125  0  0  -0.095311  -0.117566  0  4.00379  0
C  C81  1  0.08025092  0.26123655  0.49576011  1  0  -0.100249  0  3.769231  0  0  -0.118383  0  4.018238  0  0  -0.119243  0  4.039908  0  0  -0.095303  -0.117556  0  4.003572  0
N  N82  1  0.14615022  0.24242982  0.84774817  1  0  -0.653208  0  3.16384  0  0  -0.598726  0  3.410632  0  0  -0.617997  0  3.407457  0  0  -0.637888  -0.58525  0  3.412691  0
N  N83  1  0.85382569  0.74243265  0.15224806  1  0  -0.653349  0  3.16401  0  0  -0.598875  0  3.410647  0  0  -0.618145  0  3.407465  0  0  -0.637798  -0.585392  0  3.412703  0
N  N84  1  0.77976412  0.05114502  0.67654952  1  0  -0.663816  0  3.136338  0  0  -0.616905  0  3.387816  0  0  -0.635088  0  3.384538  0  0  -0.62513  -0.604086  0  3.389829  0
N  N85  1  0.22020909  0.55114393  0.32344980  1  0  -0.663786  0  3.136232  0  0  -0.616883  0  3.387717  0  0  -0.635041  0  3.384376  0  0  -0.625128  -0.604083  0  3.389783  0
O  O86  1  0.35630123  0.18985453  0.73873178  1  0  -0.6737  0  2.009761  0  0  -0.600414  0  2.250805  0  0  -0.628023  0  2.23662  0  0  -0.325242  -0.581124  0  2.26006  0
O  O87  1  0.64367675  0.68984793  0.26126789  1  0  -0.673602  0  2.009539  0  0  -0.600288  0  2.250707  0  0  -0.627902  0  2.23653  0  0  -0.325156  -0.580979  0  2.259935  0
O  O88  1  0.69789466  0.24715253  0.79800434  1  0  -0.615142  0  2.054018  0  0  -0.557792  0  2.308982  0  0  -0.583178  0  2.298142  0  0  -0.311968  -0.540339  0  2.316175  0
O  O89  1  0.30209011  0.74715259  0.20199365  1  0  -0.614945  0  2.054117  0  0  -0.557606  0  2.30925  0  0  -0.58299  0  2.298415  0  0  -0.311833  -0.540157  0  2.316447  0
O  O90  1  0.96933862  0.06396365  0.11661753  1  0  -0.542561  0  2.165837  0  0  -0.481822  0  2.379576  0  0  -0.501758  0  2.369621  0  0  -0.355683  -0.467578  0  2.386207  0
O  O91  1  0.03069387  0.56395817  0.88339202  1  0  -0.542325  0  2.166266  0  0  -0.481546  0  2.380063  0  0  -0.50147  0  2.370103  0  0  -0.355433  -0.467297  0  2.386681  0
O  O92  1  0.00491472  0.92249721  0.78899224  1  0  -0.604169  0  2.025317  0  0  -0.545061  0  2.276771  0  0  -0.571153  0  2.266238  0  0  -0.304968  -0.526901  0  2.283383  0
O  O93  1  0.99508096  0.42248675  0.21100487  1  0  -0.604224  0  2.025224  0  0  -0.545144  0  2.276643  0  0  -0.571239  0  2.266109  0  0  -0.304956  -0.526976  0  2.283257  0
O  O94  1  0.87668417  0.66558603  0.76571805  1  0  -0.629747  0  2.0252  0  0  -0.571548  0  2.242014  0  0  -0.596434  0  2.230453  0  0  -0.314657  -0.554203  0  2.249417  0
O  O95  1  0.12335126  0.16559015  0.23428779  1  0  -0.629798  0  2.025069  0  0  -0.571675  0  2.24188  0  0  -0.596561  0  2.230311  0  0  -0.314781  -0.55432  0  2.249293  0
O  O96  1  0.51054663  0.87428177  0.35684747  1  0  -0.547671  0  2.166749  0  0  -0.482711  0  2.369267  0  0  -0.50191  0  2.358308  0  0  -0.354111  -0.469124  0  2.376646  0
O  O97  1  0.48946414  0.37429195  0.64314855  1  0  -0.547439  0  2.166746  0  0  -0.482523  0  2.369296  0  0  -0.501702  0  2.358327  0  0  -0.354099  -0.46892  0  2.376664  0
O  O98  1  0.94034876  0.39843915  0.69466429  1  0  -0.828254  0  1.892943  0  0  -0.773011  0  2.093899  0  0  -0.794097  0  2.060517  0  0  -0.58439  -0.758028  0  2.116935  0
O  O99  1  0.05963874  0.89841921  0.30532858  1  0  -0.828119  0  1.892828  0  0  -0.772801  0  2.093952  0  0  -0.793883  0  2.060566  0  0  -0.584295  -0.757813  0  2.116986  0
