# generated using pymatgen
data_CdH3C7NO4
_symmetry_space_group_name_H-M   'P 1'
_cell_length_a   6.71726480
_cell_length_b   9.56326419
_cell_length_c   11.21325760
_cell_angle_alpha   89.99959145
_cell_angle_beta   103.44438474
_cell_angle_gamma   90.00030887
_symmetry_Int_Tables_number   1
_chemical_formula_structural   CdH3C7NO4
_chemical_formula_sum   'Cd4 H12 C28 N4 O16'
_cell_volume   700.58837598
_cell_formula_units_Z   4
loop_
 _symmetry_equiv_pos_site_id
 _symmetry_equiv_pos_as_xyz
  1  'x, y, z'
loop_
 _atom_site_type_symbol
 _atom_site_label
 _atom_site_symmetry_multiplicity
 _atom_site_fract_x
 _atom_site_fract_y
 _atom_site_fract_z
 _atom_site_occupancy
 _atom_site_hle17_bader_spin_density
 _atom_site_hle17_ddec_charge
 _atom_site_hle17_ddec_spin_density
 _atom_site_hle17_ddec_sum_bond_order
 _atom_site_hle17_magmom
 _atom_site_hse06_10hf_bader_spin_density
 _atom_site_hse06_10hf_ddec_charge
 _atom_site_hse06_10hf_ddec_spin_density
 _atom_site_hse06_10hf_ddec_sum_bond_order
 _atom_site_hse06_10hf_magmom
 _atom_site_hse06_bader_spin_density
 _atom_site_hse06_ddec_charge
 _atom_site_hse06_ddec_spin_density
 _atom_site_hse06_ddec_sum_bond_order
 _atom_site_hse06_magmom
 _atom_site_pbe_bader_spin_density
 _atom_site_pbe_cm5_charge
 _atom_site_pbe_ddec_charge
 _atom_site_pbe_ddec_spin_density
 _atom_site_pbe_ddec_sum_bond_order
 _atom_site_pbe_magmom
Cd  Cd0  1  0.18810101  0.85534969  0.97776930  1  0  1.237517  0  1.608661  0  0  1.048586  0  2.063892  0  0  1.107964  0  2.005725  0  0  0.794017  1.008844  0  2.102608  0
Cd  Cd1  1  0.31189219  0.35535095  0.52223223  1  0  1.2375  0  1.608754  0  0  1.048571  0  2.06399  0  0  1.107948  0  2.005824  0  0  0.793993  1.008815  0  2.102693  0
Cd  Cd2  1  0.81190068  0.14465283  0.02222976  1  0  1.237579  0  1.608632  0  0  1.048653  0  2.063857  0  0  1.108029  0  2.00569  0  0  0.794043  1.008908  0  2.102562  0
Cd  Cd3  1  0.68810949  0.64465052  0.47776861  1  0  1.237484  0  1.608814  0  0  1.048546  0  2.064063  0  0  1.107925  0  2.005891  0  0  0.793991  1.008792  0  2.102771  0
H  H4  1  0.44918921  0.38133949  0.19157342  1  0  0.129872  0  0.932748  0  0  0.137483  0  0.996148  0  0  0.141723  0  0.992985  0  0  0.116539  0.134001  0  0.99916  0
H  H5  1  0.05078317  0.88134121  0.30843531  1  0  0.129834  0  0.932922  0  0  0.137542  0  0.996213  0  0  0.141782  0  0.993045  0  0  0.116526  0.134056  0  0.999232  0
H  H6  1  0.55080941  0.61866093  0.80842609  1  0  0.129888  0  0.932789  0  0  0.137492  0  0.996177  0  0  0.141732  0  0.993015  0  0  0.116545  0.134009  0  0.999193  0
H  H7  1  0.94919704  0.11865817  0.69156785  1  0  0.129836  0  0.932832  0  0  0.137569  0  0.996097  0  0  0.14181  0  0.992931  0  0  0.116544  0.134084  0  0.999115  0
H  H8  1  0.10651213  0.31077567  0.81905049  1  0  0.121207  0  0.935701  0  0  0.130989  0  0.996095  0  0  0.134336  0  0.994699  0  0  0.114354  0.1283  0  0.997668  0
H  H9  1  0.39351913  0.81076921  0.68094690  1  0  0.121239  0  0.935641  0  0  0.131034  0  0.996003  0  0  0.134378  0  0.994607  0  0  0.114372  0.12834  0  0.997585  0
H  H10  1  0.89349264  0.68922684  0.18094544  1  0  0.121176  0  0.935766  0  0  0.130954  0  0.996169  0  0  0.134302  0  0.994772  0  0  0.114349  0.128263  0  0.997743  0
H  H11  1  0.60648869  0.18923016  0.31905125  1  0  0.121229  0  0.935636  0  0  0.130978  0  0.99606  0  0  0.134325  0  0.994664  0  0  0.114338  0.128284  0  0.997639  0
H  H12  1  0.05456117  0.56946139  0.79893647  1  0  0.102377  0  0.952265  0  0  0.108141  0  1.016187  0  0  0.112115  0  1.01255  0  0  0.117821  0.104813  0  1.019491  0
H  H13  1  0.44544259  0.06945749  0.70106656  1  0  0.102394  0  0.952207  0  0  0.108137  0  1.016146  0  0  0.112109  0  1.012514  0  0  0.117826  0.104806  0  1.019446  0
H  H14  1  0.94544359  0.43054112  0.20106124  1  0  0.102408  0  0.952177  0  0  0.10817  0  1.016093  0  0  0.11214  0  1.012458  0  0  0.117811  0.104828  0  1.019403  0
H  H15  1  0.55456064  0.93054084  0.29893094  1  0  0.102377  0  0.952202  0  0  0.108123  0  1.016147  0  0  0.112096  0  1.012512  0  0  0.11781  0.104792  0  1.019449  0
C  C16  1  0.40038657  0.66185765  0.18850228  1  0  0.628524  0  3.934603  0  0  0.575589  0  4.230115  0  0  0.60968  0  4.224639  0  0  0.209163  0.552698  0  4.232892  0
C  C17  1  0.09961682  0.16185578  0.31148902  1  0  0.628678  0  3.934744  0  0  0.575791  0  4.230132  0  0  0.609884  0  4.224655  0  0  0.20937  0.552888  0  4.232926  0
C  C18  1  0.59961360  0.33814277  0.81149656  1  0  0.628583  0  3.93441  0  0  0.575616  0  4.230009  0  0  0.609712  0  4.224527  0  0  0.209224  0.552724  0  4.232794  0
C  C19  1  0.90038333  0.83814151  0.68851250  1  0  0.628656  0  3.934749  0  0  0.575814  0  4.230113  0  0  0.609905  0  4.224639  0  0  0.209368  0.552926  0  4.232891  0
C  C20  1  0.32049488  0.55950689  0.08529741  1  0  0.080405  0  3.777546  0  0  0.087033  0  4.015921  0  0  0.08649  0  4.038318  0  0  0.105162  0.087134  0  4.000555  0
C  C21  1  0.17950629  0.05950760  0.41470581  1  0  0.080227  0  3.777763  0  0  0.086959  0  4.015991  0  0  0.086412  0  4.038395  0  0  0.105102  0.087055  0  4.000628  0
C  C22  1  0.67950836  0.44049458  0.91469919  1  0  0.080521  0  3.777219  0  0  0.087067  0  4.015725  0  0  0.08652  0  4.03812  0  0  0.105159  0.08716  0  4.000374  0
C  C23  1  0.82048773  0.94049073  0.58529484  1  0  0.080278  0  3.777525  0  0  0.086907  0  4.015893  0  0  0.086363  0  4.038297  0  0  0.105083  0.087004  0  4.000528  0
C  C24  1  0.36040472  0.41738178  0.10323450  1  0  -0.097937  0  3.670123  0  0  -0.134039  0  3.923076  0  0  -0.13605  0  3.941623  0  0  -0.06906  -0.132771  0  3.91109  0
C  C25  1  0.13957556  0.91738310  0.39677155  1  0  -0.098102  0  3.670427  0  0  -0.13434  0  3.923375  0  0  -0.13636  0  3.941944  0  0  -0.069159  -0.133069  0  3.911384  0
C  C26  1  0.63959392  0.58261864  0.89676323  1  0  -0.09806  0  3.670078  0  0  -0.13411  0  3.923022  0  0  -0.136123  0  3.941572  0  0  -0.069068  -0.132841  0  3.911043  0
C  C27  1  0.86040925  0.08261628  0.60323225  1  0  -0.097971  0  3.670205  0  0  -0.134209  0  3.923182  0  0  -0.136224  0  3.941733  0  0  -0.069126  -0.13295  0  3.911202  0
C  C28  1  0.28125483  0.32457271  0.00791917  1  0  -0.024295  0  3.729443  0  0  -0.006093  0  3.973295  0  0  -0.009472  0  3.992055  0  0  0.000617  -0.004067  0  3.960845  0
C  C29  1  0.21874943  0.82457040  0.49208462  1  0  -0.024193  0  3.729701  0  0  -0.005979  0  3.973543  0  0  -0.009356  0  3.992301  0  0  0.000652  -0.00396  0  3.96108  0
C  C30  1  0.71874840  0.67542771  0.99207833  1  0  -0.02424  0  3.729364  0  0  -0.006029  0  3.973199  0  0  -0.009411  0  3.991957  0  0  0.000638  -0.004008  0  3.960755  0
C  C31  1  0.78124766  0.17542689  0.50791646  1  0  -0.02433  0  3.729637  0  0  -0.006082  0  3.973482  0  0  -0.009461  0  3.992243  0  0  0.000646  -0.004048  0  3.961  0
C  C32  1  0.16966604  0.37854730  0.89659382  1  0  -0.0981  0  3.661574  0  0  -0.126926  0  3.920824  0  0  -0.129932  0  3.93868  0  0  -0.072239  -0.125184  0  3.90934  0
C  C33  1  0.33034418  0.87854230  0.60340195  1  0  -0.098192  0  3.661718  0  0  -0.127013  0  3.920924  0  0  -0.130016  0  3.938774  0  0  -0.072241  -0.125279  0  3.909442  0
C  C34  1  0.83033873  0.62145416  0.10340211  1  0  -0.098098  0  3.661704  0  0  -0.126935  0  3.920957  0  0  -0.129941  0  3.93881  0  0  -0.072246  -0.125196  0  3.909467  0
C  C35  1  0.66965750  0.12145812  0.39659800  1  0  -0.098152  0  3.661672  0  0  -0.126945  0  3.920888  0  0  -0.12995  0  3.938737  0  0  -0.072231  -0.125207  0  3.909393  0
C  C36  1  0.14053029  0.52275852  0.88438888  1  0  0.149307  0  3.652636  0  0  0.117705  0  3.913776  0  0  0.124218  0  3.929657  0  0  0.052564  0.113477  0  3.902991  0
C  C37  1  0.35947165  0.02275605  0.61561596  1  0  0.149309  0  3.652374  0  0  0.117726  0  3.913515  0  0  0.124239  0  3.929395  0  0  0.052528  0.113502  0  3.902722  0
C  C38  1  0.85947294  0.47724295  0.11560861  1  0  0.149279  0  3.652617  0  0  0.117701  0  3.91372  0  0  0.124215  0  3.929599  0  0  0.052575  0.113491  0  3.902918  0
C  C39  1  0.64052696  0.97724332  0.38438534  1  0  0.149323  0  3.652369  0  0  0.117729  0  3.913516  0  0  0.124244  0  3.929391  0  0  0.052551  0.113503  0  3.902723  0
C  C40  1  0.31606168  0.17004805  0.02767049  1  0  0.674676  0  3.88374  0  0  0.620643  0  4.175433  0  0  0.65637  0  4.166971  0  0  0.218321  0.596747  0  4.179705  0
C  C41  1  0.18394169  0.67004682  0.47233057  1  0  0.67469  0  3.88361  0  0  0.620658  0  4.175331  0  0  0.656371  0  4.166892  0  0  0.218348  0.596783  0  4.179569  0
C  C42  1  0.68393849  0.82995238  0.97232746  1  0  0.674807  0  3.883617  0  0  0.620741  0  4.175348  0  0  0.656475  0  4.166876  0  0  0.218378  0.596848  0  4.179616  0
C  C43  1  0.81605996  0.32995151  0.52767473  1  0  0.674828  0  3.883381  0  0  0.620712  0  4.1752  0  0  0.656437  0  4.166733  0  0  0.218359  0.596825  0  4.179453  0
N  N44  1  0.21178894  0.61077424  0.97777691  1  0  -0.375778  0  3.309956  0  0  -0.304222  0  3.569899  0  0  -0.323399  0  3.59119  0  0  -0.323189  -0.291079  0  3.554494  0
N  N45  1  0.28820742  0.11077542  0.52222481  1  0  -0.375591  0  3.309836  0  0  -0.304071  0  3.569722  0  0  -0.323243  0  3.591011  0  0  -0.323124  -0.290927  0  3.554311  0
N  N46  1  0.78821277  0.38922618  0.02222037  1  0  -0.375824  0  3.309764  0  0  -0.304257  0  3.569764  0  0  -0.32343  0  3.591051  0  0  -0.323202  -0.291114  0  3.554354  0
N  N47  1  0.71178815  0.88922605  0.47777338  1  0  -0.375622  0  3.30976  0  0  -0.304057  0  3.569663  0  0  -0.323228  0  3.590949  0  0  -0.32312  -0.290914  0  3.554253  0
O  O48  1  0.34919768  0.78992268  0.17406139  1  0  -0.622122  0  2.004335  0  0  -0.557585  0  2.254294  0  0  -0.586644  0  2.242813  0  0  -0.31491  -0.538492  0  2.26245  0
O  O49  1  0.15083706  0.28991982  0.32593445  1  0  -0.622201  0  2.004285  0  0  -0.557684  0  2.254185  0  0  -0.586735  0  2.242679  0  0  -0.314961  -0.538596  0  2.262382  0
O  O50  1  0.65080094  0.21007775  0.82593813  1  0  -0.622173  0  2.004309  0  0  -0.557597  0  2.254275  0  0  -0.586653  0  2.242778  0  0  -0.314922  -0.538503  0  2.262431  0
O  O51  1  0.84916156  0.71007851  0.67406507  1  0  -0.622219  0  2.004279  0  0  -0.557703  0  2.254156  0  0  -0.586754  0  2.242652  0  0  -0.314971  -0.538627  0  2.262359  0
O  O52  1  0.51584814  0.60836737  0.28253097  1  0  -0.62224  0  2.06562  0  0  -0.556163  0  2.32671  0  0  -0.585941  0  2.316029  0  0  -0.320156  -0.535891  0  2.333464  0
O  O53  1  0.98416944  0.10837080  0.21747313  1  0  -0.622251  0  2.065913  0  0  -0.556249  0  2.327049  0  0  -0.586026  0  2.316366  0  0  -0.320279  -0.535971  0  2.333798  0
O  O54  1  0.48415509  0.39163201  0.71746741  1  0  -0.622296  0  2.065645  0  0  -0.556206  0  2.326752  0  0  -0.585985  0  2.31607  0  0  -0.320195  -0.535922  0  2.333488  0
O  O55  1  0.01582457  0.89163067  0.78252930  1  0  -0.622241  0  2.065958  0  0  -0.556235  0  2.327047  0  0  -0.586024  0  2.316385  0  0  -0.320266  -0.535955  0  2.333781  0
O  O56  1  0.48945529  0.12605061  0.08248131  1  0  -0.622041  0  1.977798  0  0  -0.564517  0  2.22744  0  0  -0.591639  0  2.215162  0  0  -0.312283  -0.544979  0  2.234824  0
O  O57  1  0.01055699  0.62604710  0.41752217  1  0  -0.622015  0  1.978051  0  0  -0.564506  0  2.227717  0  0  -0.591607  0  2.21543  0  0  -0.312251  -0.544976  0  2.235089  0
O  O58  1  0.51054643  0.87394877  0.91751329  1  0  -0.622086  0  1.977722  0  0  -0.564588  0  2.227436  0  0  -0.591687  0  2.21511  0  0  -0.312309  -0.545052  0  2.234824  0
O  O59  1  0.98944614  0.37394181  0.58249047  1  0  -0.622048  0  1.977829  0  0  -0.564509  0  2.22753  0  0  -0.591623  0  2.215249  0  0  -0.312268  -0.544981  0  2.234912  0
O  O60  1  0.15787825  0.09296555  0.98696480  1  0  -0.661371  0  2.07276  0  0  -0.576593  0  2.336382  0  0  -0.609792  0  2.322128  0  0  -0.316689  -0.553498  0  2.344692  0
O  O61  1  0.34213789  0.59296656  0.51304161  1  0  -0.661349  0  2.072437  0  0  -0.576602  0  2.336072  0  0  -0.609813  0  2.321863  0  0  -0.31674  -0.553516  0  2.344374  0
O  O62  1  0.84212037  0.90703382  0.01303561  1  0  -0.661426  0  2.07273  0  0  -0.576653  0  2.336377  0  0  -0.609855  0  2.322122  0  0  -0.316725  -0.553555  0  2.344681  0
O  O63  1  0.65786837  0.40703595  0.48696166  1  0  -0.661444  0  2.072544  0  0  -0.57666  0  2.336206  0  0  -0.609873  0  2.321985  0  0  -0.316756  -0.553571  0  2.344513  0
