# generated using pymatgen
data_CaH16C20(N3O4)2
_symmetry_space_group_name_H-M   'P 1'
_cell_length_a   5.32411690
_cell_length_b   7.68348002
_cell_length_c   13.77335431
_cell_angle_alpha   96.05369780
_cell_angle_beta   100.87898293
_cell_angle_gamma   107.35679005
_symmetry_Int_Tables_number   1
_chemical_formula_structural   CaH16C20(N3O4)2
_chemical_formula_sum   'Ca1 H16 C20 N6 O8'
_cell_volume   520.19170848
_cell_formula_units_Z   1
loop_
 _symmetry_equiv_pos_site_id
 _symmetry_equiv_pos_as_xyz
  1  'x, y, z'
loop_
 _atom_site_type_symbol
 _atom_site_label
 _atom_site_symmetry_multiplicity
 _atom_site_fract_x
 _atom_site_fract_y
 _atom_site_fract_z
 _atom_site_occupancy
 _atom_site_hle17_bader_spin_density
 _atom_site_hle17_ddec_charge
 _atom_site_hle17_ddec_spin_density
 _atom_site_hle17_ddec_sum_bond_order
 _atom_site_hle17_magmom
 _atom_site_hse06_10hf_bader_spin_density
 _atom_site_hse06_10hf_ddec_charge
 _atom_site_hse06_10hf_ddec_spin_density
 _atom_site_hse06_10hf_ddec_sum_bond_order
 _atom_site_hse06_10hf_magmom
 _atom_site_hse06_bader_spin_density
 _atom_site_hse06_ddec_charge
 _atom_site_hse06_ddec_spin_density
 _atom_site_hse06_ddec_sum_bond_order
 _atom_site_hse06_magmom
 _atom_site_pbe_bader_spin_density
 _atom_site_pbe_cm5_charge
 _atom_site_pbe_ddec_charge
 _atom_site_pbe_ddec_spin_density
 _atom_site_pbe_ddec_sum_bond_order
 _atom_site_pbe_magmom
Ca  Ca0  1  0.00002365  0.49999371  0.50000246  1  0  1.468268  0  1.180434  0  0  1.313338  0  1.554983  0  0  1.356519  0  1.512834  0  0  0.906452  1.280949  0  1.584929  0
H  H1  1  0.92451425  0.73217939  0.77874045  1  0  0.100813  0  0.959882  0  0  0.108829  0  1.023627  0  0  0.11189  0  1.022367  0  0  0.108186  0.106595  0  1.024689  0
H  H2  1  0.07547918  0.26783012  0.22126398  1  0  0.100853  0  0.959849  0  0  0.108843  0  1.023625  0  0  0.111902  0  1.022369  0  0  0.108211  0.106607  0  1.024685  0
H  H3  1  0.90537501  0.87996288  0.94576948  1  0  0.116035  0  0.975165  0  0  0.117968  0  1.048298  0  0  0.1223  0  1.043908  0  0  0.10983  0.114806  0  1.051522  0
H  H4  1  0.09459476  0.12004116  0.05422709  1  0  0.116049  0  0.97497  0  0  0.117932  0  1.048156  0  0  0.122281  0  1.043733  0  0  0.109821  0.114748  0  1.051406  0
H  H5  1  0.10325116  0.49502942  0.91154266  1  0  0.120956  0  0.969715  0  0  0.124197  0  1.040395  0  0  0.128231  0  1.037241  0  0  0.11024  0.121347  0  1.042586  0
H  H6  1  0.89675495  0.50493859  0.08845287  1  0  0.120934  0  0.969663  0  0  0.124229  0  1.040319  0  0  0.128264  0  1.037165  0  0  0.110242  0.121377  0  1.042506  0
H  H7  1  0.12006106  0.35516528  0.74136420  1  0  0.107151  0  0.958475  0  0  0.116052  0  1.021529  0  0  0.119263  0  1.01982  0  0  0.113181  0.11371  0  1.022863  0
H  H8  1  0.87996086  0.64483183  0.25863137  1  0  0.107227  0  0.958406  0  0  0.116132  0  1.021449  0  0  0.119343  0  1.019742  0  0  0.113251  0.113788  0  1.022783  0
H  H9  1  0.37608241  0.21746634  0.49438424  1  0  0.283685  0  0.94506  0  0  0.260732  0  1.012183  0  0  0.269972  0  1.004886  0  0  0.321413  0.254192  0  1.017401  0
H  H10  1  0.62393786  0.78254727  0.50562602  1  0  0.283694  0  0.94496  0  0  0.260787  0  1.012021  0  0  0.270025  0  1.004724  0  0  0.321421  0.254246  0  1.017245  0
H  H11  1  0.04003620  0.91935688  0.38297168  1  0  0.104671  0  0.963641  0  0  0.11402  0  1.029219  0  0  0.117049  0  1.02621  0  0  0.125629  0.111781  0  1.031387  0
H  H12  1  0.95997650  0.08066093  0.61703394  1  0  0.10466  0  0.963722  0  0  0.114056  0  1.029227  0  0  0.117069  0  1.026226  0  0  0.125724  0.111816  0  1.031383  0
H  H13  1  0.29646683  0.83455652  0.23467380  1  0  0.125833  0  0.984085  0  0  0.131745  0  1.047825  0  0  0.135495  0  1.04617  0  0  0.103413  0.129095  0  1.049083  0
H  H14  1  0.70353249  0.16546133  0.76532794  1  0  0.125854  0  0.984037  0  0  0.131726  0  1.047836  0  0  0.135472  0  1.046185  0  0  0.103422  0.129082  0  1.049089  0
H  H15  1  0.79158600  0.10269558  0.28694484  1  0  0.085384  0  0.971349  0  0  0.095488  0  1.037577  0  0  0.097792  0  1.034715  0  0  0.115237  0.093775  0  1.0397  0
H  H16  1  0.20841855  0.89732921  0.71305553  1  0  0.085479  0  0.971295  0  0  0.095568  0  1.037543  0  0  0.097874  0  1.034678  0  0  0.115271  0.093853  0  1.039672  0
C  C17  1  0.52375428  0.53520540  0.74986879  1  0  -0.044312  0  3.70753  0  0  -0.028113  0  3.944531  0  0  -0.033426  0  3.965496  0  0  0.002822  -0.024579  0  3.930426  0
C  C18  1  0.47625550  0.46479031  0.25012872  1  0  -0.044216  0  3.707621  0  0  -0.027987  0  3.944565  0  0  -0.033302  0  3.965527  0  0  0.002786  -0.024464  0  3.93046  0
C  C19  1  0.74548885  0.68176295  0.80812070  1  0  -0.043778  0  3.700391  0  0  -0.06481  0  3.947643  0  0  -0.066903  0  3.969386  0  0  -0.069356  -0.063342  0  3.932842  0
C  C20  1  0.25449937  0.31823969  0.19187784  1  0  -0.043863  0  3.700629  0  0  -0.06489  0  3.947852  0  0  -0.066987  0  3.969601  0  0  -0.069371  -0.06341  0  3.933027  0
C  C21  1  0.73560531  0.76420692  0.90142668  1  0  -0.083605  0  3.695426  0  0  -0.112784  0  3.957936  0  0  -0.11302  0  3.976115  0  0  -0.074951  -0.112399  0  3.945637  0
C  C22  1  0.26437659  0.23579847  0.09857302  1  0  -0.083495  0  3.6955  0  0  -0.112616  0  3.958026  0  0  -0.112856  0  3.976207  0  0  -0.074902  -0.112218  0  3.945735  0
C  C23  1  0.50167497  0.69548190  0.93620733  1  0  0.076065  0  3.712453  0  0  0.063299  0  3.96884  0  0  0.060553  0  3.993071  0  0  0.077069  0.064986  0  3.95248  0
C  C24  1  0.49830282  0.30450690  0.06378888  1  0  0.075872  0  3.712502  0  0  0.063143  0  3.969027  0  0  0.060399  0  3.993255  0  0  0.077106  0.064832  0  3.952655  0
C  C25  1  0.28019780  0.54621987  0.88110226  1  0  -0.099224  0  3.709755  0  0  -0.126392  0  3.971831  0  0  -0.127832  0  3.991857  0  0  -0.078634  -0.125188  0  3.958133  0
C  C26  1  0.71980220  0.45376339  0.11889450  1  0  -0.099073  0  3.709577  0  0  -0.12632  0  3.971733  0  0  -0.127765  0  3.991757  0  0  -0.078636  -0.125117  0  3.958027  0
C  C27  1  0.29225764  0.46781115  0.78717194  1  0  -0.049042  0  3.691455  0  0  -0.074019  0  3.944297  0  0  -0.074899  0  3.963596  0  0  -0.071489  -0.073443  0  3.931334  0
C  C28  1  0.70775589  0.53218041  0.21282558  1  0  -0.04923  0  3.691457  0  0  -0.074194  0  3.944314  0  0  -0.075073  0  3.963612  0  0  -0.071591  -0.073614  0  3.93135  0
C  C29  1  0.53252747  0.45536957  0.64653196  1  0  0.682966  0  3.891179  0  0  0.627413  0  4.195804  0  0  0.662562  0  4.18561  0  0  0.234183  0.60342  0  4.201957  0
C  C30  1  0.46750376  0.54461499  0.35347223  1  0  0.682912  0  3.891166  0  0  0.627342  0  4.195774  0  0  0.662508  0  4.185558  0  0  0.234257  0.603361  0  4.201914  0
C  C31  1  0.23961812  0.98770008  0.37142172  1  0  0.04846  0  3.681216  0  0  -0.000139  0  3.950845  0  0  0.008574  0  3.964627  0  0  0.02459  -0.005472  0  3.941259  0
C  C32  1  0.76039149  0.01232329  0.62858184  1  0  0.04836  0  3.681172  0  0  -0.000261  0  3.950872  0  0  0.008475  0  3.964631  0  0  0.024444  -0.005584  0  3.941262  0
C  C33  1  0.37225152  0.94561958  0.29883553  1  0  -0.215536  0  3.771554  0  0  -0.228778  0  4.03724  0  0  -0.238426  0  4.057729  0  0  -0.12312  -0.222433  0  4.023218  0
C  C34  1  0.62774972  0.05439829  0.70116417  1  0  -0.215454  0  3.771588  0  0  -0.228667  0  4.037309  0  0  -0.238312  0  4.057795  0  0  -0.123109  -0.222323  0  4.023285  0
C  C35  1  0.62709614  0.08351198  0.32492460  1  0  0.055273  0  3.765774  0  0  0.01532  0  4.042627  0  0  0.023176  0  4.058343  0  0  0.016415  0.010428  0  4.031584  0
C  C36  1  0.37290958  0.91650727  0.67507551  1  0  0.055135  0  3.76578  0  0  0.015173  0  4.042652  0  0  0.023029  0  4.058365  0  0  0.016412  0.010283  0  4.031614  0
N  N37  1  0.48545882  0.78294945  0.03356959  1  0  0.467647  0  3.953723  0  0  0.510805  0  4.23415  0  0  0.530826  0  4.244594  0  0  0.055711  0.497409  0  4.227113  0
N  N38  1  0.51452544  0.21704490  0.96642670  1  0  0.46803  0  3.953613  0  0  0.510865  0  4.234469  0  0  0.530881  0  4.244925  0  0  0.055781  0.497482  0  4.227408  0
N  N39  1  0.65115746  0.20288847  0.40785373  1  0  -0.339514  0  3.065878  0  0  -0.29673  0  3.343528  0  0  -0.309588  0  3.361263  0  0  -0.30459  -0.287629  0  3.331289  0
N  N40  1  0.34885268  0.79712799  0.59214871  1  0  -0.33937  0  3.065758  0  0  -0.296557  0  3.343413  0  0  -0.309416  0  3.36115  0  0  -0.304517  -0.287454  0  3.331166  0
N  N41  1  0.41169525  0.14119735  0.43445314  1  0  -0.149251  0  3.524979  0  0  -0.08382  0  3.758937  0  0  -0.096596  0  3.778223  0  0  -0.276391  -0.075432  0  3.745988  0
N  N42  1  0.58831671  0.85881493  0.56555063  1  0  -0.149262  0  3.524791  0  0  -0.083914  0  3.758792  0  0  -0.096687  0  3.778068  0  0  -0.276382  -0.075519  0  3.745829  0
O  O43  1  0.76020004  0.48662627  0.62477390  1  0  -0.676805  0  1.96656  0  0  -0.619926  0  2.2251  0  0  -0.646508  0  2.214489  0  0  -0.367684  -0.600957  0  2.231754  0
O  O44  1  0.23983258  0.51336519  0.37523372  1  0  -0.676769  0  1.966503  0  0  -0.619915  0  2.225118  0  0  -0.646481  0  2.214444  0  0  -0.367737  -0.60095  0  2.231772  0
O  O45  1  0.30547766  0.36112777  0.58570526  1  0  -0.702096  0  1.98512  0  0  -0.639004  0  2.230173  0  0  -0.665776  0  2.218842  0  0  -0.358539  -0.619843  0  2.237305  0
O  O46  1  0.69455388  0.63883740  0.41429775  1  0  -0.702229  0  1.985405  0  0  -0.639092  0  2.230431  0  0  -0.665876  0  2.219096  0  0  -0.358596  -0.619937  0  2.237567  0
O  O47  1  0.68295773  0.91543439  0.08273010  1  0  -0.352702  0  1.75831  0  0  -0.335517  0  1.957712  0  0  -0.348004  0  1.956508  0  0  -0.1271  -0.327132  0  1.958574  0
O  O48  1  0.31697212  0.08454616  0.91726067  1  0  -0.353236  0  1.757963  0  0  -0.335795  0  1.957351  0  0  -0.348297  0  1.956155  0  0  -0.127358  -0.3274  0  1.958213  0
O  O49  1  0.27375338  0.72059369  0.06251853  1  0  -0.35317  0  1.794329  0  0  -0.332485  0  1.998921  0  0  -0.344965  0  1.997435  0  0  -0.119315  -0.324147  0  2.000051  0
O  O50  1  0.72618588  0.27937853  0.93747386  1  0  -0.353037  0  1.794777  0  0  -0.332277  0  1.999547  0  0  -0.344726  0  1.998016  0  0  -0.119156  -0.323984  0  2.000706  0
