# generated using pymatgen
data_CaH14C8(NO5)2
_symmetry_space_group_name_H-M   'P 1'
_cell_length_a   5.94274982
_cell_length_b   9.92666579
_cell_length_c   10.80080171
_cell_angle_alpha   111.55157687
_cell_angle_beta   89.99986149
_cell_angle_gamma   90.00009415
_symmetry_Int_Tables_number   1
_chemical_formula_structural   CaH14C8(NO5)2
_chemical_formula_sum   'Ca2 H28 C16 N4 O20'
_cell_volume   592.61213703
_cell_formula_units_Z   2
loop_
 _symmetry_equiv_pos_site_id
 _symmetry_equiv_pos_as_xyz
  1  'x, y, z'
loop_
 _atom_site_type_symbol
 _atom_site_label
 _atom_site_symmetry_multiplicity
 _atom_site_fract_x
 _atom_site_fract_y
 _atom_site_fract_z
 _atom_site_occupancy
 _atom_site_hle17_bader_spin_density
 _atom_site_hle17_ddec_charge
 _atom_site_hle17_ddec_spin_density
 _atom_site_hle17_ddec_sum_bond_order
 _atom_site_hle17_magmom
 _atom_site_hse06_10hf_bader_spin_density
 _atom_site_hse06_10hf_ddec_charge
 _atom_site_hse06_10hf_ddec_spin_density
 _atom_site_hse06_10hf_ddec_sum_bond_order
 _atom_site_hse06_10hf_magmom
 _atom_site_hse06_bader_spin_density
 _atom_site_hse06_ddec_charge
 _atom_site_hse06_ddec_spin_density
 _atom_site_hse06_ddec_sum_bond_order
 _atom_site_hse06_magmom
 _atom_site_pbe_bader_spin_density
 _atom_site_pbe_cm5_charge
 _atom_site_pbe_ddec_charge
 _atom_site_pbe_ddec_spin_density
 _atom_site_pbe_ddec_sum_bond_order
 _atom_site_pbe_magmom
Ca  Ca0  1  0.55285838  0.24999891  0.99999950  1  0  1.584128  0  1.057016  0  0  1.452883  0  1.407243  0  0  1.495372  0  1.360229  0  0  0.840284  1.419967  0  1.442498  0
Ca  Ca1  1  0.44714033  0.74999951  0.99999992  1  0  1.584001  0  1.057111  0  0  1.452746  0  1.407348  0  0  1.495232  0  1.360334  0  0  0.840299  1.41982  0  1.4426  0
H  H2  1  0.17761815  0.10049327  0.81449278  1  0  0.417215  0  0.884952  0  0  0.384295  0  0.954254  0  0  0.393881  0  0.940119  0  0  0.303594  0.377417  0  0.964465  0
H  H3  1  0.82238432  0.60049408  0.81449093  1  0  0.417214  0  0.884991  0  0  0.384306  0  0.954245  0  0  0.393893  0  0.940109  0  0  0.303601  0.377426  0  0.964459  0
H  H4  1  0.82238611  0.89950559  0.18550940  1  0  0.417204  0  0.885003  0  0  0.384292  0  0.954264  0  0  0.393879  0  0.94013  0  0  0.303607  0.377412  0  0.964478  0
H  H5  1  0.17761825  0.39950590  0.18550701  1  0  0.417134  0  0.88504  0  0  0.384243  0  0.954299  0  0  0.393832  0  0.940158  0  0  0.303585  0.377371  0  0.964499  0
H  H6  1  0.19859265  0.99224070  0.89308580  1  0  0.433685  0  0.866287  0  0  0.403189  0  0.928476  0  0  0.413717  0  0.913224  0  0  0.304624  0.39538  0  0.939784  0
H  H7  1  0.80140886  0.49224457  0.89308566  1  0  0.433694  0  0.866282  0  0  0.403202  0  0.928463  0  0  0.41373  0  0.913212  0  0  0.304638  0.395391  0  0.939774  0
H  H8  1  0.80140656  0.00775491  0.10691526  1  0  0.433678  0  0.866302  0  0  0.403178  0  0.9285  0  0  0.413706  0  0.913247  0  0  0.304622  0.395365  0  0.939814  0
H  H9  1  0.19859203  0.50775757  0.10691395  1  0  0.433698  0  0.866271  0  0  0.403199  0  0.928467  0  0  0.413724  0  0.913218  0  0  0.304633  0.395389  0  0.939777  0
H  H10  1  0.01323981  0.14507188  0.02535935  1  0  0.429225  0  0.867389  0  0  0.398758  0  0.937302  0  0  0.409394  0  0.921936  0  0  0.309012  0.391156  0  0.948342  0
H  H11  1  0.98676120  0.64507276  0.02535915  1  0  0.429219  0  0.867382  0  0  0.398757  0  0.937301  0  0  0.409393  0  0.921934  0  0  0.309001  0.391154  0  0.948342  0
H  H12  1  0.98676109  0.85492699  0.97464098  1  0  0.429235  0  0.867348  0  0  0.398773  0  0.937274  0  0  0.409409  0  0.921906  0  0  0.309019  0.391168  0  0.948317  0
H  H13  1  0.01323801  0.35492830  0.97463916  1  0  0.429217  0  0.867395  0  0  0.398761  0  0.937295  0  0  0.409395  0  0.921932  0  0  0.309002  0.391159  0  0.948336  0
H  H14  1  0.94500691  0.23668432  0.17409093  1  0  0.423297  0  0.855883  0  0  0.391855  0  0.934149  0  0  0.401409  0  0.921072  0  0  0.310331  0.384853  0  0.942575  0
H  H15  1  0.05499369  0.73668362  0.17409236  1  0  0.423306  0  0.855881  0  0  0.391871  0  0.934133  0  0  0.401426  0  0.921051  0  0  0.310337  0.384867  0  0.942559  0
H  H16  1  0.05499398  0.76331673  0.82590923  1  0  0.423275  0  0.855914  0  0  0.39184  0  0.93416  0  0  0.401395  0  0.921093  0  0  0.310326  0.384836  0  0.942586  0
H  H17  1  0.94500552  0.26331524  0.82590890  1  0  0.423289  0  0.855888  0  0  0.391848  0  0.934151  0  0  0.401401  0  0.921081  0  0  0.310321  0.384846  0  0.942576  0
H  H18  1  0.86736619  0.98793311  0.59698188  1  0  0.320146  0  0.906851  0  0  0.293852  0  0.984042  0  0  0.303888  0  0.975015  0  0  0.307574  0.286433  0  0.990977  0
H  H19  1  0.13263661  0.48793446  0.59698268  1  0  0.320122  0  0.906807  0  0  0.293819  0  0.98401  0  0  0.303852  0  0.974987  0  0  0.30756  0.286401  0  0.990941  0
H  H20  1  0.13263638  0.01206578  0.40301661  1  0  0.320144  0  0.906776  0  0  0.293826  0  0.983988  0  0  0.30386  0  0.974964  0  0  0.30757  0.286407  0  0.99092  0
H  H21  1  0.86736428  0.51206984  0.40301859  1  0  0.320139  0  0.906868  0  0  0.293828  0  0.984072  0  0  0.30386  0  0.975052  0  0  0.307585  0.28641  0  0.991008  0
H  H22  1  0.34334740  0.71861023  0.62568589  1  0  0.101671  0  0.934154  0  0  0.113863  0  0.999203  0  0  0.115916  0  0.998577  0  0  0.103839  0.11223  0  1.000027  0
H  H23  1  0.65665117  0.21860969  0.62568442  1  0  0.101664  0  0.93416  0  0  0.113867  0  0.999202  0  0  0.11592  0  0.998576  0  0  0.103841  0.112236  0  1.000026  0
H  H24  1  0.65665181  0.28138972  0.37431482  1  0  0.101668  0  0.934155  0  0  0.113881  0  0.999176  0  0  0.115935  0  0.998548  0  0  0.103844  0.112249  0  1.000001  0
H  H25  1  0.34334636  0.78138918  0.37431592  1  0  0.101696  0  0.934163  0  0  0.113878  0  0.999203  0  0  0.115929  0  0.998579  0  0  0.103846  0.112245  0  1.000028  0
H  H26  1  0.32398795  0.88971219  0.60907279  1  0  0.097233  0  0.932682  0  0  0.112367  0  0.992967  0  0  0.114261  0  0.992743  0  0  0.099715  0.110858  0  0.99341  0
H  H27  1  0.67601117  0.38971274  0.60907167  1  0  0.097248  0  0.932643  0  0  0.112366  0  0.992954  0  0  0.114259  0  0.992729  0  0  0.099718  0.110859  0  0.993392  0
H  H28  1  0.67601295  0.11028669  0.39092755  1  0  0.097236  0  0.932639  0  0  0.112346  0  0.992965  0  0  0.114239  0  0.99274  0  0  0.099713  0.11084  0  0.993405  0
H  H29  1  0.32398804  0.61028722  0.39092812  1  0  0.097297  0  0.932657  0  0  0.1124  0  0.992962  0  0  0.114294  0  0.992737  0  0  0.099723  0.110891  0  0.993405  0
C  C30  1  0.66373795  0.82062193  0.62489690  1  0  0.014032  0  3.576038  0  0  0.017073  0  3.814764  0  0  0.014335  0  3.826476  0  0  0.088626  0.018941  0  3.806667  0
C  C31  1  0.33625755  0.32062016  0.62489359  1  0  0.014087  0  3.576011  0  0  0.017165  0  3.814723  0  0  0.014427  0  3.826436  0  0  0.088672  0.01903  0  3.806644  0
C  C32  1  0.33625958  0.17937802  0.37510473  1  0  0.014039  0  3.576068  0  0  0.017101  0  3.814805  0  0  0.01436  0  3.826535  0  0  0.088638  0.018975  0  3.806696  0
C  C33  1  0.66373662  0.67937766  0.37510361  1  0  0.014047  0  3.576055  0  0  0.0171  0  3.814784  0  0  0.014361  0  3.826497  0  0  0.088642  0.018972  0  3.806679  0
C  C34  1  0.78964083  0.67475482  0.58472381  1  0  0.552324  0  3.725106  0  0  0.499748  0  4.018402  0  0  0.529482  0  4.016532  0  0  0.257871  0.479363  0  4.019358  0
C  C35  1  0.21036790  0.17475621  0.58472361  1  0  0.55238  0  3.724825  0  0  0.499761  0  4.01814  0  0  0.529496  0  4.016269  0  0  0.257907  0.479374  0  4.019098  0
C  C36  1  0.21036680  0.32524405  0.41527652  1  0  0.552358  0  3.724803  0  0  0.499753  0  4.018119  0  0  0.529487  0  4.016249  0  0  0.257917  0.47937  0  4.019074  0
C  C37  1  0.78963972  0.82524701  0.41527637  1  0  0.552284  0  3.725062  0  0  0.499719  0  4.018319  0  0  0.529452  0  4.01645  0  0  0.25786  0.479332  0  4.019277  0
C  C38  1  0.41660494  0.78678137  0.57604222  1  0  -0.148837  0  3.594767  0  0  -0.194844  0  3.85193  0  0  -0.196019  0  3.862975  0  0  -0.156284  -0.193779  0  3.8443  0
C  C39  1  0.58339404  0.28678188  0.57604121  1  0  -0.148807  0  3.594614  0  0  -0.19482  0  3.851844  0  0  -0.195994  0  3.862887  0  0  -0.156276  -0.193754  0  3.844217  0
C  C40  1  0.58339259  0.21321751  0.42395720  1  0  -0.148842  0  3.594701  0  0  -0.194841  0  3.851918  0  0  -0.196015  0  3.86296  0  0  -0.156289  -0.193776  0  3.844287  0
C  C41  1  0.41660517  0.71321809  0.42395766  1  0  -0.148961  0  3.59482  0  0  -0.194915  0  3.851985  0  0  -0.196088  0  3.863026  0  0  -0.156309  -0.193849  0  3.844356  0
C  C42  1  0.65707416  0.91272832  0.77475176  1  0  0.659457  0  3.92397  0  0  0.607734  0  4.226586  0  0  0.642216  0  4.216895  0  0  0.223116  0.58415  0  4.232158  0
C  C43  1  0.34291924  0.41274287  0.77474480  1  0  0.659181  0  3.92418  0  0  0.607391  0  4.226891  0  0  0.641871  0  4.21721  0  0  0.222952  0.583809  0  4.232454  0
C  C44  1  0.34291832  0.08725746  0.22525610  1  0  0.659285  0  3.924076  0  0  0.607479  0  4.226812  0  0  0.641961  0  4.217125  0  0  0.222969  0.583894  0  4.232381  0
C  C45  1  0.65707155  0.58727128  0.22524783  1  0  0.659399  0  3.923913  0  0  0.607584  0  4.226659  0  0  0.642067  0  4.216971  0  0  0.223046  0.584001  0  4.232232  0
N  N46  1  0.77241182  0.89663154  0.54705214  1  0  -0.432499  0  3.256235  0  0  -0.379947  0  3.501917  0  0  -0.401355  0  3.509012  0  0  -0.400175  -0.365252  0  3.497385  0
N  N47  1  0.22758591  0.39662863  0.54704857  1  0  -0.432405  0  3.256199  0  0  -0.379844  0  3.501929  0  0  -0.401251  0  3.509029  0  0  -0.400113  -0.365156  0  3.497404  0
N  N48  1  0.22758739  0.10337056  0.45295209  1  0  -0.432457  0  3.256163  0  0  -0.379867  0  3.501881  0  0  -0.401274  0  3.508981  0  0  -0.400117  -0.365172  0  3.497345  0
N  N49  1  0.77241499  0.60337136  0.45294844  1  0  -0.432496  0  3.256288  0  0  -0.379924  0  3.502001  0  0  -0.401332  0  3.509101  0  0  -0.400183  -0.365236  0  3.497474  0
O  O50  1  0.21989468  0.09488638  0.90046909  1  0  -0.875465  0  1.936494  0  0  -0.818156  0  2.128714  0  0  -0.839441  0  2.099261  0  0  -0.595805  -0.802848  0  2.150222  0
O  O51  1  0.78010740  0.59488499  0.90046839  1  0  -0.87547  0  1.936546  0  0  -0.818165  0  2.128726  0  0  -0.839449  0  2.099264  0  0  -0.595811  -0.802858  0  2.150235  0
O  O52  1  0.78010622  0.90511357  0.09953162  1  0  -0.875449  0  1.936561  0  0  -0.81814  0  2.128737  0  0  -0.839426  0  2.099285  0  0  -0.5958  -0.802829  0  2.150248  0
O  O53  1  0.21989517  0.40511173  0.09952936  1  0  -0.875397  0  1.936566  0  0  -0.818103  0  2.12879  0  0  -0.839387  0  2.099348  0  0  -0.595808  -0.802796  0  2.150292  0
O  O54  1  0.88804851  0.16356999  0.09137618  1  0  -0.852824  0  1.911382  0  0  -0.792725  0  2.110589  0  0  -0.813121  0  2.080659  0  0  -0.586809  -0.777717  0  2.13096  0
O  O55  1  0.11195393  0.66357043  0.09137607  1  0  -0.852832  0  1.911385  0  0  -0.792733  0  2.110571  0  0  -0.813128  0  2.080634  0  0  -0.586793  -0.777727  0  2.130944  0
O  O56  1  0.11195575  0.83642996  0.90862453  1  0  -0.852811  0  1.911382  0  0  -0.792706  0  2.110568  0  0  -0.813104  0  2.080635  0  0  -0.586806  -0.777703  0  2.130943  0
O  O57  1  0.88804864  0.33642955  0.90862280  1  0  -0.852801  0  1.911388  0  0  -0.79272  0  2.110594  0  0  -0.813112  0  2.080662  0  0  -0.586787  -0.777724  0  2.130985  0
O  O58  1  0.90136497  0.63000754  0.66082196  1  0  -0.585484  0  2.035341  0  0  -0.525753  0  2.260677  0  0  -0.547618  0  2.251354  0  0  -0.280303  -0.510421  0  2.267228  0
O  O59  1  0.09863657  0.13000340  0.66082740  1  0  -0.585609  0  2.035011  0  0  -0.525819  0  2.260336  0  0  -0.547683  0  2.251006  0  0  -0.280372  -0.510484  0  2.266887  0
O  O60  1  0.09863760  0.36999573  0.33917248  1  0  -0.585585  0  2.034972  0  0  -0.525813  0  2.260288  0  0  -0.547673  0  2.250952  0  0  -0.280388  -0.510483  0  2.266837  0
O  O61  1  0.90136601  0.86999542  0.33917847  1  0  -0.585448  0  2.035303  0  0  -0.525682  0  2.260597  0  0  -0.547545  0  2.25127  0  0  -0.280277  -0.510353  0  2.267155  0
O  O62  1  0.70629253  0.04511428  0.80891915  1  0  -0.668314  0  1.965086  0  0  -0.616395  0  2.210661  0  0  -0.640911  0  2.199752  0  0  -0.347921  -0.598647  0  2.218094  0
O  O63  1  0.29370981  0.54511160  0.80891310  1  0  -0.668104  0  1.965648  0  0  -0.616153  0  2.211232  0  0  -0.640663  0  2.200328  0  0  -0.347811  -0.598405  0  2.218656  0
O  O64  1  0.29370836  0.95488889  0.19108729  1  0  -0.668101  0  1.965559  0  0  -0.616166  0  2.211187  0  0  -0.640673  0  2.200276  0  0  -0.347816  -0.598419  0  2.218613  0
O  O65  1  0.70629445  0.45488625  0.19108040  1  0  -0.668298  0  1.965116  0  0  -0.616333  0  2.210714  0  0  -0.640851  0  2.199812  0  0  -0.347909  -0.598583  0  2.218143  0
O  O66  1  0.58778276  0.84608289  0.84632395  1  0  -0.676868  0  2.013397  0  0  -0.621339  0  2.26682  0  0  -0.647702  0  2.256947  0  0  -0.361185  -0.602075  0  2.273305  0
O  O67  1  0.41222193  0.34608329  0.84632590  1  0  -0.676903  0  2.01299  0  0  -0.621333  0  2.266422  0  0  -0.647702  0  2.256554  0  0  -0.361151  -0.602066  0  2.27291  0
O  O68  1  0.41222150  0.15391708  0.15367492  1  0  -0.676948  0  2.012978  0  0  -0.621371  0  2.266421  0  0  -0.647742  0  2.256552  0  0  -0.361137  -0.602107  0  2.272912  0
O  O69  1  0.58778065  0.65391882  0.15367740  1  0  -0.676834  0  2.013294  0  0  -0.621291  0  2.266786  0  0  -0.647654  0  2.256916  0  0  -0.361143  -0.602027  0  2.273276  0
