# generated using pymatgen
data_Zn2H50C49(N2O3)3
_symmetry_space_group_name_H-M   'P 1'
_cell_length_a   15.80927385
_cell_length_b   16.02823964
_cell_length_c   16.96317932
_cell_angle_alpha   85.72788621
_cell_angle_beta   89.81324191
_cell_angle_gamma   88.03074329
_symmetry_Int_Tables_number   1
_chemical_formula_structural   Zn2H50C49(N2O3)3
_chemical_formula_sum   'Zn2 H50 C49 N6 O9'
_cell_volume   4283.90632758
_cell_formula_units_Z   1
loop_
 _symmetry_equiv_pos_site_id
 _symmetry_equiv_pos_as_xyz
  1  'x, y, z'
loop_
 _atom_site_type_symbol
 _atom_site_label
 _atom_site_symmetry_multiplicity
 _atom_site_fract_x
 _atom_site_fract_y
 _atom_site_fract_z
 _atom_site_occupancy
 _atom_site_pbe_bader_charge
 _atom_site_pbe_bader_spin_density
 _atom_site_pbe_cm5_charge
 _atom_site_pbe_ddec_charge
 _atom_site_pbe_ddec_spin_density
 _atom_site_pbe_ddec_sum_bond_order
 _atom_site_pbe_magmom
Zn  Zn0  1  0.50281559  0.59718370  0.50061844  1  1.289066  0  0.672242  0.831604  0  2.404555  0
Zn  Zn1  1  0.50292585  0.41645974  0.49891390  1  1.303879  0  0.676145  0.852189  0  2.37176  0
H  H2  1  0.07371509  0.55535992  0.38442741  1  0.005074  0  0.09513  0.064243  0  0.963748  0
H  H3  1  0.93790362  0.63161877  0.48660465  1  0.029384  0  0.092558  0.09373  0  0.989102  0
H  H4  1  0.06454518  0.45616155  0.62499068  1  0.025021  0  0.093461  0.092824  0  0.97832  0
H  H5  1  0.53286729  0.61189259  0.74669783  1  0.076898  0  0.103526  0.108039  0  1.001748  0
H  H6  1  0.51024330  0.60331505  0.89407980  1  0.103594  0  0.103288  0.102151  0  1.024991  0
H  H7  1  0.53454815  0.63255795  0.10047812  1  0.071724  0  0.104896  0.106475  0  0.999194  0
H  H8  1  0.52931174  0.63610889  0.24910561  1  0.092721  0  0.105247  0.112277  0  1.007462  0
H  H9  1  0.52151187  0.34508716  0.74744283  1  0.081215  0  0.103937  0.107804  0  1.002458  0
H  H10  1  0.49667277  0.33619041  0.89538294  1  0.075448  0  0.104464  0.105842  0  0.998918  0
H  H11  1  0.93297384  0.60331756  0.38796914  1  0.010106  0  0.091616  0.091854  0  0.989943  0
H  H12  1  0.38131341  0.41641309  0.26219561  1  0.076813  0  0.103925  0.11264  0  1.000737  0
H  H13  1  0.55791993  0.91260283  0.42557161  1  0.12269  0  0.112418  0.121482  0  1.016393  0
H  H14  1  0.54443787  0.13063734  0.37892209  1  0.08378  0  0.115463  0.129962  0  1.023641  0
H  H15  1  0.42911238  0.70380274  0.61064380  1  0.132656  0  0.129809  0.107113  0  0.973649  0
H  H16  1  0.42530262  0.12115469  0.60841320  1  0.105769  0  0.11574  0.130326  0  1.001826  0
H  H17  1  0.41102039  0.85667366  0.63619807  1  0.102271  0  0.120007  0.133197  0  0.978464  0
H  H18  1  0.43501111  0.27881514  0.60360594  1  0.117936  0  0.132731  0.109745  0  0.962559  0
H  H19  1  0.93738723  0.36855351  0.45085048  1  0.036121  0  0.092491  0.09287  0  0.981727  0
H  H20  1  0.96569976  0.44095756  0.37244095  1  -0.025738  0  0.091258  0.090499  0  0.979986  0
H  H21  1  0.10591490  0.40986399  0.41574935  1  0.022351  0  0.092622  0.091981  0  0.982593  0
H  H22  1  0.07279384  0.36704050  0.50929041  1  0.022499  0  0.091812  0.091341  0  0.979244  0
H  H23  1  0.90041354  0.52852403  0.59982202  1  0.037244  0  0.09519  0.096322  0  0.975662  0
H  H24  1  0.92686382  0.42206027  0.58901132  1  0.039707  0  0.093497  0.092567  0  0.975728  0
H  H25  1  0.04273177  0.56438975  0.60643965  1  0.038172  0  0.092808  0.089661  0  1.010621  0
H  H26  1  0.20799026  0.77698674  0.50206311  1  -0.002514  0  0.084009  0.111711  0  1.005719  0
H  H27  1  0.10952173  0.82887411  0.47732064  1  0.002617  0  0.079754  0.101157  0  1.013088  0
H  H28  1  0.14129449  0.81296103  0.57793090  1  0.014426  0  0.080749  0.103938  0  1.010166  0
H  H29  1  0.03332338  0.70869695  0.54831244  1  0.008836  0  0.081647  0.064751  0  0.992417  0
H  H30  1  0.13222803  0.65824043  0.57226949  1  0.031397  0  0.086951  0.07684  0  0.997601  0
H  H31  1  0.16712770  0.65018378  0.43095939  1  0.047536  0  0.090685  0.089312  0  0.988967  0
H  H32  1  0.07186074  0.70426137  0.40236508  1  0.011821  0  0.085329  0.077801  0  0.982095  0
H  H33  1  0.26523131  0.34988256  0.97844244  1  0.027961  0  0.084237  0.11065  0  1.002767  0
H  H34  1  0.20379483  0.33576624  0.06609405  1  0.001348  0  0.081288  0.104052  0  1.007992  0
H  H35  1  0.17509944  0.41627972  0.99240297  1  0.03641  0  0.085433  0.110852  0  1.003661  0
H  H36  1  0.24736808  0.47826059  0.10508949  1  0.008152  0  0.085817  0.073373  0  0.975728  0
H  H37  1  0.30806793  0.49081806  0.01789354  1  0.009162  0  0.087002  0.078193  0  0.984492  0
H  H38  1  0.39737213  0.36271329  0.06450538  1  0.03389  0  0.088504  0.079728  0  1.033881  0
H  H39  1  0.33719924  0.35467189  0.15318531  1  0.027677  0  0.088872  0.085405  0  0.982523  0
H  H40  1  0.71129166  0.64924127  0.32614131  1  0.036905  0  0.087449  0.11944  0  1.003978  0
H  H41  1  0.71393536  0.74989482  0.27458898  1  0.049527  0  0.079363  0.099839  0  1.010729  0
H  H42  1  0.79795790  0.71409861  0.33940124  1  0.014519  0  0.084062  0.109696  0  1.010838  0
H  H43  1  0.70323524  0.81523132  0.40745660  1  -0.024289  0  0.080152  0.062489  0  0.988371  0
H  H44  1  0.69789844  0.71311440  0.45519333  1  0.066193  0  0.09121  0.091868  0  0.993701  0
H  H45  1  0.56641250  0.69003979  0.37545169  1  0.120849  0  0.102865  0.120973  0  1.04142  0
H  H46  1  0.56985829  0.79496815  0.33535364  1  0.019544  0  0.096052  0.100084  0  0.967171  0
H  H47  1  0.55082053  0.23423157  0.27596713  1  0.046514  0  0.104076  0.062312  0  0.959776  0
H  H48  1  0.64907242  0.22191838  0.32884414  1  0.049355  0  0.103647  0.060432  0  0.962569  0
H  H49  1  0.67665922  0.37460231  0.29263736  1  0.055044  0  0.100011  0.141576  0  0.98492  0
H  H50  1  0.66675304  0.31719049  0.20685239  1  0.057899  0  0.096271  0.126482  0  0.991168  0
H  H51  1  0.58134196  0.38353366  0.23621394  1  0.075243  0  0.094082  0.134373  0  1.01545  0
C  C52  1  0.46327257  0.52007939  0.35219817  1  1.58496  0  0.215898  0.590728  0  4.175976  0
C  C53  1  0.05631554  0.57613067  0.44307998  1  -0.004548  0  -0.078909  -0.012961  0  3.783548  0
C  C54  1  0.08574691  0.50172972  0.50301816  1  0.124409  0  0.002091  0.140638  0  3.86515  0
C  C55  1  0.03592639  0.50357580  0.58205527  1  -0.022511  0  -0.155395  -0.187598  0  3.855271  0
C  C56  1  0.94205896  0.48630785  0.56789160  1  -0.049243  0  -0.152046  -0.183965  0  3.851382  0
C  C57  1  0.17575638  0.50272689  0.51793569  1  -0.473954  0  -0.027355  -0.037048  0  4.054218  0
C  C58  1  0.83161104  0.49854384  0.46700065  1  -0.38117  0  -0.030258  -0.047055  0  4.040839  0
C  C59  1  0.75473621  0.50000267  0.46325219  1  0.032215  0  -0.064825  -0.225108  0  4.006749  0
C  C60  1  0.45768168  0.52418908  0.26398149  1  -0.055309  0  -0.012734  -0.012876  0  3.974515  0
C  C61  1  0.41541645  0.46315252  0.22569175  1  -0.021878  0  -0.085924  -0.159544  0  3.95746  0
C  C62  1  0.41607399  0.46003574  0.14362099  1  0.022536  0  0.002117  0.067571  0  3.902489  0
C  C63  1  0.66338610  0.50495217  0.46890894  1  1.685129  0  0.217214  0.669388  0  4.242798  0
C  C64  1  0.46430689  0.52090158  0.09960146  1  0.387611  0  0.089232  0.113399  0  4.018936  0
C  C65  1  0.50142901  0.58566663  0.13759467  1  -0.112769  0  -0.085484  -0.143772  0  3.999159  0
C  C66  1  0.49882363  0.58747547  0.21911146  1  0.012758  0  -0.088895  -0.098214  0  4.001095  0
C  C67  1  0.51241625  0.54754342  0.86111205  1  -0.115146  0  -0.08788  -0.14527  0  3.97071  0
C  C68  1  0.52512738  0.55198815  0.78018721  1  0.011327  0  -0.083453  -0.082979  0  3.98543  0
C  C69  1  0.50052796  0.46921921  0.90218789  1  0.419822  0  0.083468  0.16391  0  4.054136  0
C  C70  1  0.52692354  0.47909697  0.73877095  1  0.019063  0  -0.011648  -0.016151  0  3.936158  0
C  C71  1  0.51864528  0.40097866  0.78029745  1  -0.087059  0  -0.08382  -0.08783  0  3.982985  0
C  C72  1  0.50506633  0.39599251  0.86165088  1  -0.037296  0  -0.084025  -0.146692  0  3.975473  0
C  C73  1  0.45928534  0.24258692  0.55594361  1  0.493016  0  0.064302  0.137227  0  3.926765  0
C  C74  1  0.53147429  0.48660169  0.65028138  1  1.539343  0  0.212299  0.589941  0  4.175055  0
C  C75  1  0.45372073  0.15626389  0.55841489  1  0.034043  0  -0.089288  -0.226016  0  3.942522  0
C  C76  1  0.48623332  0.11600660  0.49339503  1  0.315076  0  0.10204  0.226605  0  4.056109  0
C  C77  1  0.52099733  0.16265685  0.42929681  1  0.035557  0  -0.088367  -0.315534  0  3.919333  0
C  C78  1  0.52543966  0.24950176  0.43270998  1  1.097195  0  0.22845  0.416997  0  4.055386  0
C  C79  1  0.52856702  0.86755131  0.46736362  1  -0.041125  0  -0.076526  -0.242587  0  3.893289  0
C  C80  1  0.53645269  0.78221169  0.45672849  1  0.524764  0  0.138833  0.29825  0  3.89881  0
C  C81  1  0.48253917  0.89568455  0.53127273  1  0.240923  0  0.101518  0.205635  0  4.049468  0
C  C82  1  0.45649571  0.75271599  0.57132701  1  0.510202  0  0.060003  0.116241  0  3.917772  0
C  C83  1  0.44654018  0.83683273  0.58535537  1  -0.014157  0  -0.074049  -0.196501  0  3.930227  0
C  C84  1  0.34259924  0.50858764  0.53146060  1  1.643689  0  0.214239  0.677095  0  4.241618  0
C  C85  1  0.95893250  0.58380356  0.44677984  1  0.008224  0  -0.154792  -0.228658  0  3.852444  0
C  C86  1  0.96961742  0.42746016  0.43688310  1  0.014494  0  -0.15676  -0.196477  0  3.874359  0
C  C87  1  0.06259614  0.42017854  0.46511983  1  -0.015288  0  -0.155039  -0.191655  0  3.875806  0
C  C88  1  0.25147059  0.50571433  0.52900150  1  0.175824  0  -0.064552  -0.224787  0  3.995064  0
C  C89  1  0.92255185  0.49882297  0.47793947  1  0.158453  0  0.000812  0.17688  0  3.886561  0
C  C90  1  0.10042793  0.65953703  0.44827378  1  -0.047954  0  -0.164646  -0.178722  0  3.931285  0
C  C91  1  0.09888585  0.70000719  0.52726679  1  0.002715  0  -0.169241  -0.09214  0  3.966898  0
C  C92  1  0.14165450  0.78444011  0.52094569  1  -0.040898  0  -0.246309  -0.352324  0  3.991927  0
C  C93  1  0.36095820  0.39894649  0.10612926  1  -0.012439  0  -0.164327  -0.195547  0  3.973832  0
C  C94  1  0.28486932  0.44359709  0.06255325  1  0.01266  0  -0.164874  -0.085408  0  3.950717  0
C  C95  1  0.22912186  0.38309302  0.02277061  1  -0.065637  0  -0.245303  -0.353092  0  3.989344  0
C  C96  1  0.58594613  0.75270170  0.38785026  1  -0.027187  0  -0.161633  -0.248432  0  3.931021  0
C  C97  1  0.68252114  0.75126627  0.40027708  1  0.013787  0  -0.164538  -0.081428  0  3.949453  0
C  C98  1  0.72903290  0.71434772  0.33115291  1  -0.090662  0  -0.245064  -0.351036  0  3.97565  0
C  C99  1  0.59834155  0.26724810  0.30825505  1  0.405933  0  -0.05383  0.095173  0  3.889349  0
C  C100  1  0.63284351  0.34031708  0.25796823  1  -0.099684  0  -0.238618  -0.391584  0  3.942489  0
N  N101  1  0.48034309  0.52652588  0.01787478  1  -0.505349  0  -0.151202  -0.134292  0  3.340244  0
N  N102  1  0.48306577  0.45853171  0.98411724  1  -0.468584  0  -0.146854  -0.130093  0  3.277136  0
N  N103  1  0.49508448  0.28810588  0.49539797  1  -1.231849  0  -0.316564  -0.289558  0  3.446455  0
N  N104  1  0.48841199  0.02893416  0.48410914  1  -0.440438  0  -0.130994  -0.110126  0  3.264414  0
N  N105  1  0.47313950  0.98209171  0.54526018  1  -0.417027  0  -0.129382  -0.112975  0  3.190607  0
N  N106  1  0.50009728  0.72583886  0.50895549  1  -1.211802  0  -0.305937  -0.242073  0  3.415363  0
O  O107  1  0.48547179  0.58642083  0.38253706  1  -1.174752  0  -0.315373  -0.550446  0  2.37693  0
O  O108  1  0.44863209  0.45064001  0.38990643  1  -1.164175  0  -0.314406  -0.544744  0  2.336952  0
O  O109  1  0.63131738  0.57588602  0.48429549  1  -1.150515  0  -0.304693  -0.53254  0  2.293358  0
O  O110  1  0.62366477  0.43858275  0.45938347  1  -1.145502  0  -0.31636  -0.554182  0  2.294236  0
O  O111  1  0.52013394  0.56037770  0.61763251  1  -1.171673  0  -0.318069  -0.557459  0  2.359486  0
O  O112  1  0.54330231  0.41989548  0.61485514  1  -1.165913  0  -0.320499  -0.550912  0  2.29659  0
O  O113  1  0.37394912  0.58052507  0.51775032  1  -1.154258  0  -0.319746  -0.553465  0  2.24688  0
O  O114  1  0.38294059  0.43880826  0.54494909  1  -1.151044  0  -0.322208  -0.560554  0  2.268859  0
O  O115  1  0.55859638  0.30110944  0.37647698  1  -1.059355  0  -0.145625  -0.179331  0  2.564723  0
