# generated using pymatgen
data_ZnH13C24(NO2)3
_symmetry_space_group_name_H-M   'P 1'
_cell_length_a   11.77631818
_cell_length_b   13.16651944
_cell_length_c   23.82384195
_cell_angle_alpha   89.61354678
_cell_angle_beta   86.55945668
_cell_angle_gamma   85.20179094
_symmetry_Int_Tables_number   1
_chemical_formula_structural   ZnH13C24(NO2)3
_chemical_formula_sum   'Zn2 H26 C48 N6 O12'
_cell_volume   3674.37535450
_cell_formula_units_Z   2
loop_
 _symmetry_equiv_pos_site_id
 _symmetry_equiv_pos_as_xyz
  1  'x, y, z'
loop_
 _atom_site_type_symbol
 _atom_site_label
 _atom_site_symmetry_multiplicity
 _atom_site_fract_x
 _atom_site_fract_y
 _atom_site_fract_z
 _atom_site_occupancy
 _atom_site_pbe_bader_charge
 _atom_site_pbe_bader_spin_density
 _atom_site_pbe_cm5_charge
 _atom_site_pbe_ddec_charge
 _atom_site_pbe_ddec_spin_density
 _atom_site_pbe_ddec_sum_bond_order
 _atom_site_pbe_magmom
Zn  Zn0  1  0.61650650  0.49960977  0.49462997  1  1.278268  0  0.663473  0.808611  0  2.448305  0
Zn  Zn1  1  0.38349188  0.50038945  0.50536685  1  1.279816  0  0.663499  0.808734  0  2.448163  0
H  H2  1  0.49886997  0.75460863  0.94455627  1  0.089297  0  0.119188  0.124766  0  0.976319  0
H  H3  1  0.49780141  0.24373619  0.94932962  1  0.12357  0  0.118681  0.124599  0  0.977156  0
H  H4  1  0.67682983  0.43977046  0.21211141  1  0.06719  0  0.104552  0.116988  0  0.991983  0
H  H5  1  0.32317632  0.56023853  0.78788852  1  0.067221  0  0.104567  0.116991  0  0.992046  0
H  H6  1  0.66886981  0.44549047  0.31765682  1  0.091689  0  0.104461  0.108405  0  0.996376  0
H  H7  1  0.33113412  0.55452540  0.68234358  1  0.091619  0  0.104442  0.108455  0  0.996316  0
H  H8  1  0.32738204  0.56547543  0.21615699  1  0.069698  0  0.107795  0.124877  0  0.985691  0
H  H9  1  0.67262598  0.43454266  0.78384328  1  0.069524  0  0.107789  0.124816  0  0.985817  0
H  H10  1  0.35981991  0.18089034  0.49331464  1  0.095647  0  0.102812  0.107277  0  1.009744  0
H  H11  1  0.64016690  0.81910448  0.50668127  1  0.095825  0  0.102757  0.10718  0  1.009775  0
H  H12  1  0.72301352  0.17148386  0.50321651  1  0.078546  0  0.099694  0.103634  0  1.011453  0
H  H13  1  0.50112875  0.24539741  0.05544472  1  0.089369  0  0.119191  0.12475  0  0.976408  0
H  H14  1  0.27697794  0.82850554  0.49678389  1  0.078308  0  0.099732  0.103718  0  1.011658  0
H  H15  1  0.26386748  0.01888235  0.49267765  1  0.051161  0  0.099665  0.098403  0  0.999114  0
H  H16  1  0.73611973  0.98110712  0.50732161  1  0.051465  0  0.099618  0.09834  0  0.998966  0
H  H17  1  0.29722535  0.57839283  0.36871605  1  0.50629  0  0.288591  0.297136  0  1.020335  0
H  H18  1  0.23912793  0.62186147  0.30600305  1  0.432608  0  0.306483  0.300685  0  0.946086  0
H  H19  1  0.70277340  0.42162387  0.63128408  1  0.506149  0  0.288593  0.297114  0  1.020437  0
H  H20  1  0.76087759  0.37815592  0.69399310  1  0.432753  0  0.306532  0.300569  0  0.946377  0
H  H21  1  0.81688463  0.39919012  0.54583241  1  0.119881  0  0.132928  0.105581  0  0.9759  0
H  H22  1  0.18310905  0.60080383  0.45416540  1  0.119911  0  0.132945  0.105574  0  0.975973  0
H  H23  1  0.77144824  0.63316061  0.43049512  1  0.151343  0  0.135113  0.115046  0  0.964094  0
H  H24  1  0.22855480  0.36683320  0.56950325  1  0.151439  0  0.135122  0.115031  0  0.964042  0
H  H25  1  0.01813868  0.34273319  0.57895208  1  0.087114  0  0.122388  0.129242  0  0.972193  0
H  H26  1  0.98186407  0.65726444  0.42104587  1  0.087276  0  0.122381  0.129217  0  0.97196  0
H  H27  1  0.50220139  0.75627209  0.05066957  1  0.123579  0  0.11864  0.124504  0  0.977111  0
C  C28  1  0.46694777  0.69947395  0.50260369  1  1.543199  0  0.215415  0.598475  0  4.159827  0
C  C29  1  0.60465388  0.45970009  0.70195602  1  0.475669  0  0.110031  0.323399  0  4.056799  0
C  C30  1  0.40207054  0.53889081  0.23877010  1  0.019716  0  -0.101589  -0.279233  0  3.927642  0
C  C31  1  0.59793703  0.46112196  0.76123020  1  0.020106  0  -0.101654  -0.27925  0  3.927816  0
C  C32  1  0.50194567  0.50352763  0.20909329  1  0.281753  0  0.088026  0.221361  0  4.053506  0
C  C33  1  0.49806212  0.49648209  0.79090742  1  0.281082  0  0.08794  0.221157  0  4.053877  0
C  C34  1  0.53976880  0.18646593  0.49848686  1  0.024503  0  -0.018608  -0.0282  0  3.979335  0
C  C35  1  0.46021534  0.81353043  0.50151248  1  0.02459  0  -0.018589  -0.028141  0  3.97923  0
C  C36  1  0.34609390  0.97502214  0.49585853  1  -0.103115  0  -0.091609  -0.134351  0  4.007816  0
C  C37  1  0.65389103  0.02497498  0.50414121  1  -0.103182  0  -0.09164  -0.134389  0  4.007402  0
C  C38  1  0.35287033  0.87024564  0.49790528  1  -0.016837  0  -0.091529  -0.102682  0  4.014504  0
C  C39  1  0.53304993  0.30052299  0.49739357  1  1.543214  0  0.21535  0.598344  0  4.159821  0
C  C40  1  0.64711544  0.12975146  0.50209610  1  -0.01723  0  -0.091402  -0.102482  0  4.014164  0
C  C41  1  0.55850504  0.86377135  0.50363804  1  -0.011751  0  -0.078798  -0.134188  0  3.930568  0
C  C42  1  0.44148267  0.13622268  0.49636078  1  -0.011028  0  -0.078919  -0.134409  0  3.930677  0
C  C43  1  0.49721511  0.50692088  0.38879624  1  1.534093  0  0.212967  0.606383  0  4.148604  0
C  C44  1  0.50278945  0.49308662  0.61120121  1  1.533787  0  0.213004  0.606397  0  4.148459  0
C  C45  1  0.55427244  0.97140821  0.50207774  1  -0.059509  0  -0.005443  0.078215  0  3.997462  0
C  C46  1  0.44570931  0.02858591  0.49792167  1  -0.001412  0  -0.005378  0.078296  0  3.997654  0
C  C47  1  0.05143016  0.40002506  0.55062516  1  0.060934  0  -0.065041  -0.154241  0  3.956697  0
C  C48  1  0.94856686  0.59996959  0.44937632  1  0.060903  0  -0.065021  -0.154113  0  3.956221  0
C  C49  1  0.16640382  0.41263216  0.54587001  1  0.368791  0  0.056598  0.086937  0  3.910284  0
C  C50  1  0.59970946  0.46864312  0.23635514  1  0.027037  0  -0.106935  -0.200924  0  4.024465  0
C  C51  1  0.83359059  0.58736330  0.45412903  1  0.368901  0  0.056562  0.086719  0  3.910585  0
C  C52  1  0.14262800  0.54427329  0.48047190  1  0.535249  0  0.085393  0.07942  0  3.846879  0
C  C53  1  0.85737214  0.45572514  0.51952613  1  0.535351  0  0.08532  0.07927  0  3.846718  0
C  C54  1  0.02321403  0.53731660  0.48182666  1  -0.002961  0  0.013972  0.05343  0  4.010165  0
C  C55  1  0.97678639  0.46267799  0.51817683  1  0.052848  0  0.013957  0.053394  0  4.010389  0
C  C56  1  0.49571056  0.40265730  0.87965679  1  1.322267  0  0.243133  0.43877  0  4.098576  0
C  C57  1  0.50429559  0.59735169  0.12034397  1  1.322303  0  0.243098  0.438801  0  4.098833  0
C  C58  1  0.49778729  0.59339423  0.87781693  1  1.335255  0  0.243688  0.436576  0  4.096443  0
C  C59  1  0.50221278  0.40661637  0.12218234  1  1.33444  0  0.243518  0.436164  0  4.096332  0
C  C60  1  0.49822207  0.59271715  0.94010355  1  0.00019  0  -0.003614  -0.058177  0  3.982976  0
C  C61  1  0.40029913  0.53136735  0.76364513  1  0.027667  0  -0.106829  -0.200783  0  4.024505  0
C  C62  1  0.50177085  0.40728668  0.05989888  1  0.000198  0  -0.003555  -0.057914  0  3.982738  0
C  C63  1  0.49897988  0.49954525  0.97013142  1  -0.010317  0  0.004317  0.031849  0  4.000443  0
C  C64  1  0.50101559  0.50045855  0.02987135  1  0.067588  0  0.004239  0.031717  0  4.000426  0
C  C65  1  0.49777962  0.40544739  0.94186301  1  -0.05358  0  -0.004512  -0.061792  0  3.985514  0
C  C66  1  0.50221830  0.59455790  0.05813801  1  -0.053706  0  -0.004434  -0.061667  0  3.985538  0
C  C67  1  0.49934246  0.68410601  0.96882787  1  0.011029  0  -0.062576  -0.069559  0  3.931667  0
C  C68  1  0.50065410  0.31589475  0.03117151  1  0.011011  0  -0.062594  -0.069626  0  3.931696  0
C  C69  1  0.50128312  0.68503050  0.02771679  1  -0.000708  0  -0.06253  -0.069787  0  3.93276  0
C  C70  1  0.49871605  0.31496944  0.97228503  1  -0.00068  0  -0.0625  -0.069772  0  3.932701  0
C  C71  1  0.59451356  0.47116411  0.29466819  1  -0.014626  0  -0.082324  -0.054561  0  4.015849  0
C  C72  1  0.40549559  0.52885016  0.70533164  1  -0.015405  0  -0.082372  -0.054764  0  4.015917  0
C  C73  1  0.49460106  0.50595119  0.32643849  1  -0.032431  0  -0.032307  -0.164864  0  3.91926  0
C  C74  1  0.50540827  0.49406079  0.67356092  1  -0.031408  0  -0.032303  -0.164755  0  3.919117  0
C  C75  1  0.39535612  0.54031417  0.29804337  1  0.475647  0  0.109987  0.32335  0  4.056667  0
N  N76  1  0.49639950  0.49751043  0.85166449  1  -1.217309  0  -0.228049  -0.221461  0  3.568877  0
N  N77  1  0.50360013  0.50248342  0.14833650  1  -1.217269  0  -0.228072  -0.221578  0  3.568914  0
N  N78  1  0.78958532  0.51578640  0.48898735  1  -1.220719  0  -0.304658  -0.168041  0  3.511212  0
N  N79  1  0.21041159  0.48420980  0.51100868  1  -1.22034  0  -0.304754  -0.168329  0  3.51125  0
N  N80  1  0.29400733  0.57330777  0.32622832  1  -1.279743  0  -0.602513  -0.635087  0  3.344651  0
N  N81  1  0.70599836  0.42670733  0.67376993  1  -1.279878  0  -0.602538  -0.634892  0  3.345257  0
O  O82  1  0.56648459  0.65247965  0.50001033  1  -1.163968  0  -0.321543  -0.561148  0  2.339142  0
O  O83  1  0.50628775  0.67708464  0.14663184  1  -1.094181  0  -0.278329  -0.434713  0  2.064289  0
O  O84  1  0.49944043  0.67200889  0.84985734  1  -1.094433  0  -0.274535  -0.428107  0  2.062963  0
O  O85  1  0.50056000  0.32798569  0.15014699  1  -1.093526  0  -0.274525  -0.428017  0  2.062193  0
O  O86  1  0.43351209  0.34751960  0.49998569  1  -1.163848  0  -0.321577  -0.561143  0  2.339015  0
O  O87  1  0.37315695  0.65745750  0.50579989  1  -1.166352  0  -0.321926  -0.547878  0  2.313633  0
O  O88  1  0.62683996  0.34253871  0.49419403  1  -1.16621  0  -0.32187  -0.547749  0  2.313613  0
O  O89  1  0.59456600  0.49945983  0.40989010  1  -1.159998  0  -0.321627  -0.551026  0  2.323847  0
O  O90  1  0.40543539  0.50054467  0.59010872  1  -1.1601  0  -0.321666  -0.551056  0  2.323614  0
O  O91  1  0.40152537  0.51506994  0.41807882  1  -1.177146  0  -0.318473  -0.559489  0  2.338628  0
O  O92  1  0.59847869  0.48493300  0.58191824  1  -1.176879  0  -0.318432  -0.55949  0  2.338633  0
O  O93  1  0.49372364  0.32291133  0.85336754  1  -1.094085  0  -0.278457  -0.434839  0  2.063636  0
