# generated using pymatgen
data_SnH21C15NO4
_symmetry_space_group_name_H-M   'P 1'
_cell_length_a   9.53952862
_cell_length_b   14.20911917
_cell_length_c   22.76096237
_cell_angle_alpha   78.14433267
_cell_angle_beta   77.90205917
_cell_angle_gamma   70.39529209
_symmetry_Int_Tables_number   1
_chemical_formula_structural   SnH21C15NO4
_chemical_formula_sum   'Sn6 H126 C90 N6 O24'
_cell_volume   2811.06668053
_cell_formula_units_Z   6
loop_
 _symmetry_equiv_pos_site_id
 _symmetry_equiv_pos_as_xyz
  1  'x, y, z'
loop_
 _atom_site_type_symbol
 _atom_site_label
 _atom_site_symmetry_multiplicity
 _atom_site_fract_x
 _atom_site_fract_y
 _atom_site_fract_z
 _atom_site_occupancy
 _atom_site_pbe_bader_charge
 _atom_site_pbe_bader_spin_density
 _atom_site_pbe_cm5_charge
 _atom_site_pbe_ddec_charge
 _atom_site_pbe_ddec_spin_density
 _atom_site_pbe_ddec_sum_bond_order
 _atom_site_pbe_magmom
Sn  Sn0  1  0.38938656  0.13372955  0.76446079  1  1.85536  0  0.602367  1.177488  0  3.311932  0
Sn  Sn1  1  0.71242987  0.63376378  0.26446854  1  1.855801  0  0.602486  1.178397  0  3.309784  0
Sn  Sn2  1  0.59347253  0.75370151  0.50344763  1  1.850235  0  0.602877  1.167999  0  3.319677  0
Sn  Sn3  1  0.14928485  0.25375554  0.00340702  1  1.847086  0  0.603377  1.168525  0  3.316213  0
Sn  Sn4  1  0.31881605  0.81579448  0.96634511  1  1.832898  0  0.604576  1.162509  0  3.299499  0
Sn  Sn5  1  0.89913975  0.31570173  0.46636968  1  1.835718  0  0.604718  1.163577  0  3.296312  0
H  H6  1  0.42507824  0.99042915  0.65314199  1  0.160683  0  0.129988  0.113491  0  0.997248  0
H  H7  1  0.93105762  0.49047464  0.15314647  1  0.1549  0  0.130067  0.113232  0  0.998159  0
H  H8  1  0.59062668  0.67623664  0.72745127  1  0.122601  0  0.115288  0.118136  0  0.977443  0
H  H9  1  0.00587317  0.17629482  0.22763505  1  0.084694  0  0.114891  0.117742  0  0.976629  0
H  H10  1  0.56953591  0.73241371  0.82924479  1  0.127687  0  0.118187  0.138124  0  1.011859  0
H  H11  1  0.86880311  0.23257364  0.32938868  1  0.150806  0  0.118209  0.137844  0  1.011941  0
H  H12  1  0.17551512  0.04505406  0.79568907  1  0.030948  0  0.084878  0.113565  0  1.068147  0
H  H13  1  0.98378243  0.54512933  0.29567780  1  0.047938  0  0.085092  0.113705  0  1.067655  0
H  H14  1  0.19881672  0.09051501  0.85954281  1  0.086276  0  0.094162  0.140189  0  1.046036  0
H  H15  1  0.85116477  0.59048781  0.35955286  1  0.089519  0  0.093865  0.139971  0  1.045948  0
H  H16  1  0.01432618  0.21597619  0.75810014  1  -0.002415  0  0.08344  0.070658  0  1.006507  0
H  H17  1  0.01155118  0.71609530  0.25814689  1  0.0287  0  0.083557  0.070379  0  1.005757  0
H  H18  1  0.04646101  0.26762641  0.81639973  1  0.026747  0  0.086562  0.078733  0  0.988066  0
H  H19  1  0.86951000  0.76766450  0.31647626  1  0.040473  0  0.086107  0.078203  0  0.988637  0
H  H20  1  0.89493966  0.10171274  0.83758307  1  0.010411  0  0.084275  0.069465  0  1.006139  0
H  H21  1  0.16574359  0.60174989  0.33757984  1  0.010407  0  0.084176  0.069412  0  1.005836  0
H  H22  1  0.92126186  0.15886727  0.89453746  1  0.019305  0  0.086586  0.081048  0  0.983132  0
H  H23  1  0.02539770  0.65885938  0.39456927  1  0.012812  0  0.086504  0.081088  0  0.98348  0
H  H24  1  0.75476652  0.32802763  0.84912563  1  0.023664  0  0.078429  0.100926  0  1.0195  0
H  H25  1  0.06815482  0.82804765  0.34915285  1  0.012858  0  0.078302  0.100635  0  1.020055  0
H  H26  1  0.65817719  0.23590752  0.87088563  1  0.029901  0  0.079832  0.103579  0  1.048835  0
H  H27  1  0.23509038  0.73593989  0.37090700  1  0.007688  0  0.079851  0.103648  0  1.049618  0
H  H28  1  0.72651797  0.26744567  0.79344134  1  0.025456  0  0.082353  0.10919  0  1.016165  0
H  H29  1  0.21263840  0.76747853  0.29346285  1  0.019376  0  0.082336  0.109389  0  1.016339  0
H  H30  1  0.57860804  0.15901496  0.66383056  1  0.021702  0  0.088017  0.122147  0  1.058729  0
H  H31  1  0.59854777  0.65914390  0.16384292  1  0.053545  0  0.087657  0.121149  0  1.060308  0
H  H32  1  0.59245607  0.22669104  0.71850614  1  0.058646  0  0.09182  0.131316  0  1.023737  0
H  H33  1  0.46233349  0.72676996  0.21853623  1  0.05937  0  0.091988  0.1315  0  1.024571  0
H  H34  1  0.74255654  0.99745613  0.71620951  1  -0.002742  0  0.08297  0.071492  0  0.994693  0
H  H35  1  0.54384071  0.49752429  0.21619922  1  -0.000917  0  0.083067  0.071385  0  0.993727  0
H  H36  1  0.75511236  0.06314979  0.77161101  1  0.022428  0  0.088818  0.082232  0  0.994525  0
H  H37  1  0.41008564  0.56317506  0.27157457  1  0.025125  0  0.089193  0.082798  0  0.994  0
H  H38  1  0.86561425  0.10610597  0.63479173  1  -0.007191  0  0.084431  0.075201  0  0.990648  0
H  H39  1  0.39359669  0.60592266  0.13475050  1  0.025538  0  0.084444  0.075391  0  0.990444  0
H  H40  1  0.87677491  0.17281259  0.69002493  1  0.00312  0  0.080583  0.065584  0  0.996095  0
H  H41  1  0.26047863  0.67274979  0.18992737  1  0.006944  0  0.080702  0.065262  0  0.996775  0
H  H42  1  0.04295491  0.01057679  0.74199350  1  -0.007283  0  0.080724  0.105385  0  1.043955  0
H  H43  1  0.20463627  0.51054272  0.24208089  1  -0.002048  0  0.08  0.104979  0  1.043665  0
H  H44  1  0.12374321  0.04423730  0.66635932  1  0.048321  0  0.084078  0.121839  0  1.028456  0
H  H45  1  0.16571299  0.54404182  0.16646315  1  0.045379  0  0.083912  0.121708  0  1.029655  0
H  H46  1  0.03787317  0.94623566  0.68383470  1  0.006041  0  0.080525  0.105938  0  1.026742  0
H  H47  1  0.33210713  0.44609340  0.18394511  1  0.008671  0  0.080797  0.106182  0  1.026362  0
H  H48  1  0.21045876  0.47663248  0.01108862  1  0.157851  0  0.131148  0.110983  0  1.008843  0
H  H49  1  0.30184389  0.97651530  0.51114583  1  0.155239  0  0.131184  0.110758  0  1.009431  0
H  H50  1  0.47858419  0.55781419  0.84301829  1  0.103656  0  0.11681  0.119487  0  0.982574  0
H  H51  1  0.12064820  0.05752198  0.34309020  1  0.10857  0  0.11715  0.120084  0  0.983291  0
H  H52  1  0.46086018  0.40534664  0.80549840  1  0.131579  0  0.122557  0.135126  0  0.979902  0
H  H53  1  0.32840190  0.90511110  0.30558992  1  0.127429  0  0.122688  0.134963  0  0.980448  0
H  H54  1  0.49840262  0.60532528  0.56811062  1  0.038058  0  0.091124  0.131571  0  1.020248  0
H  H55  1  0.32781885  0.10535272  0.06814199  1  0.032195  0  0.091015  0.131094  0  1.020313  0
H  H56  1  0.33986696  0.71215859  0.55462620  1  0.043273  0  0.088841  0.125867  0  1.032443  0
H  H57  1  0.39307483  0.21217867  0.05463104  1  0.03158  0  0.088331  0.124657  0  1.033467  0
H  H58  1  0.52267661  0.57147042  0.45937893  1  0.072015  0  0.0931  0.099341  0  1.012583  0
H  H59  1  0.44632422  0.07139219  0.95942245  1  0.078359  0  0.09309  0.099205  0  1.01219  0
H  H60  1  0.35466804  0.67070648  0.45060351  1  0.014689  0  0.080968  0.067195  0  1.009347  0
H  H61  1  0.52388241  0.17063869  0.95065581  1  -0.0018  0  0.08124  0.067706  0  1.009259  0
H  H62  1  0.37740342  0.48701459  0.55007567  1  0.001237  0  0.081141  0.067084  0  0.989469  0
H  H63  1  0.58525581  0.98699237  0.05016988  1  0.008855  0  0.081261  0.06709  0  0.988997  0
H  H64  1  0.21086851  0.58301175  0.53386708  1  -0.006099  0  0.078047  0.064265  0  0.99685  0
H  H65  1  0.67203607  0.08299994  0.03392132  1  0.001368  0  0.078415  0.064904  0  0.996326  0
H  H66  1  0.25417863  0.53298978  0.42898972  1  0.017922  0  0.082967  0.108386  0  1.039436  0
H  H67  1  0.78355034  0.03295378  0.92905173  1  0.01951  0  0.083185  0.108409  0  1.039435  0
H  H68  1  0.24142531  0.43045209  0.48710868  1  -0.005354  0  0.074806  0.094388  0  1.059333  0
H  H69  1  0.84073925  0.93041730  0.98716514  1  -0.009815  0  0.075135  0.094956  0  1.057982  0
H  H70  1  0.42019323  0.43619155  0.44658955  1  0.038451  0  0.088369  0.127384  0  1.00988  0
H  H71  1  0.69671357  0.93614145  0.94667344  1  0.041995  0  0.087924  0.126808  0  1.009457  0
H  H72  1  0.83211192  0.80270049  0.44315696  1  0.052397  0  0.094312  0.137179  0  1.022229  0
H  H73  1  0.92191915  0.30267708  0.94316959  1  0.048595  0  0.093766  0.136564  0  1.022324  0
H  H74  1  0.69037454  0.91630651  0.46157128  1  0.028731  0  0.087873  0.123267  0  1.035764  0
H  H75  1  0.93179520  0.41632216  0.96149026  1  0.049455  0  0.087554  0.122835  0  1.036324  0
H  H76  1  0.74530297  0.87752484  0.56781420  1  0.006754  0  0.084114  0.06968  0  1.00625  0
H  H77  1  0.80957165  0.37763100  0.06779598  1  0.00421  0  0.08377  0.069107  0  1.007752  0
H  H78  1  0.87307138  0.75888238  0.55469968  1  0.045803  0  0.087927  0.078456  0  1.001034  0
H  H79  1  0.81340478  0.25897471  0.05473865  1  0.014929  0  0.087718  0.078707  0  1.002181  0
H  H80  1  0.91617885  0.96141352  0.49039197  1  0.036707  0  0.081939  0.072243  0  1.001585  0
H  H81  1  0.63205378  0.46148636  0.99045525  1  0.017569  0  0.081694  0.071993  0  1.001648  0
H  H82  1  0.04745638  0.84098023  0.48313450  1  -0.00219  0  0.083401  0.076632  0  0.979555  0
H  H83  1  0.62846744  0.34104707  0.98318922  1  0.003958  0  0.083341  0.077404  0  0.979123  0
H  H84  1  0.92730232  0.93178478  0.60280417  1  0.017601  0  0.084477  0.112306  0  1.017049  0
H  H85  1  0.53807718  0.43182742  0.10286817  1  0.008507  0  0.084102  0.111767  0  1.01787  0
H  H86  1  0.10891503  0.92172843  0.56092133  1  0.023786  0  0.082573  0.110228  0  1.045881  0
H  H87  1  0.40852233  0.42172270  0.06095123  1  0.044027  0  0.082061  0.109466  0  1.045361  0
H  H88  1  0.06059106  0.81100836  0.59606859  1  0.001814  0  0.08132  0.105931  0  1.009683  0
H  H89  1  0.53235359  0.31103197  0.09611485  1  0.01191  0  0.081231  0.105453  0  1.010094  0
H  H90  1  0.12281621  0.21330549  0.57856171  1  0.171239  0  0.13133  0.114332  0  1.004455  0
H  H91  1  0.08551022  0.71340676  0.07857688  1  0.174323  0  0.131183  0.114206  0  1.004958  0
H  H92  1  0.11228146  0.45416987  0.66911123  1  0.115665  0  0.120348  0.124643  0  0.970598  0
H  H93  1  0.76460372  0.95419467  0.16914725  1  0.141223  0  0.120408  0.124962  0  0.972244  0
H  H94  1  0.93424211  0.57555518  0.59748258  1  0.139691  0  0.119729  0.131455  0  0.998328  0
H  H95  1  0.89283058  0.07566148  0.09751647  1  0.133069  0  0.119717  0.132164  0  0.997534  0
H  H96  1  0.09170299  0.93626848  0.90956126  1  0.046724  0  0.092459  0.129608  0  1.037124  0
H  H97  1  0.06245116  0.43626391  0.40955848  1  0.042092  0  0.092371  0.129284  0  1.036805  0
H  H98  1  0.24106066  0.87587860  0.85607495  1  0.047347  0  0.087112  0.119928  0  1.057025  0
H  H99  1  0.02685532  0.37590953  0.35607481  1  0.01273  0  0.086789  0.119794  0  1.057255  0
H  H100  1  0.15984397  0.71809959  0.88541484  1  0.033852  0  0.082758  0.068287  0  1.019195  0
H  H101  1  0.23651942  0.21812212  0.38535090  1  0.023575  0  0.083043  0.068861  0  1.0187  0
H  H102  1  0.00860304  0.77922224  0.93736500  1  0.022517  0  0.089512  0.083277  0  0.994997  0
H  H103  1  0.27473407  0.27920646  0.43731351  1  0.018989  0  0.089838  0.083883  0  0.995098  0
H  H104  1  0.90694465  0.90970174  0.85076319  1  0.038677  0  0.087327  0.076766  0  0.998736  0
H  H105  1  0.33244407  0.40977497  0.35072886  1  0.010278  0  0.087224  0.076515  0  0.999704  0
H  H106  1  0.06217211  0.84938148  0.79994755  1  0.013241  0  0.084067  0.072242  0  0.992113  0
H  H107  1  0.28855470  0.34937006  0.29989871  1  0.013988  0  0.084161  0.073009  0  0.990962  0
H  H108  1  0.98049391  0.69147456  0.82574693  1  0.038893  0  0.07905  0.102151  0  1.010088  0
H  H109  1  0.50234954  0.19155950  0.32576805  1  0.003668  0  0.078786  0.101354  0  1.009896  0
H  H110  1  0.83824344  0.79802633  0.79687480  1  -0.007606  0  0.078842  0.104205  0  1.030212  0
H  H111  1  0.56685271  0.29816316  0.29689864  1  0.000667  0  0.078531  0.102951  0  1.030757  0
H  H112  1  0.82240797  0.75394882  0.87594817  1  0.031607  0  0.084355  0.115693  0  1.02642  0
H  H113  1  0.54756825  0.25412618  0.37598077  1  0.044267  0  0.084261  0.115089  0  1.02726  0
H  H114  1  0.50077447  0.84736093  0.02621034  1  0.057214  0  0.096756  0.137601  0  1.020854  0
H  H115  1  0.62574261  0.34730439  0.52616540  1  0.0556  0  0.096761  0.137933  0  1.020555  0
H  H116  1  0.42518606  0.75276041  0.07259657  1  0.027406  0  0.088311  0.121119  0  1.046439  0
H  H117  1  0.74939182  0.25266839  0.57257672  1  0.049247  0  0.088387  0.121314  0  1.04743  0
H  H118  1  0.60673811  0.62001464  0.01692382  1  -0.007111  0  0.086187  0.079556  0  0.98916  0
H  H119  1  0.75618035  0.11995732  0.51688543  1  0.019438  0  0.086291  0.079575  0  0.989433  0
H  H120  1  0.65759939  0.70862493  0.95737106  1  0.009452  0  0.088939  0.081234  0  1.01503  0
H  H121  1  0.67643972  0.20857897  0.45731273  1  0.003975  0  0.088566  0.080337  0  1.01519  0
H  H122  1  0.72595201  0.67878927  0.08685586  1  -0.008851  0  0.081043  0.072387  0  1.026407  0
H  H123  1  0.50827966  0.17881686  0.58678206  1  -0.010801  0  0.080958  0.072409  0  1.025913  0
H  H124  1  0.77677577  0.76451226  0.02542862  1  0.02188  0  0.082227  0.070078  0  1.003283  0
H  H125  1  0.43324415  0.26451638  0.52533105  1  0.011398  0  0.08293  0.070727  0  1.003049  0
H  H126  1  0.88443786  0.53246504  0.03203849  1  -0.001367  0  0.082062  0.113764  0  1.027707  0
H  H127  1  0.55097251  0.03246506  0.53199349  1  0.001717  0  0.081576  0.113242  0  1.0279  0
H  H128  1  0.99338628  0.60669078  0.04061423  1  0.031743  0  0.082304  0.110848  0  1.043005  0
H  H129  1  0.35923248  0.10665352  0.54057360  1  0.015354  0  0.082363  0.110741  0  1.042944  0
H  H130  1  0.93687525  0.61795387  0.96935574  1  0.005818  0  0.079548  0.103438  0  1.02478  0
H  H131  1  0.47571400  0.11789741  0.46930624  1  0.001081  0  0.079322  0.103629  0  1.02437  0
C  C132  1  0.46170611  0.93078682  0.69038238  1  0.528631  0  0.071083  0.088175  0  3.872764  0
C  C133  1  0.91696012  0.43084417  0.19042313  1  0.522925  0  0.070659  0.088099  0  3.873113  0
C  C134  1  0.50986610  0.82879904  0.68309913  1  -0.034417  0  -0.001699  -0.056572  0  3.946271  0
C  C135  1  0.97823763  0.32883967  0.18318057  1  -0.075419  0  -0.001109  -0.055166  0  3.947093  0
C  C136  1  0.55127389  0.75574253  0.73314959  1  -0.092761  0  -0.055958  -0.041474  0  3.920624  0
C  C137  1  0.95993656  0.25582614  0.23327863  1  0.010567  0  -0.055609  -0.041356  0  3.920578  0
C  C138  1  0.54311201  0.78608117  0.78845790  1  0.026315  0  -0.068573  -0.126877  0  3.938139  0
C  C139  1  0.88235066  0.28620139  0.28856811  1  -0.054972  0  -0.06875  -0.127141  0  3.938312  0
C  C140  1  0.50105123  0.88946033  0.79106885  1  0.459092  0  0.121422  0.082985  0  3.983717  0
C  C141  1  0.81829123  0.38957784  0.29113697  1  0.506584  0  0.12144  0.083141  0  3.985284  0
C  C142  1  0.50181504  0.92890902  0.84794649  1  1.624114  0  0.236294  0.543897  0  4.194056  0
C  C143  1  0.72110544  0.42901233  0.34799131  1  1.629108  0  0.236929  0.545764  0  4.195336  0
C  C144  1  0.52771479  0.79899362  0.62188874  1  1.586549  0  0.210275  0.547132  0  4.241811  0
C  C145  1  0.05137304  0.29895686  0.12197739  1  1.58698  0  0.209791  0.545575  0  4.245208  0
C  C146  1  0.17999197  0.11136775  0.81202530  1  -0.373934  0  -0.237082  -0.489411  0  3.854838  0
C  C147  1  0.89663863  0.61139201  0.31204247  1  -0.389342  0  -0.237252  -0.490555  0  3.855041  0
C  C148  1  0.03617971  0.19852280  0.80540787  1  0.011722  0  -0.169974  -0.08637  0  3.989713  0
C  C149  1  0.95986925  0.69857623  0.30545034  1  -0.037214  0  -0.169458  -0.084675  0  3.988137  0
C  C150  1  0.90121828  0.17317680  0.84704183  1  -0.010236  0  -0.167914  -0.092841  0  3.940155  0
C  C151  1  0.07858279  0.67320060  0.34706525  1  -0.003529  0  -0.1674  -0.092488  0  3.939069  0
C  C152  1  0.75219113  0.25565416  0.83982175  1  -0.094535  0  -0.250016  -0.358819  0  3.988965  0
C  C153  1  0.15238816  0.75567874  0.33984524  1  -0.053951  0  -0.250057  -0.359176  0  3.989446  0
C  C154  1  0.59531277  0.15204145  0.71101746  1  -0.355568  0  -0.235416  -0.483289  0  3.862536  0
C  C155  1  0.54160602  0.65212361  0.21102783  1  -0.384095  0  -0.235291  -0.482673  0  3.865362  0
C  C156  1  0.74255214  0.07179902  0.72360351  1  0.019784  0  -0.169534  -0.094964  0  3.996852  0
C  C157  1  0.46207975  0.57184178  0.22358008  1  0.000794  0  -0.169911  -0.095136  0  3.99533  0
C  C158  1  0.87838489  0.09791719  0.68283058  1  0.001523  0  -0.167256  -0.08744  0  3.946868  0
C  C159  1  0.34096166  0.59784085  0.18279751  1  -0.030227  0  -0.167016  -0.086975  0  3.945211  0
C  C160  1  0.02935147  0.02039035  0.69414885  1  -0.041223  0  -0.252417  -0.366178  0  3.962381  0
C  C161  1  0.25620551  0.52027804  0.19421470  1  -0.040136  0  -0.252138  -0.366549  0  3.962111  0
C  C162  1  0.26922202  0.46342423  0.96560845  1  0.454692  0  0.076766  0.095787  0  3.863849  0
C  C163  1  0.30174475  0.96327434  0.46568319  1  0.477785  0  0.076819  0.095322  0  3.864598  0
C  C164  1  0.34741142  0.52786268  0.92957403  1  0.011458  0  0.001809  -0.061849  0  3.94607  0
C  C165  1  0.19514846  0.02765927  0.42965467  1  0.010453  0  0.001849  -0.062589  0  3.948973  0
C  C166  1  0.41824368  0.50747335  0.87118089  1  -0.04506  0  -0.051326  -0.038124  0  3.922849  0
C  C167  1  0.20312372  0.00721547  0.37127106  1  -0.014752  0  -0.051358  -0.037811  0  3.922989  0
C  C168  1  0.40913016  0.42458006  0.85056686  1  0.074491  0  -0.064539  -0.12019  0  3.952033  0
C  C169  1  0.31577583  0.92435899  0.35065755  1  0.027792  0  -0.064946  -0.120505  0  3.949084  0
C  C170  1  0.33130419  0.36313608  0.88960107  1  0.451559  0  0.125748  0.09499  0  3.980779  0
C  C171  1  0.41606247  0.86298106  0.38967966  1  0.469533  0  0.125639  0.093787  0  3.976807  0
C  C172  1  0.31752229  0.27169071  0.87028983  1  1.614326  0  0.242104  0.539946  0  4.194844  0
C  C173  1  0.54065801  0.77161446  0.37034223  1  1.609211  0  0.241924  0.53992  0  4.193299  0
C  C174  1  0.35227138  0.61974589  0.95076377  1  1.564895  0  0.213571  0.541925  0  4.244579  0
C  C175  1  0.07727443  0.11956754  0.45081949  1  1.560817  0  0.213397  0.542676  0  4.247556  0
C  C176  1  0.44400880  0.66218981  0.53240069  1  -0.351238  0  -0.232213  -0.478204  0  3.869471  0
C  C177  1  0.36118604  0.16216529  0.03241816  1  -0.333405  0  -0.231665  -0.475587  0  3.866815  0
C  C178  1  0.41567209  0.61293393  0.48454173  1  -0.025594  0  -0.173931  -0.101686  0  3.978095  0
C  C179  1  0.48666325  0.11287827  0.98459068  1  -0.016097  0  -0.174233  -0.102852  0  3.977454  0
C  C180  1  0.32333359  0.54031327  0.51273460  1  0.007542  0  -0.168447  -0.082194  0  3.948113  0
C  C181  1  0.62337316  0.04028172  0.01280867  1  -0.005954  0  -0.16934  -0.083412  0  3.948646  0
C  C182  1  0.30873742  0.48152319  0.46643235  1  -0.048313  0  -0.25142  -0.362829  0  3.954073  0
C  C183  1  0.74301991  0.98148277  0.96650732  1  -0.053693  0  -0.250901  -0.361952  0  3.953137  0
C  C184  1  0.75160067  0.83906075  0.48018147  1  -0.351175  0  -0.231463  -0.475024  0  3.846897  0
C  C185  1  0.92914149  0.33910403  0.98014819  1  -0.356487  0  -0.230044  -0.472939  0  3.847151  0
C  C186  1  0.82869139  0.83718377  0.53272636  1  -0.008555  0  -0.170958  -0.09407  0  3.99765  0
C  C187  1  0.80145502  0.33726761  0.03273897  1  0.008932  0  -0.170504  -0.094487  0  3.999789  0
C  C188  1  0.95698452  0.88442836  0.51505533  1  -0.023502  0  -0.171113  -0.095862  0  3.957203  0
C  C189  1  0.64357833  0.38449455  0.01511067  1  -0.004558  0  -0.170833  -0.096508  0  3.956098  0
C  C190  1  0.01751747  0.88753957  0.57141954  1  -0.052014  0  -0.24976  -0.362387  0  3.98132  0
C  C191  1  0.52355826  0.38756598  0.07147594  1  -0.071759  0  -0.248669  -0.360195  0  3.979448  0
C  C192  1  0.08477841  0.29275370  0.58415996  1  0.463606  0  0.072452  0.086996  0  3.870923  0
C  C193  1  0.03847862  0.79284987  0.08418011  1  0.470766  0  0.073486  0.088249  0  3.869472  0
C  C194  1  0.13068958  0.32603741  0.62859959  1  0.001594  0  0.00168  -0.059276  0  3.941977  0
C  C195  1  0.91489285  0.82610120  0.12863935  1  -0.069891  0  0.002037  -0.057415  0  3.9404  0
C  C196  1  0.07715260  0.42877516  0.63413347  1  0.012529  0  -0.047678  -0.030889  0  3.908335  0
C  C197  1  0.86012153  0.92883435  0.13417393  1  0.0277  0  -0.047451  -0.031671  0  3.911278  0
C  C198  1  0.98112969  0.49497392  0.59516943  1  -0.042314  0  -0.062963  -0.117541  0  3.937019  0
C  C199  1  0.92885430  0.99508027  0.09519612  1  -0.016563  0  -0.063344  -0.11905  0  3.936906  0
C  C200  1  0.94180130  0.45612173  0.55168559  1  0.464333  0  0.124683  0.097746  0  3.970934  0
C  C201  1  0.05046250  0.95625242  0.05168037  1  0.451223  0  0.124168  0.09814  0  3.967617  0
C  C202  1  0.83682116  0.52424695  0.50867735  1  1.571941  0  0.237449  0.54285  0  4.196189  0
C  C203  1  0.13021397  0.02439000  0.00860716  1  1.618041  0  0.237292  0.541674  0  4.196856  0
C  C204  1  0.23206864  0.25342775  0.67104141  1  1.562536  0  0.213452  0.543139  0  4.247716  0
C  C205  1  0.84367860  0.75344933  0.17106869  1  1.567325  0  0.212263  0.539993  0  4.2493  0
C  C206  1  0.16855641  0.86247454  0.89921014  1  -0.361079  0  -0.231932  -0.476577  0  3.840468  0
C  C207  1  0.06972272  0.36247410  0.39918902  1  -0.323806  0  -0.231589  -0.476182  0  3.840294  0
C  C208  1  0.08192611  0.79262538  0.89428587  1  -0.020256  0  -0.169993  -0.092577  0  3.987004  0
C  C209  1  0.23109568  0.29263264  0.39423872  1  -0.00894  0  -0.170172  -0.092914  0  3.987256  0
C  C210  1  0.98740695  0.83546344  0.84258327  1  -0.010043  0  -0.167686  -0.089402  0  3.933859  0
C  C211  1  0.33449698  0.33551451  0.34254731  1  -0.008311  0  -0.168077  -0.091463  0  3.933532  0
C  C212  1  0.90253749  0.76585651  0.83491689  1  -0.08613  0  -0.24875  -0.354048  0  3.97292  0
C  C213  1  0.49664778  0.26597610  0.33492831  1  -0.045078  0  -0.247902  -0.350438  0  3.971222  0
C  C214  1  0.48082450  0.77523284  0.02704286  1  -0.341679  0  -0.226447  -0.464206  0  3.845889  0
C  C215  1  0.71690572  0.27515736  0.52701468  1  -0.36467  0  -0.226617  -0.466222  0  3.846196  0
C  C216  1  0.62558045  0.69445201  0.00694538  1  0.046091  0  -0.170319  -0.09775  0  3.986347  0
C  C217  1  0.67298775  0.19441493  0.50689191  1  0.030467  0  -0.169779  -0.095246  0  3.984424  0
C  C218  1  0.75679051  0.69033091  0.03717401  1  0.009097  0  -0.171223  -0.090524  0  3.948259  0
C  C219  1  0.51564422  0.19033894  0.53709835  1  0.019317  0  -0.17189  -0.091405  0  3.946647  0
C  C220  1  0.90064348  0.60743693  0.01882184  1  -0.042607  0  -0.252445  -0.367601  0  3.972206  0
C  C221  1  0.47300648  0.10740405  0.51876433  1  -0.025729  0  -0.251851  -0.367349  0  3.971055  0
N  N222  1  0.46167322  0.95968954  0.74278125  1  -1.25436  0  -0.281283  -0.249658  0  3.501297  0
N  N223  1  0.83564440  0.45977521  0.24280426  1  -1.257174  0  -0.281376  -0.250429  0  3.501286  0
N  N224  1  0.26296018  0.38246660  0.94589902  1  -1.248864  0  -0.277595  -0.244527  0  3.467103  0
N  N225  1  0.40871907  0.88233343  0.44597897  1  -1.26892  0  -0.277594  -0.242747  0  3.464227  0
N  N226  1  0.99191203  0.35689267  0.54667459  1  -1.234139  0  -0.279978  -0.25133  0  3.487502  0
N  N227  1  0.10461129  0.85701980  0.04667767  1  -1.244833  0  -0.280483  -0.252047  0  3.484902  0
O  O228  1  0.49977889  0.02028022  0.84221706  1  -1.154304  0  -0.261561  -0.483693  0  2.250151  0
O  O229  1  0.63739888  0.52034082  0.34223629  1  -1.16295  0  -0.262431  -0.485347  0  2.249203  0
O  O230  1  0.50771018  0.86811394  0.89726542  1  -1.202931  0  -0.280082  -0.517174  0  2.301171  0
O  O231  1  0.72674881  0.36822854  0.39731743  1  -1.19754  0  -0.280174  -0.517779  0  2.301404  0
O  O232  1  0.62071919  0.71354563  0.61206627  1  -1.16162  0  -0.295017  -0.538145  0  2.173264  0
O  O233  1  0.05344105  0.21354700  0.11218184  1  -1.158637  0  -0.294823  -0.537478  0  2.171847  0
O  O234  1  0.45535387  0.86111765  0.58128167  1  -1.179492  0  -0.292569  -0.544997  0  2.180831  0
O  O235  1  0.10231057  0.36104998  0.08135312  1  -1.184812  0  -0.292868  -0.545112  0  2.181446  0
O  O236  1  0.23148584  0.22551809  0.90512092  1  -1.162704  0  -0.251823  -0.480213  0  2.320314  0
O  O237  1  0.63797748  0.72539411  0.40518468  1  -1.162125  0  -0.251007  -0.479424  0  2.320418  0
O  O238  1  0.39358020  0.24901965  0.81960627  1  -1.170593  0  -0.25872  -0.479777  0  2.306165  0
O  O239  1  0.53808420  0.74905806  0.31961491  1  -1.168823  0  -0.259091  -0.479709  0  2.305303  0
O  O240  1  0.43905409  0.66769140  0.91732391  1  -1.16784  0  -0.285515  -0.536908  0  2.233629  0
O  O241  1  0.97587732  0.16742203  0.41742846  1  -1.171181  0  -0.286038  -0.537912  0  2.233478  0
O  O242  1  0.26637097  0.65025119  0.99845318  1  -1.167798  0  -0.285997  -0.528451  0  2.164417  0
O  O243  1  0.08515209  0.15018982  0.49843872  1  -1.16186  0  -0.285626  -0.528169  0  2.165305  0
O  O244  1  0.78679794  0.48362034  0.47627250  1  -1.153622  0  -0.25745  -0.485675  0  2.295465  0
O  O245  1  0.25329921  0.98374399  0.97622048  1  -1.166925  0  -0.257564  -0.485658  0  2.295964  0
O  O246  1  0.80651483  0.61802645  0.50874649  1  -1.162751  0  -0.269221  -0.496694  0  2.323766  0
O  O247  1  0.06653225  0.11816860  0.00857560  1  -1.17357  0  -0.268633  -0.495591  0  2.324993  0
O  O248  1  0.26712832  0.29044411  0.71054567  1  -1.161337  0  -0.292466  -0.529031  0  2.192075  0
O  O249  1  0.73216441  0.79044155  0.21059504  1  -1.165044  0  -0.291725  -0.527923  0  2.192733  0
O  O250  1  0.27627219  0.15965093  0.66768074  1  -1.160144  0  -0.287348  -0.538999  0  2.184264  0
O  O251  1  0.89657194  0.65967391  0.16767853  1  -1.159457  0  -0.287281  -0.538035  0  2.18396  0
