# generated using pymatgen
data_Cu2H22C24N4O7
_symmetry_space_group_name_H-M   'P 1'
_cell_length_a   8.52138419
_cell_length_b   9.65800074
_cell_length_c   15.55049301
_cell_angle_alpha   85.24701635
_cell_angle_beta   78.50624852
_cell_angle_gamma   74.85065890
_symmetry_Int_Tables_number   1
_chemical_formula_structural   Cu2H22C24N4O7
_chemical_formula_sum   'Cu4 H44 C48 N8 O14'
_cell_volume   1209.90874315
_cell_formula_units_Z   2
loop_
 _symmetry_equiv_pos_site_id
 _symmetry_equiv_pos_as_xyz
  1  'x, y, z'
loop_
 _atom_site_type_symbol
 _atom_site_label
 _atom_site_symmetry_multiplicity
 _atom_site_fract_x
 _atom_site_fract_y
 _atom_site_fract_z
 _atom_site_occupancy
 _atom_site_pbe_bader_charge
 _atom_site_pbe_bader_spin_density
 _atom_site_pbe_cm5_charge
 _atom_site_pbe_ddec_charge
 _atom_site_pbe_ddec_spin_density
 _atom_site_pbe_ddec_sum_bond_order
 _atom_site_pbe_magmom
Cu  Cu0  1  0.83239317  0.48400758  0.47317879  1  1.062522  -0.553104  0.762467  0.755209  -0.729296  2.341082  -0.551
Cu  Cu1  1  0.16761057  0.51599799  0.52682205  1  1.062508  0.553102  0.762489  0.755314  0.729302  2.34106  0.551
Cu  Cu2  1  0.08822687  0.92359164  0.93405903  1  1.062311  -0.544777  0.671579  0.745095  -0.712918  2.381709  -0.542
Cu  Cu3  1  0.91177423  0.07639457  0.06593794  1  1.062267  0.544735  0.671607  0.745384  0.712866  2.381413  0.542
H  H4  1  0.12311802  0.33155637  0.33344806  1  0.109095  -0.003523  0.124688  0.098784  -0.00173  1.00034  -0.002
H  H5  1  0.87688095  0.66844916  0.66655524  1  0.109081  0.003523  0.124701  0.09878  0.00173  1.000315  0.002
H  H6  1  0.16437285  0.31602082  0.16912053  1  0.104263  -0.001086  0.108943  0.113619  -0.000482  1.022494  -0.001
H  H7  1  0.83562501  0.68398040  0.83088311  1  0.104172  0.001086  0.108928  0.113578  0.000482  1.022494  0.001
H  H8  1  0.94296100  0.46170712  0.09156516  1  0.117486  7.5e-05  0.113536  0.112931  4.1e-05  0.974994  0.0
H  H9  1  0.05704044  0.53829413  0.90843680  1  0.117404  -7.5e-05  0.113564  0.112916  -4.1e-05  0.975099  0.0
H  H10  1  0.69449638  0.62616386  0.17859972  1  0.086737  -0.001864  0.108458  0.113571  -0.000943  1.021856  -0.001
H  H11  1  0.30550855  0.37384172  0.82140034  1  0.086712  0.001865  0.10846  0.113585  0.000943  1.021853  0.001
H  H12  1  0.26326753  0.81913033  0.60077562  1  0.169877  -0.000393  0.114474  0.129106  -0.000406  1.058638  0.0
H  H13  1  0.73673191  0.18086554  0.39922426  1  0.169874  0.000393  0.114456  0.129141  0.000405  1.058632  0.0
H  H14  1  0.08882305  0.92717337  0.74004163  1  0.114854  -0.000101  0.117927  0.092928  -4.2e-05  1.006462  0.0
H  H15  1  0.91117520  0.07282248  0.25995967  1  0.114825  0.0001  0.117932  0.092916  4.2e-05  1.006463  0.0
H  H16  1  0.61016966  0.56623668  0.75512984  1  0.107836  -0.00037  0.106748  0.115911  -0.000314  1.030251  0.0
H  H17  1  0.38983306  0.43376028  0.24487156  1  0.107904  0.00037  0.106739  0.115902  0.000314  1.030187  0.0
H  H18  1  0.41493259  0.67969669  0.89006534  1  0.067802  0.0001  0.112321  0.083241  6.4e-05  1.00297  0.0
H  H19  1  0.58506741  0.32030133  0.10993502  1  0.067821  -0.000101  0.112351  0.0833  -6.5e-05  1.002916  0.0
H  H20  1  0.30363842  0.73620949  0.42017154  1  0.118865  -0.000447  0.101095  0.096121  -0.000412  1.071533  0.0
H  H21  1  0.69636231  0.26379820  0.57983145  1  0.118789  0.000446  0.1011  0.09615  0.000412  1.071481  0.0
H  H22  1  0.10374179  0.94533723  0.36835267  1  0.083669  3.6e-05  0.104902  0.111453  7e-06  1.016189  0.0
H  H23  1  0.89625892  0.05467047  0.63164840  1  0.08369  -3.6e-05  0.104904  0.111488  -7e-06  1.016194  0.0
H  H24  1  0.19659930  0.09902021  0.24274745  1  0.066595  1e-06  0.097679  0.092048  0.0  1.035631  0.0
H  H25  1  0.80340149  0.90098319  0.75725255  1  0.066498  -2e-06  0.09763  0.09198  -0.0  1.035557  0.0
H  H26  1  0.49785144  0.04962656  0.17466520  1  0.091119  -0.000161  0.094193  0.093812  -5.1e-05  1.056781  0.0
H  H27  1  0.50214847  0.95037577  0.82533366  1  0.09108  0.000161  0.094187  0.093782  5.1e-05  1.056848  0.0
H  H28  1  0.69775851  0.84834331  0.22842547  1  0.087447  -3.6e-05  0.100116  0.105258  -1e-05  1.023104  0.0
H  H29  1  0.30224196  0.15166117  0.77157450  1  0.087443  3.6e-05  0.100128  0.105267  9e-06  1.023079  0.0
H  H30  1  0.18734950  0.00418858  0.52066571  1  0.082112  -0.001798  0.097899  0.162226  -0.000855  1.036769  -0.001
H  H31  1  0.81265164  0.99581373  0.47934073  1  0.082049  0.001798  0.097888  0.162171  0.000855  1.036812  0.001
H  H32  1  0.19110911  0.13474276  0.59585354  1  0.059442  -3.4e-05  0.092197  0.148337  -2.7e-05  0.996189  0.0
H  H33  1  0.80888683  0.86526491  0.40414998  1  0.059533  3.4e-05  0.092148  0.148254  2.7e-05  0.996144  0.0
H  H34  1  0.30841083  0.13184937  0.48838764  1  0.074408  0.000229  0.096996  0.158475  0.000166  0.996666  0.0
H  H35  1  0.69159270  0.86815296  0.51161790  1  0.074388  -0.00023  0.096989  0.158466  -0.000166  0.996745  0.0
H  H36  1  0.28789417  0.59655474  0.13359359  1  0.022711  0.002094  0.091637  0.141418  0.000959  1.007234  0.001
H  H37  1  0.71211588  0.40343366  0.86640936  1  0.022838  -0.002094  0.091646  0.141484  -0.000959  1.007251  -0.001
H  H38  1  0.13201882  0.67576544  0.22442757  1  0.069295  -0.001586  0.101368  0.165122  -0.000759  0.98341  -0.001
H  H39  1  0.86798453  0.32422938  0.77557258  1  0.069315  0.001587  0.101345  0.165169  0.000759  0.983368  0.001
H  H40  1  0.30901310  0.74264282  0.19052424  1  0.089436  -0.00053  0.099512  0.154386  -0.000272  1.023526  0.0
H  H41  1  0.69098777  0.25735629  0.80947532  1  0.089394  0.000529  0.09952  0.154413  0.000272  1.023554  0.0
H  H42  1  0.68033070  0.68540180  0.98832756  1  0.044424  0.001967  0.096869  0.148093  0.000982  0.989955  0.001
H  H43  1  0.31965276  0.31459936  0.01166481  1  0.044593  -0.001967  0.096887  0.148094  -0.000983  0.989955  -0.001
H  H44  1  0.55088680  0.85274053  0.95936143  1  0.079225  8.3e-05  0.103389  0.1639  2.3e-05  1.004107  0.0
H  H45  1  0.44910528  0.14726391  0.04063368  1  0.079395  -8.3e-05  0.103346  0.163821  -2.3e-05  1.004168  0.0
H  H46  1  0.55134600  0.80555394  0.07162357  1  0.06724  -0.001914  0.096802  0.152654  -0.000928  1.011315  -0.001
H  H47  1  0.44864735  0.19444620  0.92837034  1  0.067178  0.001914  0.096821  0.152634  0.000928  1.01138  0.001
C  C48  1  0.03298631  0.39577306  0.29596168  1  0.507864  0.001253  0.060757  0.115456  -5.8e-05  3.935625  0.001
C  C49  1  0.96701536  0.60423142  0.70403944  1  0.507913  -0.001253  0.060776  0.115528  5.9e-05  3.935545  -0.001
C  C50  1  0.05556614  0.38855993  0.20505382  1  0.030059  -0.003697  -0.080045  -0.133489  -0.002669  3.968493  -0.003
C  C51  1  0.94443378  0.61144239  0.79494826  1  0.030105  0.003698  -0.080075  -0.133495  0.002669  3.968458  0.003
C  C52  1  0.93228756  0.47103300  0.16198365  1  -0.080413  0.002656  -0.060409  -0.005978  0.001807  3.941417  0.001
C  C53  1  0.06771292  0.52897147  0.83801890  1  -0.079668  -0.002656  -0.060406  -0.00596  -0.001807  3.941375  -0.001
C  C54  1  0.79369774  0.56183297  0.21020010  1  0.017419  -0.000881  -0.077203  -0.150569  -0.000958  3.930773  -0.001
C  C55  1  0.20630417  0.43817474  0.78980084  1  0.016632  0.000882  -0.07721  -0.15063  0.000958  3.93067  0.001
C  C56  1  0.77916287  0.56630803  0.30131602  1  0.443575  -0.003922  0.119393  0.163253  -0.003334  3.982722  -0.003
C  C57  1  0.22083785  0.43369967  0.69868505  1  0.443397  0.003923  0.11943  0.163527  0.003334  3.982496  0.003
C  C58  1  0.63618899  0.65425319  0.35977442  1  0.566488  0.005017  0.134747  0.106846  0.001598  3.913731  0.003
C  C59  1  0.36381085  0.34575343  0.64022680  1  0.566447  -0.005016  0.134694  0.106699  -0.001597  3.913785  -0.003
C  C60  1  0.56516236  0.62505711  0.58666376  1  1.280068  -0.005914  0.217013  0.392609  -0.006049  4.129293  -0.005
C  C61  1  0.43484059  0.37494308  0.41333744  1  1.280239  0.005914  0.217023  0.392574  0.006049  4.129346  0.005
C  C62  1  0.45318137  0.68744582  0.66736707  1  -0.064636  -0.00579  0.007237  0.041194  -0.004208  3.960734  -0.005
C  C63  1  0.54682014  0.31255113  0.33263446  1  -0.064485  0.00579  0.007275  0.041216  0.004208  3.960758  0.005
C  C64  1  0.30372112  0.78872068  0.66312650  1  -0.038799  -0.001548  -0.071478  -0.136442  -0.001136  3.901999  -0.001
C  C65  1  0.69627864  0.21127411  0.33687469  1  -0.038852  0.001547  -0.071499  -0.136519  0.001135  3.90215  0.001
C  C66  1  0.20507416  0.84630292  0.74059888  1  0.49231  0.000167  0.048224  0.099808  0.000142  3.92113  0.0
C  C67  1  0.79492560  0.15369187  0.25940295  1  0.492283  -0.000168  0.048242  0.099827  -0.000142  3.921291  0.0
C  C68  1  0.49553941  0.64643890  0.75002595  1  -0.020081  -0.000406  -0.085592  -0.160403  -0.000328  3.948422  0.0
C  C69  1  0.50446059  0.35355912  0.24997505  1  -0.020389  0.000406  -0.085586  -0.160333  0.000328  3.948318  0.0
C  C70  1  0.38828015  0.70887895  0.82415736  1  0.499564  0.000582  0.038216  0.077596  0.000436  3.986181  0.0
C  C71  1  0.61171865  0.29111906  0.17584312  1  0.49958  -0.000582  0.03819  0.077508  -0.000436  3.986126  0.0
C  C72  1  0.51465973  0.77450604  0.32735477  1  -0.061994  -0.006211  -0.013233  0.035214  -0.004327  3.9957  -0.005
C  C73  1  0.48533955  0.22549842  0.67264662  1  -0.061959  0.006211  -0.013227  0.035228  0.004327  3.995598  0.005
C  C74  1  0.34589579  0.80456989  0.36638685  1  0.000708  0.002097  -0.078848  -0.090429  0.001377  3.91681  0.001
C  C75  1  0.65410373  0.19543781  0.63361435  1  0.000679  -0.002096  -0.078828  -0.090396  -0.001376  3.916744  -0.001
C  C76  1  0.23315060  0.92112385  0.33630704  1  -0.097869  -0.000614  -0.086941  -0.070058  -0.000398  3.966151  0.0
C  C77  1  0.76684805  0.07888276  0.66369432  1  -0.097873  0.000615  -0.086914  -0.070113  0.000398  3.966129  0.0
C  C78  1  0.28608793  0.00949579  0.26694234  1  -0.015872  0.002421  -0.089849  -0.075391  0.001605  3.986867  0.001
C  C79  1  0.71391047  0.99050760  0.73305664  1  -0.015676  -0.002421  -0.089818  -0.075342  -0.001605  3.986735  -0.001
C  C80  1  0.45324553  0.98180317  0.22833249  1  -0.096974  -0.001107  -0.100442  -0.094583  -0.000702  4.03412  -0.001
C  C81  1  0.54675111  0.01819806  0.77166615  1  -0.096932  0.001108  -0.100447  -0.094551  0.000702  4.034056  0.001
C  C82  1  0.56728687  0.86557752  0.25819938  1  -0.018111  0.000447  -0.093593  -0.136291  0.000209  3.978348  0.0
C  C83  1  0.43271216  0.13442373  0.74179963  1  -0.01816  -0.000446  -0.093616  -0.136327  -0.000208  3.978224  0.0
C  C84  1  0.04651397  0.21620982  0.49496119  1  1.53503  -0.000122  0.203468  0.676624  -0.000643  4.133052  0.001
C  C85  1  0.95348595  0.78379250  0.50504024  1  1.535006  0.000122  0.203466  0.676614  0.000642  4.133  -0.001
C  C86  1  0.19194561  0.11469484  0.52728305  1  -0.112964  -0.005774  -0.252057  -0.523358  -0.004382  3.863358  -0.004
C  C87  1  0.80805432  0.88530747  0.47272160  1  -0.1129  0.005773  -0.251975  -0.523184  0.004381  3.863344  0.004
C  C88  1  0.13577385  0.80421248  0.10393723  1  1.539095  0.000391  0.210839  0.677511  0.000364  4.108492  0.001
C  C89  1  0.86422964  0.19577375  0.89605948  1  1.539133  -0.000396  0.211  0.677672  -0.000369  4.108604  -0.001
C  C90  1  0.22121072  0.69639949  0.16674408  1  -0.062789  -0.000806  -0.242701  -0.51092  -0.000567  3.876755  -0.001
C  C91  1  0.77879238  0.30359210  0.83325497  1  -0.062826  0.000808  -0.242746  -0.511133  0.000569  3.87692  0.001
C  C92  1  0.76767803  0.87169718  0.00291830  1  1.529828  0.000103  0.212651  0.675933  0.000148  4.109951  0.0
C  C93  1  0.23231970  0.12829225  0.99707310  1  1.530624  -0.000107  0.212606  0.675832  -0.000152  4.110201  0.0
C  C94  1  0.62969731  0.79795048  0.00628849  1  -0.067532  0.000211  -0.238547  -0.503084  0.000138  3.847075  0.0
C  C95  1  0.37029341  0.20204643  0.99370458  1  -0.067587  -0.000208  -0.23858  -0.503006  -0.000136  3.84707  0.0
N  N96  1  0.89829118  0.48046467  0.34233818  1  -1.226221  -0.094437  -0.339794  -0.264833  -0.064513  3.602464  -0.082
N  N97  1  0.10171105  0.51954196  0.65766278  1  -1.225966  0.094433  -0.339842  -0.265043  0.064513  3.602473  0.082
N  N98  1  0.63513038  0.61493727  0.44312359  1  -0.754782  -0.11979  -0.247983  -0.137948  -0.080484  3.771017  -0.103
N  N99  1  0.36487184  0.38506937  0.55687672  1  -0.754663  0.119788  -0.247993  -0.137983  0.080483  3.77108  0.103
N  N100  1  0.52014140  0.67847229  0.50997736  1  -0.649237  -0.031404  -0.230578  -0.295208  -0.020624  3.25989  -0.02
N  N101  1  0.47986091  0.32153005  0.49002380  1  -0.649328  0.031401  -0.230582  -0.295149  0.020622  3.259784  0.02
N  N102  1  0.24568242  0.80813963  0.82001402  1  -1.22361  0.001272  -0.335186  -0.246374  0.000552  3.514395  0.0
N  N103  1  0.75431702  0.19185623  0.17998651  1  -1.223622  -0.001271  -0.335143  -0.246345  -0.000552  3.51434  0.0
O  O104  1  0.69793610  0.52806789  0.59461746  1  -1.100779  -0.086923  -0.306535  -0.477455  -0.057285  2.299195  -0.078
O  O105  1  0.30206621  0.47193445  0.40538307  1  -1.100755  0.086932  -0.306555  -0.477484  0.057292  2.299133  0.078
O  O106  1  0.01768373  0.35106297  0.51491110  1  -1.141378  -0.076893  -0.360449  -0.598484  -0.051009  2.43632  -0.068
O  O107  1  0.98232247  0.64893833  0.48508519  1  -1.141178  0.076895  -0.360503  -0.598557  0.051012  2.436164  0.068
O  O108  1  0.96016897  0.17428930  0.45197926  1  -1.180343  -0.000695  -0.30996  -0.55852  -0.0002  2.173365  -0.001
O  O109  1  0.03983073  0.82570978  0.54802558  1  -1.180426  0.000695  -0.309924  -0.558477  0.000201  2.173445  0.001
O  O110  1  0.74156787  0.96940498  0.05797505  1  -1.111299  0.081808  -0.311391  -0.532477  0.054208  2.357362  0.074
O  O111  1  0.25844753  0.03056948  0.94202866  1  -1.111717  -0.081788  -0.311301  -0.532296  -0.054194  2.357696  -0.074
O  O112  1  0.89740761  0.83158228  0.94485778  1  -1.120233  -0.08026  -0.316417  -0.541091  -0.053174  2.332797  -0.073
O  O113  1  0.10258004  0.16841679  0.05512652  1  -1.120859  0.080264  -0.316437  -0.541182  0.05318  2.332855  0.073
O  O114  1  0.18247373  0.77940567  0.02223842  1  -1.115666  -0.09091  -0.322382  -0.535608  -0.060321  2.311425  -0.082
O  O115  1  0.81751829  0.22057080  0.97776005  1  -1.115437  0.090925  -0.322439  -0.535777  0.060334  2.311434  0.082
O  O116  1  0.02615349  0.91248690  0.13763433  1  -1.119221  0.083517  -0.31676  -0.536881  0.055474  2.333106  0.075
O  O117  1  0.97385820  0.08750799  0.86236039  1  -1.11951  -0.083506  -0.316787  -0.536797  -0.055464  2.333266  -0.075
