# generated using pymatgen
data_AgH10C10IN2
_symmetry_space_group_name_H-M   'P 1'
_cell_length_a   9.10288745
_cell_length_b   11.15854307
_cell_length_c   11.15854128
_cell_angle_alpha   78.32441895
_cell_angle_beta   80.85757490
_cell_angle_gamma   80.85758665
_symmetry_Int_Tables_number   1
_chemical_formula_structural   AgH10C10IN2
_chemical_formula_sum   'Ag4 H40 C40 I4 N8'
_cell_volume   1086.42106803
_cell_formula_units_Z   4
loop_
 _symmetry_equiv_pos_site_id
 _symmetry_equiv_pos_as_xyz
  1  'x, y, z'
loop_
 _atom_site_type_symbol
 _atom_site_label
 _atom_site_symmetry_multiplicity
 _atom_site_fract_x
 _atom_site_fract_y
 _atom_site_fract_z
 _atom_site_occupancy
 _atom_site_pbe_bader_spin_density
 _atom_site_pbe_cm5_charge
 _atom_site_pbe_ddec_charge
 _atom_site_pbe_ddec_spin_density
 _atom_site_pbe_ddec_sum_bond_order
 _atom_site_pbe_magmom
Ag  Ag0  1  0.41397830  0.02521130  0.89164601  1  0  0.227099  0.172342  0  2.466024  0
Ag  Ag1  1  0.08601809  0.10835418  0.97479056  1  0  0.227108  0.172354  0  2.465984  0
Ag  Ag2  1  0.58601991  0.97479006  0.10835453  1  0  0.227111  0.172346  0  2.466  0
Ag  Ag3  1  0.91397804  0.89164626  0.02520954  1  0  0.227096  0.172331  0  2.466022  0
H  H4  1  0.60971448  0.53208584  0.05581687  1  0  0.08812  0.083458  0  1.055182  0
H  H5  1  0.89028362  0.94418012  0.46791482  1  0  0.088117  0.083403  0  1.055227  0
H  H6  1  0.39028498  0.46791459  0.94418280  1  0  0.088127  0.083464  0  1.055168  0
H  H7  1  0.10971614  0.05581846  0.53208519  1  0  0.088135  0.083465  0  1.055156  0
H  H8  1  0.38924373  0.62535064  0.40209924  1  0  0.094727  0.089534  0  1.04474  0
H  H9  1  0.11075852  0.59789792  0.37465170  1  0  0.094719  0.089533  0  1.044715  0
H  H10  1  0.61075782  0.37465072  0.59789997  1  0  0.094717  0.089509  0  1.044762  0
H  H11  1  0.88924139  0.40209974  0.62534937  1  0  0.094736  0.089548  0  1.044728  0
H  H12  1  0.50977270  0.69020617  0.18695723  1  0  0.085318  0.085459  0  1.059777  0
H  H13  1  0.99022689  0.81304082  0.30979478  1  0  0.085342  0.085481  0  1.059738  0
H  H14  1  0.49022885  0.30979519  0.81304198  1  0  0.085342  0.085481  0  1.059741  0
H  H15  1  0.00977272  0.18695869  0.69020416  1  0  0.085353  0.085486  0  1.059741  0
H  H16  1  0.30352390  0.14398300  0.60566131  1  0  0.122317  0.090727  0  1.055872  0
H  H17  1  0.19647512  0.39433737  0.85601732  1  0  0.122321  0.090748  0  1.055839  0
H  H18  1  0.69648002  0.85601743  0.39433778  1  0  0.122344  0.09076  0  1.055792  0
H  H19  1  0.80352353  0.60566122  0.14398462  1  0  0.12233  0.090728  0  1.05588  0
H  H20  1  0.59387657  0.30946067  0.14101208  1  0  0.082078  0.08772  0  1.065947  0
H  H21  1  0.90612201  0.85898610  0.69053997  1  0  0.082084  0.087722  0  1.065942  0
H  H22  1  0.40612401  0.69053976  0.85898745  1  0  0.082074  0.087725  0  1.065944  0
H  H23  1  0.09387775  0.14101249  0.30945915  1  0  0.082076  0.087724  0  1.065915  0
H  H24  1  0.75403672  0.16404556  0.44381813  1  0  0.111992  0.116255  0  1.054856  0
H  H25  1  0.74596326  0.55618087  0.83595570  1  0  0.112006  0.116282  0  1.054877  0
H  H26  1  0.24596512  0.83595394  0.55617962  1  0  0.112012  0.116307  0  1.054813  0
H  H27  1  0.25403509  0.44381957  0.16404590  1  0  0.111998  0.116276  0  1.054841  0
H  H28  1  0.34840831  0.19079670  0.37733787  1  0  0.108737  0.101956  0  1.001797  0
H  H29  1  0.15159025  0.62266231  0.80920438  1  0  0.108749  0.101992  0  1.001761  0
H  H30  1  0.65159116  0.80920374  0.62266269  1  0  0.108737  0.101982  0  1.001714  0
H  H31  1  0.84840810  0.37733813  0.19079632  1  0  0.108743  0.101988  0  1.001772  0
H  H32  1  0.53154937  0.14944953  0.30494888  1  0  0.093369  0.089152  0  1.04119  0
H  H33  1  0.96845000  0.69505093  0.85055016  1  0  0.093376  0.089166  0  1.041188  0
H  H34  1  0.46844899  0.85055090  0.69505003  1  0  0.093419  0.089251  0  1.041125  0
H  H35  1  0.03154850  0.30494858  0.14944982  1  0  0.093371  0.089169  0  1.041156  0
H  H36  1  0.36985210  0.40410606  0.48568789  1  0  0.098379  0.098802  0  1.016668  0
H  H37  1  0.13014984  0.51431076  0.59589550  1  0  0.098372  0.098772  0  1.016685  0
H  H38  1  0.63014833  0.59589530  0.51431146  1  0  0.098376  0.098802  0  1.016656  0
H  H39  1  0.86985089  0.48568875  0.40410419  1  0  0.098368  0.098782  0  1.016679  0
H  H40  1  0.74387303  0.08428092  0.69863442  1  0  0.111231  0.109597  0  1.013054  0
H  H41  1  0.75612682  0.30136538  0.91571767  1  0  0.111238  0.109602  0  1.01301  0
H  H42  1  0.25612895  0.91571767  0.30136530  1  0  0.111212  0.109592  0  1.013046  0
H  H43  1  0.24387168  0.69863413  0.08428231  1  0  0.111206  0.10957  0  1.013069  0
C  C44  1  0.48022362  0.34214558  0.31863538  1  0  -0.016236  0.090854  0  3.965002  0
C  C45  1  0.01977730  0.68136258  0.65785571  1  0  -0.016212  0.09084  0  3.965021  0
C  C46  1  0.51977681  0.65785578  0.68136397  1  0  -0.016234  0.090876  0  3.964973  0
C  C47  1  0.98022246  0.31863601  0.34214430  1  0  -0.016224  0.090885  0  3.964986  0
C  C48  1  0.55774273  0.50401579  0.15038923  1  0  -0.100787  -0.088609  0  4.022741  0
C  C49  1  0.94225676  0.84960708  0.49598613  1  0  -0.100831  -0.088619  0  4.022846  0
C  C50  1  0.44225674  0.49598464  0.84961044  1  0  -0.100846  -0.088704  0  4.022772  0
C  C51  1  0.05774426  0.15039058  0.50401390  1  0  -0.100843  -0.088663  0  4.022672  0
C  C52  1  0.43438312  0.55630871  0.34471284  1  0  -0.093493  -0.073491  0  4.01238  0
C  C53  1  0.06561804  0.65528473  0.44369152  1  0  -0.093529  -0.073534  0  4.012378  0
C  C54  1  0.56561746  0.44369172  0.65528668  1  0  -0.093494  -0.073472  0  4.012373  0
C  C55  1  0.93438298  0.34471294  0.55630851  1  0  -0.09349  -0.073505  0  4.012377  0
C  C56  1  0.50141741  0.59284516  0.22384498  1  0  -0.098842  -0.092074  0  4.002158  0
C  C57  1  0.99858242  0.77615334  0.40715631  1  0  -0.098848  -0.092093  0  4.002079  0
C  C58  1  0.49858302  0.40715619  0.77615438  1  0  -0.098846  -0.092073  0  4.002138  0
C  C59  1  0.00141734  0.22384524  0.59284280  1  0  -0.098896  -0.09211  0  4.002122  0
C  C60  1  0.42448835  0.13828859  0.59898586  1  0  0.127995  0.075488  0  3.921324  0
C  C61  1  0.07551152  0.40101348  0.86171179  1  0  0.127959  0.075445  0  3.921317  0
C  C62  1  0.57550860  0.86171369  0.40101375  1  0  0.12798  0.075481  0  3.921444  0
C  C63  1  0.92448713  0.59898511  0.13828836  1  0  0.127996  0.075494  0  3.921297  0
C  C64  1  0.54842835  0.37909876  0.19783867  1  0  -0.101115  -0.144777  0  3.98867  0
C  C65  1  0.95157237  0.80215980  0.62090150  1  0  -0.101072  -0.144684  0  3.988694  0
C  C66  1  0.45157111  0.62090168  0.80216099  1  0  -0.101074  -0.144704  0  3.988602  0
C  C67  1  0.04842835  0.19783971  0.37909819  1  0  -0.101073  -0.144721  0  3.988569  0
C  C68  1  0.66097002  0.14706529  0.51595665  1  0  -0.006445  -0.111614  0  3.921955  0
C  C69  1  0.83902934  0.48404310  0.85293552  1  0  -0.006485  -0.111717  0  3.922032  0
C  C70  1  0.33903182  0.85293422  0.48404200  1  0  -0.006502  -0.111725  0  3.922019  0
C  C71  1  0.16096916  0.51595641  0.14706536  1  0  -0.006513  -0.111734  0  3.922044  0
C  C72  1  0.46578279  0.20745749  0.36833062  1  0  -0.055081  -0.113024  0  3.88426  0
C  C73  1  0.03421657  0.63166839  0.79254363  1  0  -0.055107  -0.113063  0  3.884279  0
C  C74  1  0.53421557  0.79254295  0.63166919  1  0  -0.055122  -0.113175  0  3.88434  0
C  C75  1  0.96578193  0.36833112  0.20745725  1  0  -0.055087  -0.113092  0  3.8843  0
C  C76  1  0.42287795  0.43193400  0.39133679  1  0  -0.094782  -0.138763  0  3.97072  0
C  C77  1  0.07712353  0.60866176  0.56806715  1  0  -0.094758  -0.138714  0  3.970778  0
C  C78  1  0.57712249  0.56806735  0.60866346  1  0  -0.094773  -0.138765  0  3.97073  0
C  C79  1  0.92287623  0.39133683  0.43193286  1  0  -0.094771  -0.138768  0  3.97071  0
C  C80  1  0.65359734  0.10855314  0.64183146  1  0  -0.006764  -0.033566  0  3.98916  0
C  C81  1  0.84640190  0.35816699  0.89144705  1  0  -0.006742  -0.033527  0  3.989038  0
C  C82  1  0.34640576  0.89144544  0.35816722  1  0  -0.00676  -0.033592  0  3.989112  0
C  C83  1  0.15359549  0.64183252  0.10855397  1  0  -0.006738  -0.033545  0  3.989132  0
I  I84  1  0.16163474  0.92836391  0.82595383  1  0  -0.164769  -0.297359  0  2.021444  0
I  I85  1  0.33836318  0.17404748  0.07163575  1  0  -0.164774  -0.297369  0  2.021472  0
I  I86  1  0.83836265  0.07163561  0.17404898  1  0  -0.16477  -0.297363  0  2.021459  0
I  I87  1  0.66163280  0.82595388  0.92836328  1  0  -0.164777  -0.297374  0  2.021447  0
N  N88  1  0.51469494  0.16476746  0.49024167  1  0  -0.242585  0.049991  0  3.772952  0
N  N89  1  0.98530462  0.50975848  0.83523356  1  0  -0.242583  0.050009  0  3.772976  0
N  N90  1  0.48530787  0.83523297  0.50975756  1  0  -0.24258  0.049996  0  3.773034  0
N  N91  1  0.01469388  0.49024103  0.16476642  1  0  -0.24255  0.050059  0  3.772979  0
N  N92  1  0.50561017  0.10357458  0.69241463  1  0  -0.370468  -0.248058  0  3.574206  0
N  N93  1  0.99438915  0.30758480  0.89642572  1  0  -0.370445  -0.24803  0  3.574216  0
N  N94  1  0.49439389  0.89642493  0.30758643  1  0  -0.370442  -0.247975  0  3.574232  0
N  N95  1  0.00560823  0.69241471  0.10357530  1  0  -0.370457  -0.248013  0  3.574138  0
