# generated using pymatgen
data_CuSiH16C24(N2F5)2
_symmetry_space_group_name_H-M   'P 1'
_cell_length_a   8.09568280
_cell_length_b   13.55387340
_cell_length_c   13.55383674
_cell_angle_alpha   89.62194300
_cell_angle_beta   85.92375675
_cell_angle_gamma   85.92512887
_symmetry_Int_Tables_number   1
_chemical_formula_structural   CuSiH16C24(N2F5)2
_chemical_formula_sum   'Cu1 Si1 H16 C24 N4 F10'
_cell_volume   1479.71936699
_cell_formula_units_Z   1
loop_
 _symmetry_equiv_pos_site_id
 _symmetry_equiv_pos_as_xyz
  1  'x, y, z'
loop_
 _atom_site_type_symbol
 _atom_site_label
 _atom_site_symmetry_multiplicity
 _atom_site_fract_x
 _atom_site_fract_y
 _atom_site_fract_z
 _atom_site_occupancy
 _atom_site_pbe_bader_charge
 _atom_site_pbe_bader_spin_density
 _atom_site_pbe_cm5_charge
 _atom_site_pbe_ddec_charge
 _atom_site_pbe_ddec_spin_density
 _atom_site_pbe_ddec_sum_bond_order
 _atom_site_pbe_magmom
Cu  Cu0  1  0.49999229  0.49999753  0.49999802  1  1.110905  0.565929  0.784539  0.685908  0.729817  2.29195  0.563
Si  Si1  1  0.99998928  0.49999647  0.50000012  1  3.180166  -0.000175  0.245281  1.729192  -0.00032  3.937172  0.0
H  H2  1  0.26191483  0.49999055  0.34343553  1  0.220028  0.002198  0.121719  0.110861  0.001055  1.042039  0.002
H  H3  1  0.26833092  0.49986168  0.16214314  1  0.131749  0.001003  0.110567  0.124905  0.000538  1.014261  0.001
H  H4  1  0.80486832  0.50003470  0.15752833  1  0.112735  0.001147  0.113533  0.12501  0.000617  0.991241  0.001
H  H5  1  0.77623836  0.49997787  0.34044342  1  0.193854  0.00227  0.122532  0.111979  0.001077  1.036776  0.002
H  H6  1  0.19512022  0.49997885  0.84247409  1  0.112593  0.001147  0.113527  0.125144  0.000617  0.991133  0.001
H  H7  1  0.73165383  0.50013191  0.83785069  1  0.131596  0.001003  0.110546  0.124847  0.000538  1.014396  0.001
H  H8  1  0.73806744  0.49999268  0.65655698  1  0.220096  0.002198  0.12177  0.110918  0.001055  1.042006  0.002
H  H9  1  0.22374042  0.50001349  0.65956100  1  0.193721  0.00227  0.122511  0.111902  0.001077  1.036862  0.002
H  H10  1  0.26191576  0.34343233  0.49999953  1  0.220238  0.002198  0.121737  0.110882  0.001054  1.041951  0.002
H  H11  1  0.26833446  0.16213961  0.49986064  1  0.131738  0.001003  0.110566  0.124927  0.000538  1.014223  0.001
H  H12  1  0.80486178  0.15752918  0.50003398  1  0.11282  0.001147  0.113551  0.12508  0.000617  0.991172  0.001
H  H13  1  0.77624302  0.34044166  0.49997952  1  0.193802  0.00227  0.122531  0.111949  0.001078  1.036768  0.002
H  H14  1  0.19512867  0.84246809  0.49997141  1  0.112723  0.001147  0.113528  0.125098  0.000617  0.991226  0.001
H  H15  1  0.73166262  0.83785472  0.50012826  1  0.131885  0.001003  0.110526  0.124802  0.000538  1.014363  0.001
H  H16  1  0.73807626  0.65656273  0.49999178  1  0.220025  0.002197  0.121807  0.110974  0.001054  1.042032  0.002
H  H17  1  0.22374872  0.65955562  0.50001769  1  0.193654  0.002271  0.122523  0.111931  0.001078  1.036785  0.002
C  C18  1  0.37988256  0.50000245  0.29947879  1  0.430501  -0.000854  0.053273  0.09918  -0.001333  3.899562  -0.001
C  C19  1  0.38480392  0.49993312  0.19694228  1  -0.045306  0.006293  -0.078696  -0.153204  0.004229  3.914187  0.005
C  C20  1  0.53882091  0.49998560  0.14165985  1  0.014942  -0.003409  -0.000124  0.06303  -0.00381  4.061178  -0.002
C  C21  1  0.68174451  0.50001664  0.19518361  1  -0.066161  0.006407  -0.078808  -0.154904  0.004217  3.91629  0.005
C  C22  1  0.66701568  0.50000035  0.29786254  1  0.49986  -0.00092  0.054993  0.102438  -0.001224  3.896546  0.0
C  C23  1  0.55796491  0.49998179  0.03407076  1  0.463033  -0.001054  0.096708  0.112853  -0.001215  4.012121  0.0
C  C24  1  0.44202666  0.50002732  0.96592640  1  0.561709  -0.00103  0.096803  0.11306  -0.001212  4.012071  0.0
C  C25  1  0.31824552  0.49998433  0.80481882  1  -0.066223  0.006408  -0.078822  -0.15521  0.004217  3.91627  0.005
C  C26  1  0.46116641  0.50001760  0.85833751  1  0.014841  -0.003408  -4.5e-05  0.06314  -0.003809  4.061122  -0.002
C  C27  1  0.61518145  0.50006564  0.80305445  1  -0.044732  0.006293  -0.078711  -0.153136  0.00423  3.914171  0.005
C  C28  1  0.62009981  0.49999040  0.70051440  1  0.430391  -0.000855  0.053219  0.09904  -0.001334  3.899734  -0.001
C  C29  1  0.33296800  0.49999175  0.70213577  1  0.499746  -0.00092  0.054955  0.102591  -0.001225  3.896374  0.0
C  C30  1  0.37988465  0.29947386  0.50000514  1  0.43015  -0.000855  0.053263  0.099152  -0.001333  3.899679  -0.001
C  C31  1  0.38480733  0.19694246  0.49993164  1  -0.045365  0.006292  -0.078659  -0.153209  0.004228  3.914324  0.005
C  C32  1  0.53882170  0.14165963  0.49998491  1  0.015049  -0.00341  -0.000113  0.06306  -0.003811  4.060956  -0.002
C  C33  1  0.68173798  0.19518648  0.50002003  1  -0.066364  0.006407  -0.078859  -0.155059  0.004217  3.916337  0.005
C  C34  1  0.66701293  0.29786100  0.50000427  1  0.499877  -0.000921  0.055015  0.102557  -0.001225  3.89651  0.0
C  C35  1  0.55796692  0.03407054  0.49997974  1  0.463469  -0.001051  0.0967  0.11297  -0.001211  4.011773  0.0
C  C36  1  0.44202872  0.96592526  0.50001438  1  0.561409  -0.001035  0.096676  0.112786  -0.001217  4.012041  0.0
C  C37  1  0.31825099  0.80481302  0.49998172  1  -0.066149  0.006408  -0.078813  -0.155146  0.004218  3.916395  0.005
C  C38  1  0.46117401  0.85833543  0.50001290  1  0.014846  -0.003409  -0.000146  0.063067  -0.00381  4.061092  -0.002
C  C39  1  0.61518912  0.80305704  0.50006021  1  -0.045188  0.006293  -0.078649  -0.153013  0.004229  3.91411  0.005
C  C40  1  0.62011151  0.70051750  0.49998824  1  0.430376  -0.000855  0.053159  0.099018  -0.001334  3.899604  -0.001
C  C41  1  0.33297783  0.70213407  0.49999226  1  0.499854  -0.000922  0.054997  0.102671  -0.001226  3.896541  0.0
N  N42  1  0.51821559  0.50004357  0.34930458  1  -1.206576  0.096023  -0.334847  -0.215128  0.064135  3.57627  0.085
N  N43  1  0.48176668  0.49995001  0.65069304  1  -1.206428  0.09602  -0.334786  -0.215063  0.064133  3.576261  0.085
N  N44  1  0.51821721  0.34930440  0.50004507  1  -1.206346  0.096023  -0.334884  -0.215202  0.064135  3.576105  0.085
N  N45  1  0.48177216  0.65069214  0.49994856  1  -1.206401  0.096017  -0.334783  -0.215217  0.064131  3.576209  0.085
F  F46  1  0.21451560  0.50070999  0.50071959  1  -0.841447  -0.001669  -0.204462  -0.535555  -0.001811  1.329626  -0.001
F  F47  1  0.78546071  0.49928138  0.49928272  1  -0.841603  -0.001668  -0.204352  -0.535452  -0.001811  1.329735  -0.001
F  F48  1  0.99999615  0.58956425  0.41044281  1  -0.831157  0.00017  -0.258427  -0.551117  0.000166  1.053738  0.0
F  F49  1  0.99997508  0.41042794  0.58955552  1  -0.831205  0.00017  -0.258398  -0.551113  0.000166  1.053808  0.0
F  F50  1  0.02234075  0.41057409  0.41056491  1  -0.831072  0.00017  -0.258365  -0.551291  0.000166  1.053622  0.0
F  F51  1  0.97763787  0.58941875  0.58943582  1  -0.831016  0.00017  -0.258429  -0.551365  0.000166  1.053575  0.0
F  F52  1  0.71953246  0.49988291  0.99703722  1  -0.618909  0.000113  -0.077745  -0.111887  8.2e-05  1.393116  0.0
F  F53  1  0.28045973  0.50013138  0.00296136  1  -0.618852  0.000114  -0.077778  -0.111961  8.2e-05  1.393269  0.0
F  F54  1  0.71953330  0.99703903  0.49989449  1  -0.618892  0.000114  -0.0777  -0.111872  8.2e-05  1.392988  0.0
F  F55  1  0.28046348  0.00295751  0.50010105  1  -0.618987  0.000113  -0.077652  -0.111816  8.2e-05  1.393154  0.0
