# generated using pymatgen
data_MnH10(C6N5)2
_symmetry_space_group_name_H-M   'P 1'
_cell_length_a   8.53328524
_cell_length_b   14.50062132
_cell_length_c   14.92494133
_cell_angle_alpha   104.72233613
_cell_angle_beta   89.97570027
_cell_angle_gamma   107.08044584
_symmetry_Int_Tables_number   1
_chemical_formula_structural   MnH10(C6N5)2
_chemical_formula_sum   'Mn4 H40 C48 N40'
_cell_volume   1701.85752178
_cell_formula_units_Z   4
loop_
 _symmetry_equiv_pos_site_id
 _symmetry_equiv_pos_as_xyz
  1  'x, y, z'
loop_
 _atom_site_type_symbol
 _atom_site_label
 _atom_site_symmetry_multiplicity
 _atom_site_fract_x
 _atom_site_fract_y
 _atom_site_fract_z
 _atom_site_occupancy
 _atom_site_pbe_bader_charge
 _atom_site_pbe_bader_spin_density
 _atom_site_pbe_cm5_charge
 _atom_site_pbe_ddec_charge
 _atom_site_pbe_ddec_spin_density
 _atom_site_pbe_ddec_sum_bond_order
 _atom_site_pbe_magmom
Mn  Mn0  1  0.48981805  0.49212774  0.38280547  1  1.458417  4.416591  0.641885  0.765262  4.569499  2.736892  4.347
Mn  Mn1  1  0.99790208  0.50794598  0.11719860  1  1.459945  4.417221  0.641383  0.765009  4.568596  2.736646  4.348
Mn  Mn2  1  0.51017688  0.50794686  0.61720824  1  1.458597  4.416529  0.641911  0.765443  4.569793  2.736634  4.347
Mn  Mn3  1  0.00216925  0.49211969  0.88281706  1  1.459493  4.417292  0.64153  0.765013  4.568159  2.736689  4.348
H  H4  1  0.61905503  0.71972316  0.37944624  1  0.115319  0.001624  0.115967  0.083781  0.000973  1.028532  0.001
H  H5  1  0.86564682  0.52584570  0.42029062  1  0.096524  0.00151  0.115544  0.076217  0.00053  1.01471  0.001
H  H6  1  0.14157123  0.65367770  0.42535221  1  0.091971  0.001058  0.107169  0.112536  0.000509  1.023012  0.0
H  H7  1  0.15021255  0.82222417  0.40716442  1  0.128466  0.00017  0.118013  0.118998  0.000141  0.975858  0.0
H  H8  1  0.75631762  0.89295589  0.38160567  1  0.079075  7.7e-05  0.119014  0.084411  3.8e-05  0.970532  0.0
H  H9  1  0.22817810  0.09357707  0.36198456  1  0.08492  0.00019  0.118071  0.082882  0.000159  0.979543  0.0
H  H10  1  0.83218091  0.16793685  0.35680433  1  0.133555  0.000279  0.116144  0.118754  0.000251  0.991039  0.0
H  H11  1  0.83710858  0.33867837  0.34702107  1  0.090343  0.000966  0.108049  0.114389  0.000318  1.025165  0.0
H  H12  1  0.10943724  0.46645005  0.34782058  1  0.105117  0.001211  0.117596  0.077985  0.000468  1.025772  0.0
H  H13  1  0.36063404  0.26294382  0.35365743  1  0.139125  0.001522  0.120602  0.086964  0.001069  1.027267  0.001
H  H14  1  0.90016360  0.28028815  0.12000677  1  0.135104  0.001592  0.116153  0.084397  0.00097  1.027773  0.001
H  H15  1  0.34076675  0.47455714  0.08031550  1  0.066061  0.001503  0.115282  0.076651  0.000514  1.014944  0.001
H  H16  1  0.48872566  0.34635678  0.07439733  1  0.085939  0.001062  0.107605  0.113255  0.000512  1.022325  0.0
H  H17  1  0.32909415  0.17786852  0.09269032  1  0.120477  0.000178  0.118553  0.119031  0.000146  0.977519  0.0
H  H18  1  0.86445465  0.10758051  0.11856106  1  0.090257  6.9e-05  0.118925  0.08355  3.6e-05  0.971088  0.0
H  H19  1  0.13411514  0.90616408  0.13807429  1  0.107204  0.000184  0.118486  0.08308  0.000161  0.980122  0.0
H  H20  1  0.66360817  0.83220131  0.14319351  1  0.12471  0.000283  0.116191  0.118589  0.000252  0.990749  0.0
H  H21  1  0.49803288  0.66143350  0.15292428  1  0.100183  0.00096  0.108185  0.113834  0.000326  1.024911  0.0
H  H22  1  0.64268230  0.53339801  0.15128246  1  0.069814  0.001224  0.117735  0.078293  0.000462  1.025113  0.0
H  H23  1  0.09725368  0.73724919  0.14681485  1  0.092009  0.001564  0.120735  0.087291  0.001063  1.027053  0.001
H  H24  1  0.38094604  0.28027224  0.62055589  1  0.115218  0.001619  0.115958  0.083766  0.000968  1.028647  0.001
H  H25  1  0.13436533  0.47415778  0.57970600  1  0.096896  0.001512  0.115525  0.076205  0.000531  1.014666  0.001
H  H26  1  0.85844409  0.34632981  0.57465942  1  0.09224  0.001057  0.107243  0.112678  0.000508  1.022879  0.0
H  H27  1  0.84979533  0.17778957  0.59286070  1  0.128485  0.000169  0.118057  0.11913  0.00014  0.975718  0.0
H  H28  1  0.24368489  0.10704944  0.61840881  1  0.078816  7.7e-05  0.119044  0.084391  3.7e-05  0.970646  0.0
H  H29  1  0.77183462  0.90642524  0.63802788  1  0.084976  0.000191  0.11799  0.082793  0.00016  0.979702  0.0
H  H30  1  0.16783588  0.83207596  0.64321187  1  0.133637  0.00028  0.116142  0.118722  0.000252  0.990899  0.0
H  H31  1  0.16291764  0.66132749  0.65298280  1  0.090264  0.000968  0.108023  0.114384  0.000319  1.025285  0.0
H  H32  1  0.89059089  0.53355495  0.65217774  1  0.105227  0.001211  0.11763  0.078047  0.000467  1.02576  0.0
H  H33  1  0.63938145  0.73705465  0.64634876  1  0.139307  0.001526  0.12059  0.08687  0.001073  1.027297  0.001
H  H34  1  0.09983093  0.71969414  0.87997291  1  0.135093  0.001596  0.116147  0.084362  0.000974  1.027868  0.001
H  H35  1  0.65921421  0.52543785  0.91966577  1  0.066103  0.001502  0.115229  0.076604  0.000514  1.014959  0.001
H  H36  1  0.51127641  0.65364297  0.92559843  1  0.085948  0.001064  0.10762  0.113268  0.000513  1.022317  0.0
H  H37  1  0.67090922  0.82212914  0.90731300  1  0.120336  0.000178  0.118521  0.118971  0.000146  0.977526  0.0
H  H38  1  0.13555574  0.89241712  0.88144092  1  0.090335  6.9e-05  0.118913  0.08354  3.6e-05  0.970986  0.0
H  H39  1  0.86588868  0.09383448  0.86193661  1  0.107233  0.000184  0.118442  0.083065  0.000161  0.980131  0.0
H  H40  1  0.33639392  0.16780318  0.85681608  1  0.124777  0.000283  0.116134  0.118494  0.000252  0.990811  0.0
H  H41  1  0.50195815  0.33856993  0.84706966  1  0.100439  0.000958  0.108254  0.113912  0.000325  1.024817  0.0
H  H42  1  0.35729305  0.46660219  0.84869867  1  0.070105  0.001224  0.117783  0.078338  0.000462  1.025229  0.0
H  H43  1  0.90273847  0.26273772  0.85317192  1  0.091897  0.001559  0.120764  0.087232  0.001058  1.02716  0.001
C  C44  1  0.73775505  0.70819644  0.38973743  1  0.474502  0.005561  0.05545  0.051897  0.004326  3.900335  0.004
C  C45  1  0.87608763  0.59964569  0.41107627  1  0.457416  0.005878  0.053145  0.095767  0.004467  3.929997  0.004
C  C46  1  0.02844005  0.67061784  0.41375992  1  -0.029021  0.000418  -0.079893  -0.117731  -0.000251  3.988034  0.0
C  C47  1  0.03381352  0.76421187  0.40429580  1  -0.015288  0.004462  -0.048849  -0.038658  0.003401  3.872038  0.003
C  C48  1  0.88506593  0.78454851  0.39239212  1  0.040086  0.000637  -0.005373  0.018516  8.1e-05  4.022339  0.0
C  C49  1  0.87745896  0.88080198  0.38369820  1  0.634942  0.000578  0.076637  0.060957  0.000394  3.938295  0.0
C  C50  1  0.10686251  0.10584669  0.36308041  1  0.646478  0.001069  0.076108  0.058276  0.000809  3.932867  0.001
C  C51  1  0.09696835  0.20238387  0.35648878  1  0.00282  0.000279  -0.003746  0.024173  -0.000419  4.014416  0.0
C  C52  1  0.94750729  0.22460948  0.35418381  1  -0.003186  0.00807  -0.052761  -0.051528  0.006386  3.894469  0.005
C  C53  1  0.95084910  0.31952620  0.34947285  1  -0.02335  -0.000332  -0.084464  -0.130772  -0.001086  3.988674  -0.001
C  C54  1  0.10208722  0.39075039  0.34995246  1  0.459057  0.008639  0.052111  0.091984  0.00652  3.936962  0.006
C  C55  1  0.24252172  0.27786948  0.35403168  1  0.443987  0.008149  0.060858  0.059736  0.006445  3.872665  0.005
C  C56  1  0.03049517  0.29194008  0.10999711  1  0.464833  0.005514  0.056457  0.052216  0.00432  3.899174  0.004
C  C57  1  0.27732707  0.40056103  0.08902476  1  0.492484  0.005319  0.052403  0.094431  0.004065  3.93035  0.004
C  C58  1  0.35871075  0.32948362  0.08606941  1  0.050016  0.000473  -0.080205  -0.118755  -0.000158  3.986911  0.0
C  C59  1  0.27060455  0.23587741  0.09552959  1  -0.072541  0.004237  -0.048995  -0.037908  0.003215  3.872321  0.002
C  C60  1  0.10154955  0.21556762  0.10739105  1  0.051197  0.000597  -0.00637  0.017753  8.8e-05  4.020661  0.0
C  C61  1  0.99761470  0.11943776  0.11623382  1  0.621722  0.000317  0.076834  0.061956  0.000172  3.939315  0.0
C  C62  1  0.00060250  0.89415911  0.13694649  1  0.631404  0.000771  0.075485  0.057406  0.000561  3.93312  0.001
C  C63  1  0.89398067  0.79774174  0.14362976  1  0.011426  0.000185  -0.002989  0.02548  -0.000463  4.015083  0.0
C  C64  1  0.72234342  0.77554220  0.14589273  1  -0.02783  0.007627  -0.053131  -0.051796  0.006042  3.89421  0.004
C  C65  1  0.63088045  0.68058718  0.15050258  1  -0.035126  -0.000217  -0.083802  -0.12901  -0.000975  3.989323  -0.001
C  C66  1  0.71097546  0.60927524  0.14970669  1  0.507372  0.008264  0.051891  0.090989  0.006293  3.940518  0.005
C  C67  1  0.96421296  0.72228917  0.14621046  1  0.512541  0.008116  0.060306  0.058346  0.006528  3.875008  0.005
C  C68  1  0.26225729  0.29180276  0.61026826  1  0.474487  0.005547  0.055459  0.051837  0.004312  3.900166  0.004
C  C69  1  0.12392501  0.40035644  0.58892742  1  0.457111  0.005864  0.05316  0.095761  0.004456  3.930216  0.004
C  C70  1  0.97156868  0.32938820  0.58625271  1  -0.028431  0.000418  -0.080086  -0.117967  -0.000251  3.987844  0.0
C  C71  1  0.96620587  0.23579206  0.59572304  1  -0.016302  0.00445  -0.048873  -0.038963  0.003392  3.872131  0.003
C  C72  1  0.11493816  0.21545528  0.60762000  1  0.040655  0.00064  -0.005351  0.01886  8.4e-05  4.022146  0.0
C  C73  1  0.12255170  0.11920560  0.61631679  1  0.634747  0.000578  0.076679  0.060871  0.000394  3.938345  0.0
C  C74  1  0.89314357  0.89416110  0.63694536  1  0.646989  0.001071  0.076261  0.058666  0.00081  3.932894  0.001
C  C75  1  0.90304774  0.79762519  0.64352589  1  0.002362  0.00028  -0.003864  0.023874  -0.00042  4.014507  0.0
C  C76  1  0.05250961  0.77539884  0.64583136  1  -0.003213  0.00808  -0.052828  -0.051415  0.006394  3.894268  0.005
C  C77  1  0.04917279  0.68048272  0.65053509  1  -0.023488  -0.000332  -0.084327  -0.13082  -0.001086  3.988682  -0.001
C  C78  1  0.89792770  0.60925163  0.65004516  1  0.459469  0.008655  0.052125  0.092057  0.006531  3.937048  0.006
C  C79  1  0.75749443  0.72213501  0.64597791  1  0.443928  0.008159  0.060841  0.059951  0.006455  3.872601  0.005
C  C80  1  0.96949988  0.70805499  0.88998819  1  0.464881  0.005524  0.056403  0.052146  0.004331  3.899535  0.004
C  C81  1  0.72266643  0.59943328  0.91095970  1  0.492  0.00533  0.052466  0.094478  0.004074  3.930489  0.004
C  C82  1  0.64129028  0.67051170  0.91392869  1  0.050337  0.000474  -0.080252  -0.118827  -0.000158  3.987018  0.0
C  C83  1  0.72938752  0.76411875  0.90447272  1  -0.071975  0.004248  -0.048953  -0.03773  0.003223  3.871946  0.002
C  C84  1  0.89844563  0.78442536  0.89260115  1  0.050778  0.000594  -0.006244  0.017769  8.5e-05  4.020717  0.0
C  C85  1  0.00238438  0.88055834  0.88376580  1  0.621632  0.000318  0.076779  0.061911  0.000173  3.939459  0.0
C  C86  1  0.99939694  0.10584008  0.86305853  1  0.631202  0.00077  0.075511  0.057469  0.000561  3.933066  0.001
C  C87  1  0.10601168  0.20225967  0.85637443  1  0.011593  0.000186  -0.002992  0.02541  -0.000461  4.015017  0.0
C  C88  1  0.27764699  0.22446000  0.85411365  1  -0.027556  0.007618  -0.053041  -0.051683  0.006035  3.894391  0.004
C  C89  1  0.36910998  0.31941037  0.84949536  1  -0.035595  -0.000217  -0.083952  -0.12902  -0.000976  3.989214  -0.001
C  C90  1  0.28900587  0.39072285  0.85028065  1  0.506864  0.008254  0.051853  0.090764  0.006285  3.940394  0.005
C  C91  1  0.03577819  0.27770981  0.85378446  1  0.512615  0.00811  0.060306  0.058479  0.006522  3.875179  0.005
N  N92  1  0.73265690  0.61745664  0.39845100  1  -1.242145  0.046788  -0.314171  -0.22975  0.03273  3.510565  0.019
N  N93  1  0.00948700  0.95084539  0.37843140  1  -0.776217  9.8e-05  -0.215395  -0.179526  -1.7e-05  3.323314  0.0
N  N94  1  0.97602596  0.03679509  0.37166928  1  -0.77195  -0.000386  -0.214205  -0.171468  -0.000562  3.322625  0.0
N  N95  1  0.24601925  0.37070301  0.35277220  1  -1.247049  0.049597  -0.314817  -0.227095  0.034071  3.522803  0.018
N  N96  1  0.58632890  0.42921271  0.48674640  1  -0.439611  0.054404  -0.30878  -0.548121  0.043788  3.144103  0.008
N  N97  1  0.59353956  0.34472581  0.47355842  1  -0.34359  0.034218  0.082914  0.407946  0.020471  4.488529  0.02
N  N98  1  0.59985730  0.26300040  0.46078475  1  -0.000333  0.123333  -0.201759  -0.392271  0.096263  2.557315  0.085
N  N99  1  0.58552354  0.39635402  0.27693240  1  -0.21169  0.079963  -0.254797  -0.466095  0.062882  2.96399  0.036
N  N100  1  0.70572606  0.41254838  0.23643349  1  -0.331733  0.048547  0.093101  0.426049  0.031939  4.501316  0.035
N  N101  1  0.82591682  0.42584080  0.19593829  1  -0.247328  0.094205  -0.249699  -0.465445  0.073887  3.010493  0.045
N  N102  1  0.11603320  0.38272846  0.10148179  1  -1.284185  0.047243  -0.313294  -0.228772  0.033042  3.51072  0.019
N  N103  1  0.05907349  0.04908198  0.12127932  1  -0.761529  2.3e-05  -0.215932  -0.179685  -7e-05  3.323924  0.0
N  N104  1  0.93925116  0.96336425  0.12817285  1  -0.758229  -0.000501  -0.213631  -0.17114  -0.000678  3.321954  0.0
N  N105  1  0.87496769  0.62937803  0.14717786  1  -1.275882  0.049549  -0.314425  -0.226135  0.034076  3.521992  0.018
N  N106  1  0.15674169  0.57093212  0.01309772  1  -0.403693  0.054154  -0.309434  -0.548483  0.043763  3.144907  0.008
N  N107  1  0.24847659  0.65537468  0.02639320  1  -0.366853  0.034581  0.083244  0.40879  0.020528  4.488043  0.02
N  N108  1  0.33660664  0.73705560  0.03933051  1  -0.013803  0.123996  -0.201839  -0.392964  0.096746  2.558303  0.086
N  N109  1  0.18934493  0.60356090  0.22277965  1  -0.222936  0.081129  -0.255143  -0.466191  0.063159  2.964591  0.036
N  N110  1  0.29303468  0.58747153  0.26362282  1  -0.335847  0.048731  0.092819  0.425649  0.032055  4.503817  0.035
N  N111  1  0.39967773  0.57442277  0.30450063  1  -0.235868  0.094803  -0.249195  -0.464156  0.074296  3.013445  0.045
N  N112  1  0.26734603  0.38254248  0.60155065  1  -1.242217  0.046783  -0.314095  -0.229689  0.032727  3.510517  0.019
N  N113  1  0.99052058  0.04916541  0.62159573  1  -0.776231  9.9e-05  -0.215497  -0.179409  -1.6e-05  3.32349  0.0
N  N114  1  0.02398547  0.96321872  0.62835921  1  -0.772206  -0.000386  -0.214237  -0.171817  -0.000563  3.322746  0.0
N  N115  1  0.75399410  0.62930055  0.64722780  1  -1.247295  0.049611  -0.314874  -0.227228  0.034091  3.523036  0.018
N  N116  1  0.41369779  0.57078704  0.51325003  1  -0.439995  0.054405  -0.308913  -0.548229  0.043783  3.144819  0.008
N  N117  1  0.40647777  0.65527165  0.52643481  1  -0.343729  0.034294  0.083109  0.408228  0.020525  4.48817  0.02
N  N118  1  0.40014929  0.73699433  0.53922125  1  0.000192  0.12353  -0.201823  -0.392374  0.096419  2.55738  0.086
N  N119  1  0.41446856  0.60364453  0.72307783  1  -0.212269  0.080079  -0.254841  -0.466041  0.062967  2.964573  0.036
N  N120  1  0.29425835  0.58742304  0.76356110  1  -0.331866  0.048649  0.092722  0.425568  0.032013  4.502025  0.035
N  N121  1  0.17403807  0.57413016  0.80403275  1  -0.246643  0.094292  -0.249368  -0.46486  0.073952  3.011518  0.045
N  N122  1  0.88395638  0.61726504  0.89849913  1  -1.284086  0.047228  -0.313329  -0.228694  0.033052  3.510906  0.019
N  N123  1  0.94091942  0.95091116  0.87872095  1  -0.761482  2.2e-05  -0.215952  -0.179722  -7.1e-05  3.323857  0.0
N  N124  1  0.06074674  0.03663419  0.87183199  1  -0.758277  -0.0005  -0.213645  -0.171155  -0.000677  3.321756  0.0
N  N125  1  0.12501212  0.37061703  0.85280678  1  -1.275554  0.049504  -0.314373  -0.226056  0.034061  3.521914  0.018
N  N126  1  0.84321872  0.42904990  0.98686783  1  -0.402741  0.054098  -0.309129  -0.548529  0.043765  3.143746  0.008
N  N127  1  0.75149327  0.34460279  0.97356861  1  -0.355518  0.03447  0.083033  0.408861  0.020468  4.487434  0.02
N  N128  1  0.66336650  0.26292610  0.96065640  1  -0.025936  0.123776  -0.201774  -0.393015  0.096545  2.55797  0.086
N  N129  1  0.81060165  0.39639577  0.77718473  1  -0.223374  0.081067  -0.254751  -0.465849  0.063119  2.963497  0.036
N  N130  1  0.70691312  0.41248523  0.73634560  1  -0.334796  0.048587  0.092597  0.425571  0.031956  4.504245  0.035
N  N131  1  0.60029391  0.42559113  0.69549506  1  -0.2365  0.094599  -0.249348  -0.464688  0.074139  3.013488  0.045
