# generated using pymatgen
data_FeH8Au2(C2N)8
_symmetry_space_group_name_H-M   'P 1'
_cell_length_a   8.16313756
_cell_length_b   15.84316872
_cell_length_c   15.85162438
_cell_angle_alpha   117.11459381
_cell_angle_beta   99.93067161
_cell_angle_gamma   99.85468932
_symmetry_Int_Tables_number   1
_chemical_formula_structural   FeH8Au2(C2N)8
_chemical_formula_sum   'Fe3 H24 Au6 C48 N24'
_cell_volume   1722.97064778
_cell_formula_units_Z   3
loop_
 _symmetry_equiv_pos_site_id
 _symmetry_equiv_pos_as_xyz
  1  'x, y, z'
loop_
 _atom_site_type_symbol
 _atom_site_label
 _atom_site_symmetry_multiplicity
 _atom_site_fract_x
 _atom_site_fract_y
 _atom_site_fract_z
 _atom_site_occupancy
 _atom_site_pbe_bader_charge
 _atom_site_pbe_bader_spin_density
 _atom_site_pbe_cm5_charge
 _atom_site_pbe_ddec_charge
 _atom_site_pbe_ddec_spin_density
 _atom_site_pbe_ddec_sum_bond_order
 _atom_site_pbe_magmom
Fe  Fe0  1  0.50179884  0.51362035  0.99912164  1  1.241438  0  0.826093  0.593832  0  3.725448  0
Fe  Fe1  1  0.98807763  0.48626528  0.48536418  1  1.247994  0  0.827054  0.593301  0  3.731704  0
Fe  Fe2  1  0.50436600  0.99999570  0.48729552  1  1.235405  0  0.825536  0.594348  0  3.722452  0
H  H3  1  0.47955658  0.57200958  0.84656678  1  0.141133  0  0.126584  0.105046  0  0.99942  0
H  H4  1  0.91171546  0.27651018  0.43046970  1  0.132786  0  0.125922  0.103787  0  1.002561  0
H  H5  1  0.64468440  0.15328231  0.72726745  1  0.125659  0  0.121812  0.096886  0  0.99471  0
H  H6  1  0.36053275  0.27305804  0.84742352  1  0.129648  0  0.121624  0.096404  0  0.993624  0
H  H7  1  0.52388707  0.15374711  0.43050623  1  0.126717  0  0.126104  0.104224  0  1.001086  0
H  H8  1  0.08420510  0.57141954  0.72515401  1  0.113612  0  0.121066  0.09671  0  0.995904  0
H  H9  1  0.51293764  0.42853751  0.15363139  1  0.123797  0  0.121072  0.096605  0  0.996707  0
H  H10  1  0.08757439  0.72689042  0.57441563  1  0.128459  0  0.122067  0.096666  0  0.993036  0
H  H11  1  0.37007956  0.84619235  0.27677872  1  0.130849  0  0.126123  0.104094  0  1.000801  0
H  H12  1  0.63515944  0.72347008  0.15399845  1  0.130946  0  0.125894  0.103795  0  1.002738  0
H  H13  1  0.49163187  0.84700068  0.57411991  1  0.124593  0  0.121738  0.096687  0  0.994873  0
H  H14  1  0.90762861  0.42802605  0.27455026  1  0.146383  0  0.126628  0.104851  0  0.999686  0
H  H15  1  0.54796995  0.72954367  0.84247722  1  0.133993  0  0.114761  0.123596  0  0.999641  0
H  H16  1  0.82318377  0.11341066  0.27479863  1  0.09653  0  0.115347  0.124809  0  0.99834  0
H  H17  1  0.71215853  0.15965680  0.89177178  1  0.128412  0  0.114041  0.123499  0  1.002228  0
H  H18  1  0.28829074  0.10945671  0.84265898  1  0.098969  0  0.113928  0.12229  0  1.001892  0
H  H19  1  0.45156628  0.15953755  0.27418636  1  0.108898  0  0.115516  0.124717  0  0.998669  0
H  H20  1  0.17476112  0.72848869  0.89024997  1  0.092672  0  0.114436  0.123485  0  1.000309  0
H  H21  1  0.44692471  0.27150985  0.16169909  1  0.137305  0  0.114116  0.122856  0  1.000213  0
H  H22  1  0.17865447  0.89051606  0.73322331  1  0.08925  0  0.113981  0.122178  0  1.002037  0
H  H23  1  0.29196073  0.84035953  0.11465650  1  0.116006  0  0.115166  0.123856  0  0.998566  0
H  H24  1  0.70956455  0.88660626  0.16146332  1  0.093014  0  0.115221  0.124517  0  0.997916  0
H  H25  1  0.55288433  0.84056678  0.73220216  1  0.117123  0  0.113927  0.122823  0  1.001702  0
H  H26  1  0.81880789  0.27054379  0.11292460  1  0.132247  0  0.114867  0.123724  0  1.000263  0
Au  Au27  1  0.00223665  0.29892271  0.70113172  1  0.256992  0  0.254709  0.010342  0  3.155555  0
Au  Au28  1  0.70156427  0.40493561  0.69957429  1  0.248395  0  0.256053  0.013686  0  3.169521  0
Au  Au29  1  0.29945237  0.29708791  0.59408111  1  0.249826  0  0.259233  0.019345  0  3.182113  0
Au  Au30  1  0.00236307  0.70298098  0.29717436  1  0.260335  0  0.259639  0.020336  0  3.178688  0
Au  Au31  1  0.29696309  0.59506511  0.29485248  1  0.248198  0  0.2568  0.014942  0  3.171063  0
Au  Au32  1  0.70336088  0.70097687  0.40209895  1  0.248186  0  0.254488  0.010064  0  3.160722  0
C  C33  1  0.53089390  0.64321667  0.91441741  1  0.412678  0  0.05269  0.081496  0  3.883004  0
C  C34  1  0.88997920  0.27178906  0.35864403  1  0.42975  0  0.051907  0.082825  0  3.879581  0
C  C35  1  0.62657719  0.08599980  0.73217026  1  0.503555  0  0.058007  0.090887  0  3.937108  0
C  C36  1  0.37740568  0.26891828  0.91507836  1  0.483439  0  0.059205  0.091313  0  3.934859  0
C  C37  1  0.47204960  0.08623197  0.35903610  1  0.454217  0  0.053012  0.083737  0  3.878613  0
C  C38  1  0.10646370  0.64386816  0.73070656  1  0.51645  0  0.0589  0.092  0  3.929461  0
C  C39  1  0.46277025  0.35609771  0.08675647  1  0.465717  0  0.059001  0.091625  0  3.931715  0
C  C40  1  0.10843969  0.73104866  0.64621932  1  0.479283  0  0.058868  0.091458  0  3.935394  0
C  C41  1  0.38574598  0.91370524  0.27281026  1  0.450265  0  0.05286  0.084113  0  3.877709  0
C  C42  1  0.61823183  0.72820397  0.08691180  1  0.478405  0  0.052202  0.083207  0  3.878676  0
C  C43  1  0.54076569  0.91426313  0.64628704  1  0.449245  0  0.057977  0.090903  0  3.935587  0
C  C44  1  0.88770035  0.35679556  0.27116217  1  0.439779  0  0.053127  0.082477  0  3.882089  0
C  C45  1  0.56941193  0.73093512  0.91283071  1  -0.005176  0  -0.072176  -0.141671  0  3.951787  0
C  C46  1  0.84112064  0.18158881  0.27191384  1  0.032494  0  -0.071893  -0.141919  0  3.951611  0
C  C47  1  0.66399500  0.08928658  0.82279140  1  -0.041312  0  -0.072326  -0.146888  0  3.93776  0
C  C48  1  0.33726504  0.17878286  0.91269399  1  0.009471  0  -0.072193  -0.143281  0  3.934543  0
C  C49  1  0.43126950  0.08877785  0.27192000  1  -0.013377  0  -0.072161  -0.141362  0  3.949485  0
C  C50  1  0.15606008  0.73068364  0.82171924  1  -0.016223  0  -0.071686  -0.144809  0  3.93311  0
C  C51  1  0.42582729  0.26927210  0.09096070  1  -0.012877  0  -0.071857  -0.143374  0  3.932224  0
C  C52  1  0.15813906  0.82119375  0.73393957  1  0.016304  0  -0.072354  -0.143888  0  3.933593  0
C  C53  1  0.34244300  0.91113635  0.18312489  1  -0.033969  0  -0.07157  -0.139974  0  3.948417  0
C  C54  1  0.65943569  0.81843293  0.09039141  1  -0.000328  0  -0.071978  -0.142345  0  3.950479  0
C  C55  1  0.57494951  0.91095337  0.73361236  1  0.037244  0  -0.071946  -0.144877  0  3.934199  0
C  C56  1  0.83875753  0.26908490  0.18184789  1  -0.055197  0  -0.073035  -0.142636  0  3.951372  0
C  C57  1  0.63512729  0.82132056  0.00207022  1  -0.026998  0  0.004835  0.031304  0  3.97858  0
C  C58  1  0.81408233  0.17868700  0.18070767  1  -0.014237  0  0.005162  0.031111  0  3.977718  0
C  C59  1  0.63803905  0.00010250  0.82401084  1  -0.039503  0  0.009155  0.040797  0  3.96259  0
C  C60  1  0.36186104  0.17844798  0.00227819  1  -0.008491  0  0.010103  0.037781  0  3.965777  0
C  C61  1  0.36516187  0.99994967  0.18112773  1  0.010715  0  0.005083  0.028552  0  3.978821  0
C  C62  1  0.18282069  0.82149972  0.82384216  1  0.000914  0  0.009833  0.038981  0  3.963498  0
C  C63  1  0.67331468  0.91584384  0.00267878  1  1.085517  0  0.254107  0.374645  0  4.021619  0
C  C64  1  0.75777977  0.08416128  0.08683706  1  1.06516  0  0.252885  0.373457  0  4.022521  0
C  C65  1  0.67402531  0.00002147  0.91867707  1  1.075041  0  0.25643  0.37592  0  4.022821  0
C  C66  1  0.32446355  0.08403823  0.00285397  1  1.053974  0  0.258721  0.37899  0  4.01608  0
C  C67  1  0.32550845  0.99996585  0.08700559  1  1.067323  0  0.255446  0.376  0  4.013972  0
C  C68  1  0.24007855  0.91592519  0.91881920  1  1.055323  0  0.25846  0.378734  0  4.015691  0
C  C69  1  0.17524234  0.40737180  0.82274782  1  0.826668  0  -0.007987  0.044984  0  3.930188  0
C  C70  1  0.76785526  0.41541328  0.59050626  1  0.803715  0  -0.009614  0.043526  0  3.93036  0
C  C71  1  0.35625720  0.17541315  0.57591880  1  0.815122  0  -0.011654  0.038023  0  3.929427  0
C  C72  1  0.64880447  0.42627723  0.82302436  1  0.820617  0  -0.01177  0.038268  0  3.929973  0
C  C73  1  0.82979432  0.17680820  0.59308253  1  0.811595  0  -0.008633  0.044639  0  3.929205  0
C  C74  1  0.22434547  0.40004352  0.57489276  1  0.805989  0  -0.012751  0.037137  0  3.930249  0
C  C75  1  0.82417537  0.60014120  0.17501799  1  0.808759  0  -0.011671  0.03818  0  3.932929  0
C  C76  1  0.22311103  0.57349858  0.39688752  1  0.804124  0  -0.01145  0.038681  0  3.933072  0
C  C77  1  0.65300332  0.82310659  0.41629082  1  0.816728  0  -0.009409  0.044889  0  3.928768  0
C  C78  1  0.35239403  0.58469973  0.17525492  1  0.821404  0  -0.010494  0.042495  0  3.934517  0
C  C79  1  0.18103171  0.82458261  0.40065639  1  0.825405  0  -0.011508  0.038454  0  3.932084  0
C  C80  1  0.76787067  0.59246242  0.41510175  1  0.809114  0  -0.010167  0.042112  0  3.931946  0
N  N81  1  0.55478226  0.64081027  0.00020311  1  -1.14603  0  -0.306298  -0.116137  0  3.545692  0
N  N82  1  0.91385249  0.35918604  0.35933412  1  -1.13938  0  -0.306895  -0.116875  0  3.547062  0
N  N83  1  0.56660763  0.00014329  0.64624128  1  -1.192566  0  -0.267854  -0.160048  0  3.386903  0
N  N84  1  0.43869297  0.35527143  0.00046548  1  -1.207965  0  -0.268166  -0.160334  0  3.384655  0
N  N85  1  0.44986735  0.99997278  0.36057391  1  -1.132548  0  -0.305486  -0.118498  0  3.543142  0
N  N86  1  0.08342812  0.64471155  0.64527126  1  -1.197111  0  -0.267767  -0.160156  0  3.383614  0
N  N87  1  0.28941143  0.45846057  0.89551784  1  -1.319702  0  -0.381681  -0.300207  0  3.571644  0
N  N88  1  0.83134474  0.43788058  0.54003344  1  -1.289833  0  -0.383087  -0.299935  0  3.581047  0
N  N89  1  0.39853774  0.10242781  0.54532932  1  -1.300086  0  -0.382479  -0.295487  0  3.586657  0
N  N90  1  0.60751868  0.45624750  0.89626878  1  -1.307227  0  -0.381102  -0.29466  0  3.579703  0
N  N91  1  0.71639585  0.10363736  0.54219798  1  -1.302147  0  -0.381382  -0.299233  0  3.571043  0
N  N92  1  0.15187227  0.44215168  0.54368567  1  -1.292257  0  -0.38224  -0.294599  0  3.588282  0
N  N93  1  0.70984918  0.55785639  0.10165739  1  -1.300816  0  -0.382367  -0.295474  0  3.590934  0
N  N94  1  0.15147266  0.54356742  0.44008039  1  -1.291224  0  -0.381636  -0.295526  0  3.584125  0
N  N95  1  0.61272408  0.89632221  0.43860102  1  -1.302513  0  -0.381247  -0.300584  0  3.571474  0
N  N96  1  0.39342826  0.56214980  0.10231574  1  -1.306784  0  -0.382027  -0.299247  0  3.581816  0
N  N97  1  0.29616156  0.89757315  0.44303384  1  -1.314245  0  -0.382251  -0.295785  0  3.58802  0
N  N98  1  0.83109566  0.54144592  0.43692379  1  -1.29801  0  -0.380615  -0.298278  0  3.572471  0
N  N99  1  0.73156656  0.99999324  0.09083985  1  -1.170593  0  -0.305594  -0.407575  0  3.210325  0
N  N100  1  0.73166505  0.08808133  0.00253893  1  -1.187688  0  -0.3069  -0.409231  0  3.215345  0
N  N101  1  0.64293164  0.91194918  0.91447043  1  -1.193777  0  -0.307457  -0.410606  0  3.217004  0
N  N102  1  0.35530540  0.08816602  0.09085006  1  -1.173841  0  -0.303877  -0.40453  0  3.209207  0
N  N103  1  0.26676785  0.91176586  0.00266653  1  -1.159845  0  -0.303555  -0.404832  0  3.210722  0
N  N104  1  0.26637778  0.99998325  0.91476942  1  -1.1834  0  -0.305279  -0.407139  0  3.214662  0
