# generated using pymatgen
data_SmAgH6C12(NO2)4
_symmetry_space_group_name_H-M   'P 1'
_cell_length_a   8.07362164
_cell_length_b   10.12026434
_cell_length_c   18.66612570
_cell_angle_alpha   89.99970857
_cell_angle_beta   89.99996143
_cell_angle_gamma   95.69866386
_symmetry_Int_Tables_number   1
_chemical_formula_structural   SmAgH6C12(NO2)4
_chemical_formula_sum   'Sm4 Ag4 H24 C48 N16 O32'
_cell_volume   1517.61908997
_cell_formula_units_Z   4
loop_
 _symmetry_equiv_pos_site_id
 _symmetry_equiv_pos_as_xyz
  1  'x, y, z'
loop_
 _atom_site_type_symbol
 _atom_site_label
 _atom_site_symmetry_multiplicity
 _atom_site_fract_x
 _atom_site_fract_y
 _atom_site_fract_z
 _atom_site_occupancy
 _atom_site_hle17_bader_spin_density
 _atom_site_hle17_ddec_charge
 _atom_site_hle17_ddec_spin_density
 _atom_site_hle17_ddec_sum_bond_order
 _atom_site_hle17_magmom
 _atom_site_hse06_10hf_bader_spin_density
 _atom_site_hse06_10hf_ddec_charge
 _atom_site_hse06_10hf_ddec_spin_density
 _atom_site_hse06_10hf_ddec_sum_bond_order
 _atom_site_hse06_10hf_magmom
 _atom_site_hse06_bader_spin_density
 _atom_site_hse06_ddec_charge
 _atom_site_hse06_ddec_spin_density
 _atom_site_hse06_ddec_sum_bond_order
 _atom_site_hse06_magmom
 _atom_site_pbe_bader_spin_density
 _atom_site_pbe_cm5_charge
 _atom_site_pbe_ddec_charge
 _atom_site_pbe_ddec_spin_density
 _atom_site_pbe_ddec_sum_bond_order
 _atom_site_pbe_magmom
Sm  Sm0  1  0.25953315  0.64698369  0.10559463  1  0  2.184513  0  1.696345  0  0  1.998728  0  2.200216  0  0  2.047373  0  2.157047  0  0  1.461018  1.962231  0  2.232625  0
Sm  Sm1  1  0.24046335  0.35301534  0.60559542  1  0  2.184416  0  1.69643  0  0  1.998607  0  2.200363  0  0  2.047239  0  2.157225  0  0  1.461014  1.962136  0  2.232768  0
Sm  Sm2  1  0.74046687  0.35301759  0.89440622  1  0  2.184414  0  1.696459  0  0  1.998608  0  2.200385  0  0  2.047235  0  2.157253  0  0  1.461014  1.96213  0  2.232788  0
Sm  Sm3  1  0.75953123  0.64698196  0.39440489  1  0  2.184511  0  1.696364  0  0  1.998726  0  2.200239  0  0  2.04738  0  2.157057  0  0  1.461022  1.962232  0  2.232629  0
Ag  Ag4  1  0.60486520  0.15322336  0.07622548  1  0  0.610021  0  1.284762  0  0  0.474434  0  1.7111  0  0  0.504495  0  1.662196  0  0  0.483842  0.455051  0  1.744397  0
Ag  Ag5  1  0.89513144  0.84677031  0.57622326  1  0  0.610047  0  1.284692  0  0  0.474425  0  1.711045  0  0  0.504489  0  1.66214  0  0  0.483839  0.455041  0  1.744333  0
Ag  Ag6  1  0.39513545  0.84677296  0.92377376  1  0  0.61004  0  1.284744  0  0  0.474385  0  1.711143  0  0  0.504449  0  1.662238  0  0  0.483811  0.454996  0  1.744436  0
Ag  Ag7  1  0.10486401  0.15322401  0.42377438  1  0  0.609974  0  1.284801  0  0  0.474395  0  1.711142  0  0  0.504457  0  1.662239  0  0  0.483819  0.455018  0  1.744443  0
H  H8  1  0.01686417  0.14916021  0.08416937  1  0  0.114606  0  0.911436  0  0  0.121696  0  0.973885  0  0  0.124974  0  0.97169  0  0  0.128778  0.11937  0  0.975368  0
H  H9  1  0.48313734  0.85083903  0.58416712  1  0  0.114562  0  0.911432  0  0  0.121683  0  0.97385  0  0  0.124962  0  0.971654  0  0  0.128751  0.119357  0  0.975329  0
H  H10  1  0.98314044  0.85083810  0.91583201  1  0  0.114532  0  0.911501  0  0  0.121677  0  0.973893  0  0  0.124956  0  0.971697  0  0  0.128765  0.119347  0  0.975382  0
H  H11  1  0.51686355  0.14915927  0.41583213  1  0  0.114578  0  0.911474  0  0  0.121669  0  0.973921  0  0  0.124947  0  0.971726  0  0  0.128759  0.119345  0  0.97541  0
H  H12  1  0.61742958  0.85555449  0.08047874  1  0  0.114527  0  0.980166  0  0  0.116216  0  1.051371  0  0  0.120822  0  1.045988  0  0  0.126236  0.112764  0  1.055497  0
H  H13  1  0.88256666  0.14444609  0.58048060  1  0  0.114478  0  0.980245  0  0  0.116181  0  1.051439  0  0  0.120787  0  1.046055  0  0  0.126239  0.112734  0  1.055566  0
H  H14  1  0.38256920  0.14444678  0.91951729  1  0  0.114608  0  0.98019  0  0  0.116261  0  1.051408  0  0  0.120866  0  1.046027  0  0  0.126277  0.112812  0  1.055525  0
H  H15  1  0.11742964  0.85555519  0.41952079  1  0  0.114527  0  0.980179  0  0  0.116218  0  1.05138  0  0  0.120825  0  1.045995  0  0  0.12624  0.112763  0  1.055502  0
H  H16  1  0.81696548  0.67951823  0.09058764  1  0  0.097264  0  0.937361  0  0  0.104905  0  0.998041  0  0  0.106767  0  0.998017  0  0  0.128304  0.103395  0  0.998358  0
H  H17  1  0.68303209  0.32048325  0.59058961  1  0  0.097315  0  0.937344  0  0  0.104942  0  0.998032  0  0  0.106834  0  0.997973  0  0  0.128316  0.103441  0  0.998339  0
H  H18  1  0.18303206  0.32048305  0.90940999  1  0  0.097283  0  0.937372  0  0  0.104912  0  0.99805  0  0  0.106782  0  0.998019  0  0  0.128303  0.103404  0  0.998359  0
H  H19  1  0.31696532  0.67951703  0.40941231  1  0  0.097246  0  0.937318  0  0  0.104889  0  0.998005  0  0  0.106751  0  0.997981  0  0  0.128289  0.103379  0  0.998311  0
H  H20  1  0.11952078  0.45118083  0.38062361  1  0  0.089796  0  0.963306  0  0  0.096265  0  1.031168  0  0  0.098675  0  1.028775  0  0  0.125446  0.094265  0  1.033387  0
H  H21  1  0.38049031  0.54881955  0.88062060  1  0  0.08978  0  0.963278  0  0  0.096293  0  1.031113  0  0  0.098703  0  1.02872  0  0  0.125439  0.094293  0  1.033335  0
H  H22  1  0.88049634  0.54881849  0.61938099  1  0  0.089805  0  0.963264  0  0  0.096317  0  1.031114  0  0  0.098726  0  1.028721  0  0  0.125464  0.094317  0  1.033345  0
H  H23  1  0.61951886  0.45118572  0.11937650  1  0  0.089782  0  0.963273  0  0  0.09628  0  1.031128  0  0  0.098689  0  1.028736  0  0  0.12544  0.094279  0  1.033353  0
H  H24  1  0.30023986  0.29800356  0.14977192  1  0  0.113768  0  0.972948  0  0  0.115047  0  1.044981  0  0  0.119571  0  1.040643  0  0  0.123488  0.111459  0  1.048583  0
H  H25  1  0.19975589  0.70200001  0.64977069  1  0  0.113743  0  0.97297  0  0  0.115021  0  1.045027  0  0  0.119544  0  1.040688  0  0  0.12348  0.111434  0  1.048625  0
H  H26  1  0.69975732  0.70199474  0.85022946  1  0  0.113778  0  0.973004  0  0  0.115052  0  1.045052  0  0  0.119576  0  1.040713  0  0  0.123517  0.111467  0  1.048651  0
H  H27  1  0.80024078  0.29800425  0.35022694  1  0  0.113768  0  0.972917  0  0  0.115067  0  1.044946  0  0  0.11959  0  1.040608  0  0  0.123503  0.111478  0  1.048551  0
H  H28  1  0.26398932  0.14260576  0.25588575  1  0  0.094816  0  0.913348  0  0  0.103645  0  0.969933  0  0  0.106781  0  0.968154  0  0  0.125216  0.10138  0  0.97132  0
H  H29  1  0.23600948  0.85739382  0.75588462  1  0  0.094802  0  0.913375  0  0  0.103625  0  0.969956  0  0  0.106763  0  0.968176  0  0  0.125201  0.101358  0  0.971342  0
H  H30  1  0.73601133  0.85739056  0.74411617  1  0  0.094804  0  0.913387  0  0  0.103649  0  0.969933  0  0  0.106789  0  0.968152  0  0  0.125208  0.101386  0  0.971315  0
H  H31  1  0.76399066  0.14260846  0.24411409  1  0  0.094794  0  0.913344  0  0  0.103611  0  0.96993  0  0  0.106749  0  0.96815  0  0  0.125204  0.101343  0  0.971316  0
C  C32  1  0.10495194  0.63503387  0.27217182  1  0  0.685623  0  3.89851  0  0  0.636191  0  4.196232  0  0  0.671091  0  4.18562  0  0  0.232264  0.612634  0  4.20246  0
C  C33  1  0.39505585  0.36496854  0.77216985  1  0  0.685545  0  3.898449  0  0  0.636019  0  4.196332  0  0  0.670919  0  4.185724  0  0  0.232235  0.612475  0  4.202525  0
C  C34  1  0.89505638  0.36496445  0.72783117  1  0  0.685662  0  3.898294  0  0  0.63613  0  4.196176  0  0  0.67103  0  4.185569  0  0  0.23233  0.612594  0  4.202361  0
C  C35  1  0.60495109  0.63503871  0.22782778  1  0  0.685568  0  3.89823  0  0  0.635999  0  4.196231  0  0  0.670902  0  4.185621  0  0  0.232234  0.612441  0  4.202464  0
C  C36  1  0.97140813  0.04403801  0.08618908  1  0  0.076818  0  3.640667  0  0  0.037518  0  3.894281  0  0  0.041869  0  3.91282  0  0  0.060107  0.034766  0  3.881748  0
C  C37  1  0.52859342  0.95596550  0.58618613  1  0  0.076646  0  3.640888  0  0  0.037342  0  3.89456  0  0  0.041694  0  3.913099  0  0  0.060036  0.034597  0  3.882011  0
C  C38  1  0.02859597  0.95596626  0.91381231  1  0  0.076783  0  3.640838  0  0  0.03745  0  3.894468  0  0  0.041799  0  3.913008  0  0  0.060068  0.034703  0  3.88193  0
C  C39  1  0.47140808  0.04403777  0.41381204  1  0  0.076823  0  3.640657  0  0  0.037536  0  3.894243  0  0  0.041887  0  3.912783  0  0  0.060122  0.034782  0  3.881723  0
C  C40  1  0.16595309  0.49855325  0.26948156  1  0  0.052508  0  3.716412  0  0  0.06073  0  3.957505  0  0  0.057555  0  3.975743  0  0  0.126656  0.062469  0  3.945645  0
C  C41  1  0.33405235  0.50145018  0.76947924  1  0  0.052338  0  3.716342  0  0  0.060622  0  3.957433  0  0  0.057445  0  3.97567  0  0  0.126589  0.06235  0  3.945579  0
C  C42  1  0.83405684  0.50144805  0.73052197  1  0  0.052338  0  3.716536  0  0  0.060619  0  3.95762  0  0  0.057444  0  3.975858  0  0  0.126639  0.062352  0  3.945759  0
C  C43  1  0.66595323  0.49855607  0.23051840  1  0  0.052633  0  3.716227  0  0  0.060836  0  3.95745  0  0  0.057654  0  3.97569  0  0  0.126712  0.06257  0  3.945596  0
C  C44  1  0.08137268  0.94620113  0.09121954  1  0  0.05386  0  3.742047  0  0  0.065236  0  3.980998  0  0  0.060263  0  4.00176  0  0  0.120602  0.068086  0  3.96731  0
C  C45  1  0.41862422  0.05380101  0.59121682  1  0  0.05413  0  3.741932  0  0  0.065407  0  3.980984  0  0  0.060435  0  4.001744  0  0  0.120639  0.068262  0  3.967282  0
C  C46  1  0.91862486  0.05380014  0.90878238  1  0  0.053928  0  3.741954  0  0  0.065219  0  3.981017  0  0  0.060249  0  4.001776  0  0  0.120582  0.068066  0  3.967331  0
C  C47  1  0.58137208  0.94620026  0.40878028  1  0  0.053823  0  3.742098  0  0  0.065224  0  3.981009  0  0  0.060252  0  4.001772  0  0  0.120569  0.068067  0  3.96733  0
C  C48  1  0.26777742  0.97861395  0.09181199  1  0  0.629074  0  3.959022  0  0  0.576281  0  4.255912  0  0  0.61105  0  4.248257  0  0  0.213037  0.552882  0  4.260206  0
C  C49  1  0.23221900  0.02138421  0.59181102  1  0  0.628888  0  3.95926  0  0  0.576132  0  4.256138  0  0  0.6109  0  4.248481  0  0  0.212961  0.552744  0  4.260399  0
C  C50  1  0.73222236  0.02138534  0.90818940  1  0  0.628948  0  3.959117  0  0  0.57618  0  4.256  0  0  0.61095  0  4.248343  0  0  0.212962  0.552784  0  4.26028  0
C  C51  1  0.76777694  0.97861408  0.40818716  1  0  0.629023  0  3.959082  0  0  0.576225  0  4.255977  0  0  0.610993  0  4.248323  0  0  0.213027  0.552831  0  4.260263  0
C  C52  1  0.75112692  0.88141257  0.08364217  1  0  0.107162  0  3.60056  0  0  0.076618  0  3.84988  0  0  0.0822  0  3.863637  0  0  0.067129  0.072641  0  3.84121  0
C  C53  1  0.74887315  0.11858898  0.58364200  1  0  0.107184  0  3.600523  0  0  0.076635  0  3.849853  0  0  0.082213  0  3.863619  0  0  0.067141  0.072655  0  3.841186  0
C  C54  1  0.24887694  0.11858971  0.91635654  1  0  0.107037  0  3.600668  0  0  0.076549  0  3.849933  0  0  0.082132  0  3.863693  0  0  0.067072  0.072575  0  3.841252  0
C  C55  1  0.25112687  0.88141230  0.41635778  1  0  0.107155  0  3.600574  0  0  0.07663  0  3.849891  0  0  0.082212  0  3.863647  0  0  0.067136  0.072647  0  3.84122  0
C  C56  1  0.86173017  0.78446981  0.08911584  1  0  0.125015  0  3.626978  0  0  0.100716  0  3.876985  0  0  0.102353  0  3.893358  0  0  0.074632  0.099343  0  3.866236  0
C  C57  1  0.63826989  0.21553169  0.58911490  1  0  0.12492  0  3.626794  0  0  0.100633  0  3.876814  0  0  0.102249  0  3.893181  0  0  0.074583  0.099272  0  3.866056  0
C  C58  1  0.13827121  0.21553246  0.91088447  1  0  0.124919  0  3.626798  0  0  0.100622  0  3.876806  0  0  0.102249  0  3.893178  0  0  0.07458  0.099262  0  3.866038  0
C  C59  1  0.36173025  0.78447059  0.41088435  1  0  0.125031  0  3.626955  0  0  0.10072  0  3.87697  0  0  0.102357  0  3.893343  0  0  0.074644  0.099354  0  3.866206  0
C  C60  1  0.15707557  0.41508866  0.32899108  1  0  0.103642  0  3.653675  0  0  0.066044  0  3.910289  0  0  0.070834  0  3.926131  0  0  0.066457  0.062702  0  3.900344  0
C  C61  1  0.34293171  0.58491023  0.82898960  1  0  0.103735  0  3.653401  0  0  0.06604  0  3.910066  0  0  0.070833  0  3.925905  0  0  0.066458  0.062708  0  3.900113  0
C  C62  1  0.84293771  0.58490967  0.67101138  1  0  0.10372  0  3.653518  0  0  0.066064  0  3.910148  0  0  0.070854  0  3.92599  0  0  0.066489  0.062726  0  3.900202  0
C  C63  1  0.65707487  0.41509404  0.17100911  1  0  0.103621  0  3.653659  0  0  0.065974  0  3.910349  0  0  0.070768  0  3.926191  0  0  0.066452  0.062637  0  3.900404  0
C  C64  1  0.25902401  0.33182099  0.20163642  1  0  0.08967  0  3.656249  0  0  0.063256  0  3.913933  0  0  0.064628  0  3.930553  0  0  0.059722  0.062069  0  3.90344  0
C  C65  1  0.24097383  0.66818009  0.70163581  1  0  0.08966  0  3.6563  0  0  0.063203  0  3.914023  0  0  0.064578  0  3.930641  0  0  0.05969  0.062011  0  3.903532  0
C  C66  1  0.74097676  0.66817632  0.79836550  1  0  0.089625  0  3.656376  0  0  0.063184  0  3.914072  0  0  0.064559  0  3.930688  0  0  0.059659  0.061996  0  3.903579  0
C  C67  1  0.75902531  0.33182416  0.29836397  1  0  0.089725  0  3.656085  0  0  0.063223  0  3.913851  0  0  0.064597  0  3.930466  0  0  0.059654  0.062025  0  3.903376  0
C  C68  1  0.23965328  0.24644747  0.26053414  1  0  0.080195  0  3.664169  0  0  0.051429  0  3.919939  0  0  0.054534  0  3.936779  0  0  0.058563  0.049057  0  3.90915  0
C  C69  1  0.26034564  0.75355305  0.76053275  1  0  0.080221  0  3.664308  0  0  0.051484  0  3.920038  0  0  0.054579  0  3.936895  0  0  0.058594  0.049116  0  3.909235  0
C  C70  1  0.76034985  0.75354885  0.73946832  1  0  0.080157  0  3.66423  0  0  0.051436  0  3.919936  0  0  0.054525  0  3.936802  0  0  0.058628  0.04907  0  3.909126  0
C  C71  1  0.73965350  0.24645120  0.23946596  1  0  0.080213  0  3.663947  0  0  0.051506  0  3.919694  0  0  0.054602  0  3.936547  0  0  0.058623  0.049138  0  3.908899  0
C  C72  1  0.45591818  0.43191591  0.01232273  1  0  0.541276  0  3.941498  0  0  0.496907  0  4.241465  0  0  0.527021  0  4.231757  0  0  0.207083  0.476411  0  4.247403  0
C  C73  1  0.04405682  0.56806809  0.51232245  1  0  0.541143  0  3.941147  0  0  0.496683  0  4.241239  0  0  0.526796  0  4.231532  0  0  0.207207  0.476195  0  4.247173  0
C  C74  1  0.54405749  0.56806845  0.98767812  1  0  0.541141  0  3.941159  0  0  0.496677  0  4.241259  0  0  0.526791  0  4.231553  0  0  0.207222  0.476192  0  4.247196  0
C  C75  1  0.95592020  0.43191727  0.48767679  1  0  0.541204  0  3.94147  0  0  0.496827  0  4.241462  0  0  0.526942  0  4.231752  0  0  0.207064  0.476339  0  4.247393  0
C  C76  1  0.95691350  0.46172654  0.03231980  1  0  0.561499  0  3.920561  0  0  0.521948  0  4.213428  0  0  0.552075  0  4.203824  0  0  0.209294  0.501766  0  4.218671  0
C  C77  1  0.54309004  0.53828246  0.53232229  1  0  0.56143  0  3.920182  0  0  0.521714  0  4.213215  0  0  0.551837  0  4.203619  0  0  0.209199  0.501542  0  4.218454  0
C  C78  1  0.04309664  0.53828667  0.96767623  1  0  0.561516  0  3.920153  0  0  0.521768  0  4.213251  0  0  0.551891  0  4.203652  0  0  0.209216  0.501604  0  4.218486  0
C  C79  1  0.45690911  0.46172179  0.46768017  1  0  0.56119  0  3.920427  0  0  0.521636  0  4.213291  0  0  0.55176  0  4.203691  0  0  0.209149  0.501458  0  4.218531  0
N  N80  1  0.22348545  0.45823350  0.20647818  1  0  -0.331512  0  3.221059  0  0  -0.283296  0  3.474378  0  0  -0.291358  0  3.492388  0  0  -0.334638  -0.277683  0  3.462527  0
N  N81  1  0.27651633  0.54176954  0.70647576  1  0  -0.331374  0  3.221011  0  0  -0.283141  0  3.474293  0  0  -0.291201  0  3.492302  0  0  -0.334574  -0.277524  0  3.462436  0
N  N82  1  0.77652052  0.54176581  0.79352482  1  0  -0.33142  0  3.221208  0  0  -0.283207  0  3.474504  0  0  -0.291267  0  3.492513  0  0  -0.334689  -0.27759  0  3.462648  0
N  N83  1  0.72348529  0.45823473  0.29352134  1  0  -0.331629  0  3.221095  0  0  -0.283361  0  3.474455  0  0  -0.29142  0  3.492463  0  0  -0.334674  -0.277748  0  3.462605  0
N  N84  1  0.02598582  0.81628615  0.09218726  1  0  -0.334318  0  3.233865  0  0  -0.287291  0  3.487896  0  0  -0.295048  0  3.506007  0  0  -0.332253  -0.281666  0  3.475654  0
N  N85  1  0.47400948  0.18371300  0.59218470  1  0  -0.334282  0  3.233568  0  0  -0.287203  0  3.487592  0  0  -0.294961  0  3.505717  0  0  -0.332163  -0.281583  0  3.475351  0
N  N86  1  0.97401136  0.18371215  0.90781520  1  0  -0.334208  0  3.233603  0  0  -0.287146  0  3.487635  0  0  -0.294902  0  3.505752  0  0  -0.33219  -0.281529  0  3.475396  0
N  N87  1  0.52598522  0.81628529  0.40781240  1  0  -0.334261  0  3.233845  0  0  -0.287239  0  3.487869  0  0  -0.294998  0  3.505982  0  0  -0.332226  -0.281616  0  3.475626  0
N  N88  1  0.80613704  0.01107096  0.08164830  1  0  -0.269633  0  3.271358  0  0  -0.198359  0  3.56267  0  0  -0.213687  0  3.577003  0  0  -0.315203  -0.188276  0  3.553028  0
N  N89  1  0.69386167  0.98892961  0.58164682  1  0  -0.269538  0  3.271398  0  0  -0.198281  0  3.562713  0  0  -0.213608  0  3.577047  0  0  -0.315163  -0.188193  0  3.553066  0
N  N90  1  0.19386669  0.98893032  0.91835094  1  0  -0.269536  0  3.27153  0  0  -0.19824  0  3.562794  0  0  -0.21357  0  3.57713  0  0  -0.315118  -0.188158  0  3.553145  0
N  N91  1  0.30613686  0.01106968  0.41835189  1  0  -0.269612  0  3.271311  0  0  -0.198379  0  3.562649  0  0  -0.213707  0  3.576983  0  0  -0.315202  -0.188295  0  3.553011  0
N  N92  1  0.19203805  0.28884793  0.32473113  1  0  -0.254088  0  3.230626  0  0  -0.193694  0  3.522637  0  0  -0.205058  0  3.533553  0  0  -0.308768  -0.186281  0  3.515721  0
N  N93  1  0.30796588  0.71115396  0.82472931  1  0  -0.254099  0  3.230525  0  0  -0.193662  0  3.522529  0  0  -0.205024  0  3.53344  0  0  -0.308722  -0.186242  0  3.515597  0
N  N94  1  0.80797151  0.71115038  0.67527133  1  0  -0.254032  0  3.230453  0  0  -0.193678  0  3.522501  0  0  -0.205038  0  3.533413  0  0  -0.308793  -0.186259  0  3.51557  0
N  N95  1  0.69203586  0.28885129  0.17526833  1  0  -0.254097  0  3.230531  0  0  -0.193689  0  3.52253  0  0  -0.205052  0  3.533443  0  0  -0.308778  -0.186273  0  3.515606  0
O  O96  1  0.14583214  0.71188836  0.22029163  1  0  -0.677207  0  1.981043  0  0  -0.630431  0  2.218499  0  0  -0.653739  0  2.207662  0  0  -0.372499  -0.61395  0  2.225192  0
O  O97  1  0.35417332  0.28811455  0.72028989  1  0  -0.677157  0  1.981057  0  0  -0.630341  0  2.218552  0  0  -0.653657  0  2.207728  0  0  -0.372456  -0.613847  0  2.225217  0
O  O98  1  0.85417136  0.28811094  0.77971243  1  0  -0.677235  0  1.981017  0  0  -0.630426  0  2.21853  0  0  -0.653737  0  2.2077  0  0  -0.372532  -0.613928  0  2.225194  0
O  O99  1  0.64583485  0.71189271  0.27970775  1  0  -0.677178  0  1.98095  0  0  -0.630347  0  2.21847  0  0  -0.653659  0  2.207635  0  0  -0.372482  -0.613856  0  2.225155  0
O  O100  1  0.35403116  0.87967052  0.09078405  1  0  -0.712506  0  2.074256  0  0  -0.658209  0  2.343335  0  0  -0.682318  0  2.327205  0  0  -0.383126  -0.64112  0  2.353756  0
O  O101  1  0.14596502  0.12032567  0.59078551  1  0  -0.71248  0  2.074496  0  0  -0.658189  0  2.343563  0  0  -0.682296  0  2.327433  0  0  -0.383087  -0.641099  0  2.353974  0
O  O102  1  0.64597085  0.12032679  0.90921305  1  0  -0.71246  0  2.074388  0  0  -0.658149  0  2.343443  0  0  -0.682257  0  2.327315  0  0  -0.383064  -0.641054  0  2.35385  0
O  O103  1  0.85403180  0.87966964  0.40921267  1  0  -0.712489  0  2.074279  0  0  -0.658198  0  2.343372  0  0  -0.682308  0  2.327241  0  0  -0.383105  -0.64111  0  2.353785  0
O  O104  1  0.01564253  0.65988779  0.32542816  1  0  -0.72086  0  2.038402  0  0  -0.670232  0  2.302255  0  0  -0.69675  0  2.292428  0  0  -0.381927  -0.651198  0  2.308206  0
O  O105  1  0.48436536  0.34011610  0.82542517  1  0  -0.720816  0  2.038445  0  0  -0.670148  0  2.302334  0  0  -0.696644  0  2.292471  0  0  -0.381937  -0.651107  0  2.308278  0
O  O106  1  0.98436444  0.34010953  0.67457644  1  0  -0.7208  0  2.038346  0  0  -0.670122  0  2.302233  0  0  -0.696623  0  2.29238  0  0  -0.381924  -0.651086  0  2.308174  0
O  O107  1  0.51563798  0.65989214  0.17457354  1  0  -0.720879  0  2.038336  0  0  -0.670163  0  2.302204  0  0  -0.696671  0  2.292353  0  0  -0.381944  -0.651134  0  2.308174  0
O  O108  1  0.32252532  0.09971678  0.09133586  1  0  -0.587767  0  2.054281  0  0  -0.525535  0  2.322252  0  0  -0.554143  0  2.310564  0  0  -0.308523  -0.505445  0  2.32954  0
O  O109  1  0.17747605  0.90028140  0.59133516  1  0  -0.587764  0  2.054389  0  0  -0.525511  0  2.322309  0  0  -0.554117  0  2.310619  0  0  -0.308514  -0.505421  0  2.329578  0
O  O110  1  0.67747817  0.90028252  0.90866821  1  0  -0.587755  0  2.054372  0  0  -0.525524  0  2.322349  0  0  -0.554131  0  2.310657  0  0  -0.30851  -0.505433  0  2.329631  0
O  O111  1  0.82252484  0.09971690  0.40866516  1  0  -0.587723  0  2.054259  0  0  -0.525494  0  2.322227  0  0  -0.554101  0  2.310539  0  0  -0.308522  -0.505407  0  2.329515  0
O  O112  1  0.99776342  0.50387545  0.09441511  1  0  -0.659335  0  2.053758  0  0  -0.615601  0  2.299979  0  0  -0.639234  0  2.293791  0  0  -0.375425  -0.598788  0  2.303541  0
O  O113  1  0.50223771  0.49613493  0.59441772  1  0  -0.659383  0  2.053722  0  0  -0.615625  0  2.30004  0  0  -0.639259  0  2.293861  0  0  -0.375438  -0.598823  0  2.303602  0
O  O114  1  0.00224064  0.49613874  0.90558199  1  0  -0.659374  0  2.053624  0  0  -0.615594  0  2.29995  0  0  -0.639225  0  2.293767  0  0  -0.37542  -0.598803  0  2.303522  0
O  O115  1  0.49776020  0.50386933  0.40558527  1  0  -0.659207  0  2.053724  0  0  -0.615504  0  2.299985  0  0  -0.639137  0  2.293799  0  0  -0.375409  -0.59869  0  2.303544  0
O  O116  1  0.33862334  0.43516680  0.05699940  1  0  -0.653049  0  2.090558  0  0  -0.606169  0  2.345845  0  0  -0.629687  0  2.337935  0  0  -0.362439  -0.589592  0  2.350778  0
O  O117  1  0.16134706  0.56482074  0.55700123  1  0  -0.652887  0  2.090428  0  0  -0.605968  0  2.345717  0  0  -0.629483  0  2.33781  0  0  -0.36238  -0.589402  0  2.350647  0
O  O118  1  0.66134921  0.56482252  0.94299878  1  0  -0.652883  0  2.090474  0  0  -0.605951  0  2.34574  0  0  -0.629466  0  2.337833  0  0  -0.362377  -0.589382  0  2.350673  0
O  O119  1  0.83862784  0.43516759  0.44299801  1  0  -0.653036  0  2.090627  0  0  -0.606115  0  2.345843  0  0  -0.629633  0  2.337929  0  0  -0.36243  -0.589538  0  2.350776  0
O  O120  1  0.51039148  0.32904243  0.98603162  1  0  -0.646732  0  2.131824  0  0  -0.583865  0  2.39724  0  0  -0.608199  0  2.386181  0  0  -0.351455  -0.566966  0  2.404283  0
O  O121  1  0.98959053  0.67094827  0.48602802  1  0  -0.64693  0  2.131783  0  0  -0.583949  0  2.397153  0  0  -0.608285  0  2.386096  0  0  -0.351561  -0.567003  0  2.404095  0
O  O122  1  0.48959222  0.67094690  0.01397298  1  0  -0.646934  0  2.1318  0  0  -0.583952  0  2.397175  0  0  -0.608287  0  2.386119  0  0  -0.351566  -0.567014  0  2.404136  0
O  O123  1  0.01039205  0.32904206  0.51396908  1  0  -0.646675  0  2.131761  0  0  -0.583819  0  2.397196  0  0  -0.608153  0  2.386137  0  0  -0.351431  -0.566935  0  2.404269  0
O  O124  1  0.85165978  0.36447503  0.01732541  1  0  -0.678553  0  2.106113  0  0  -0.631005  0  2.368557  0  0  -0.65559  0  2.360095  0  0  -0.371671  -0.61373  0  2.373385  0
O  O125  1  0.64834627  0.63553412  0.51732706  1  0  -0.678399  0  2.105772  0  0  -0.630802  0  2.368276  0  0  -0.65539  0  2.35982  0  0  -0.371552  -0.613522  0  2.373096  0
O  O126  1  0.14835148  0.63553719  0.98267169  1  0  -0.67845  0  2.105741  0  0  -0.630883  0  2.368352  0  0  -0.655472  0  2.359896  0  0  -0.371562  -0.613586  0  2.373129  0
O  O127  1  0.35165547  0.36447114  0.48267486  1  0  -0.678316  0  2.105887  0  0  -0.630765  0  2.368323  0  0  -0.655349  0  2.359867  0  0  -0.37153  -0.613485  0  2.373147  0
