# generated using pymatgen
data_Zn4H46C59(NO5)4
_symmetry_space_group_name_H-M   'P 1'
_cell_length_a   9.77850105
_cell_length_b   11.05369857
_cell_length_c   22.20684326
_cell_angle_alpha   90.05065051
_cell_angle_beta   89.26349711
_cell_angle_gamma   89.99948826
_symmetry_Int_Tables_number   1
_chemical_formula_structural   Zn4H46C59(NO5)4
_chemical_formula_sum   'Zn4 H46 C59 N4 O20'
_cell_volume   2400.10742229
_cell_formula_units_Z   1
loop_
 _symmetry_equiv_pos_site_id
 _symmetry_equiv_pos_as_xyz
  1  'x, y, z'
loop_
 _atom_site_type_symbol
 _atom_site_label
 _atom_site_symmetry_multiplicity
 _atom_site_fract_x
 _atom_site_fract_y
 _atom_site_fract_z
 _atom_site_occupancy
 _atom_site_pbe_bader_charge
 _atom_site_pbe_bader_spin_density
 _atom_site_pbe_cm5_charge
 _atom_site_pbe_ddec_charge
 _atom_site_pbe_ddec_spin_density
 _atom_site_pbe_ddec_sum_bond_order
 _atom_site_pbe_magmom
Zn  Zn0  1  0.65607068  0.49926851  0.49337737  1  1.28238  0  0.668359  0.816773  0  2.38638  0
Zn  Zn1  1  0.37130489  0.50017191  0.50147848  1  1.295711  0  0.670966  0.817108  0  2.435623  0
Zn  Zn2  1  0.34162613  0.51852378  0.99636949  1  1.288322  0  0.670689  0.832404  0  2.372254  0
Zn  Zn3  1  0.62696526  0.51027013  0.99855953  1  1.273461  0  0.669686  0.804725  0  2.457291  0
H  H4  1  0.16140121  0.37307442  0.43633260  1  0.140179  0  0.13106  0.116536  0  0.996548  0
H  H5  1  0.10880966  0.62230321  0.63484312  1  0.131421  0  0.116614  0.148403  0  0.982473  0
H  H6  1  0.11918673  0.74203465  0.58113314  1  0.076941  0  0.110896  0.130165  0  0.978509  0
H  H7  1  0.86083978  0.73532868  0.57061169  1  0.084135  0  0.10893  0.130709  0  0.988948  0
H  H8  1  0.85295964  0.61409563  0.62363195  1  0.125141  0  0.116833  0.146507  0  0.959931  0
H  H9  1  0.71712363  0.88502503  0.53076255  1  0.077278  0  0.096268  0.098698  0  1.034052  0
H  H10  1  0.22376602  0.88919147  0.42943966  1  0.054882  0  0.094754  0.103861  0  0.984897  0
H  H11  1  0.17468004  0.88813599  0.50699193  1  0.043532  0  0.089973  0.092848  0  1.009793  0
H  H12  1  0.17805315  0.11552998  0.50896393  1  0.043991  0  0.092172  0.101363  0  0.990562  0
H  H13  1  0.22743547  0.11699853  0.43115885  1  0.023293  0  0.090823  0.096224  0  0.991141  0
H  H14  1  0.67913824  0.31808299  0.86250255  1  0.112833  0  0.098815  0.122884  0  1.045564  0
H  H15  1  0.72707118  0.33277011  0.64053950  1  0.047152  0  0.094642  0.116168  0  1.077621  0
H  H16  1  0.27509720  0.52463527  0.19244942  1  0.070443  0  0.096809  0.100644  0  1.030961  0
H  H17  1  0.81525236  0.45088626  0.18832578  1  0.017748  0  0.088425  0.09251  0  1.001938  0
H  H18  1  0.81165250  0.61187064  0.19271201  1  0.072403  0  0.094501  0.103679  0  0.984959  0
H  H19  1  0.80894903  0.59788050  0.30663675  1  0.038225  0  0.095314  0.107701  0  0.980768  0
H  H20  1  0.81050120  0.43712274  0.30071168  1  0.033128  0  0.090374  0.0968  0  1.016048  0
H  H21  1  0.84976712  0.39210418  0.06943062  1  0.125883  0  0.130733  0.11486  0  0.990339  0
H  H22  1  0.85683761  0.60811854  0.86243336  1  0.115812  0  0.117172  0.144238  0  0.956116  0
H  H23  1  0.85205610  0.73653110  0.91136459  1  0.087734  0  0.1106  0.129729  0  0.986239  0
H  H24  1  0.11302015  0.73863976  0.91131766  1  0.107685  0  0.112635  0.136114  0  0.968939  0
H  H25  1  0.11142640  0.61083858  0.86200900  1  0.13968  0  0.116383  0.145454  0  0.993939  0
H  H26  1  0.27561564  0.89832978  0.96201662  1  0.062283  0  0.097258  0.101061  0  1.028835  0
H  H27  1  0.78121868  0.89981761  0.05104311  1  0.06075  0  0.095124  0.105058  0  0.983107  0
H  H28  1  0.82135194  0.91226430  0.97273671  1  0.03078  0  0.090222  0.093487  0  1.005456  0
H  H29  1  0.81266038  0.13920648  0.98095158  1  0.035124  0  0.087198  0.089786  0  1.002347  0
H  H30  1  0.76609324  0.12713593  0.05839734  1  0.05863  0  0.09325  0.102267  0  0.985971  0
H  H31  1  0.89686601  0.24838465  0.42660211  1  0.065575  0  0.104972  0.152073  0  0.990266  0
H  H32  1  0.78693235  0.36620295  0.40270733  1  0.133093  0  0.108208  0.171265  0  1.01009  0
H  H33  1  0.95400873  0.34921635  0.36974887  1  0.05446  0  0.101407  0.141416  0  0.996184  0
H  H34  1  0.81776849  0.15859166  0.50235250  1  0.050098  0  0.087432  0.123727  0  1.031526  0
H  H35  1  0.73940573  0.19830162  0.57111227  1  0.033518  0  0.091409  0.127782  0  1.02945  0
H  H36  1  0.82506736  0.05541822  0.56382816  1  0.010402  0  0.088313  0.117827  0  1.007153  0
H  H37  1  0.20974867  0.42334518  0.33257969  1  0.034913  0  0.086507  0.120741  0  1.020547  0
H  H38  1  0.21395574  0.58045926  0.34410795  1  0.048199  0  0.09208  0.134732  0  0.994995  0
H  H39  1  0.14672305  0.52167655  0.27556434  1  0.031232  0  0.085391  0.118212  0  1.008545  0
H  H40  1  0.04925145  0.31889517  0.11209253  1  0.045508  0  0.098527  0.139384  0  0.993264  0
H  H41  1  0.19702190  0.30720030  0.06373670  1  0.102263  0  0.106941  0.164935  0  1.004261  0
H  H42  1  0.18414987  0.42909478  0.11383628  1  0.107033  0  0.104706  0.164829  0  1.01885  0
H  H43  1  0.17939726  0.18506544  0.98951548  1  0.022735  0  0.085689  0.121416  0  1.033125  0
H  H44  1  0.24125286  0.19503974  0.91509397  1  0.040895  0  0.097789  0.145122  0  0.97966  0
H  H45  1  0.15578102  0.06094162  0.93940295  1  0.004081  0  0.085939  0.116514  0  1.009145  0
H  H46  1  0.34034835  0.59039345  0.64101440  1  0.631118  0  0.299169  0.343409  0  0.999938  0
H  H47  1  0.31461249  0.58985805  0.84672876  1  0.628927  0  0.297127  0.334247  0  1.011473  0
H  H48  1  0.82754007  0.16321473  0.85770343  1  0.607937  0  0.329269  0.353783  0  0.893232  0
H  H49  1  0.87706781  0.17830290  0.65158656  1  0.615484  0  0.321478  0.345747  0  0.917702  0
C  C50  1  0.51102595  0.73382343  0.50012255  1  1.601685  0  0.215644  0.600448  0  4.170812  0
C  C51  1  0.53230323  0.49263847  0.61665041  1  1.524212  0  0.216621  0.613683  0  4.112726  0
C  C52  1  0.50788770  0.26450228  0.50239277  1  1.534099  0  0.216819  0.606168  0  4.166275  0
C  C53  1  0.49846239  0.50234060  0.37991745  1  1.572948  0  0.215018  0.602197  0  4.160995  0
C  C54  1  0.48265784  0.74866564  0.98756089  1  1.53826  0  0.216556  0.602391  0  4.168006  0
C  C55  1  0.49912433  0.49370284  0.87768534  1  1.523145  0  0.216333  0.61196  0  4.128279  0
C  C56  1  0.48270725  0.27829978  0.99513771  1  1.569269  0  0.214246  0.598284  0  4.176084  0
C  C57  1  0.49432016  0.52687723  0.11541095  1  1.52056  0  0.215641  0.5973  0  4.177159  0
C  C58  1  0.07579930  0.56365975  0.54052266  1  0.584284  0  0.139953  0.183272  0  3.872248  0
C  C59  1  0.95293260  0.42413204  0.45848903  1  0.453474  0  0.138638  0.280977  0  3.895993  0
C  C60  1  0.93412392  0.56050444  0.53455402  1  0.488574  0  0.143071  0.201538  0  3.876164  0
C  C61  1  0.09550361  0.42799167  0.46531945  1  0.507618  0  0.06051  -0.017575  0  3.836038  0
C  C62  1  0.07093324  0.65466214  0.59141331  1  -0.042769  0  -0.136794  -0.227543  0  3.8033  0
C  C63  1  0.90940752  0.65071286  0.58470064  1  -0.046829  0  -0.136132  -0.223371  0  3.809921  0
C  C64  1  0.50854245  0.86842222  0.50358299  1  -0.049304  0  -0.015473  -0.067276  0  3.998795  0
C  C65  1  0.51050516  0.12964862  0.50619888  1  0.050589  0  -0.011866  -0.126602  0  3.913702  0
C  C66  1  0.39228388  0.93634536  0.49129109  1  0.052852  0  -0.00885  0.054204  0  3.899234  0
C  C67  1  0.62912881  0.06210626  0.52136160  1  -0.045577  0  -0.001583  0.156222  0  3.931581  0
C  C68  1  0.39413293  0.06254189  0.49275512  1  -0.095039  0  -0.007612  0.059338  0  3.90667  0
C  C69  1  0.62502283  0.93542136  0.51947062  1  -0.021195  0  -0.090393  -0.168164  0  3.95456  0
C  C70  1  0.24330049  0.93035556  0.47352982  1  -0.049802  0  -0.152998  -0.192922  0  3.896231  0
C  C71  1  0.24526213  0.07341098  0.47487303  1  0.014292  0  -0.155049  -0.197567  0  3.891538  0
C  C72  1  0.50528429  0.47899972  0.81135292  1  0.008295  0  -0.040667  -0.228164  0  3.975128  0
C  C73  1  0.60604594  0.40435730  0.78155065  1  0.019935  0  -0.018864  0.074387  0  4.027031  0
C  C74  1  0.40990745  0.54270736  0.77746133  1  0.55392  0  0.079819  0.209077  0  4.062052  0
C  C75  1  0.68867732  0.32190096  0.81361122  1  -0.018364  0  -0.127296  -0.295677  0  4.040429  0
C  C76  1  0.77883343  0.24401905  0.78506525  1  0.461269  0  0.061043  0.207851  0  4.114431  0
C  C77  1  0.52483060  0.48130082  0.68309495  1  -0.03608  0  -0.042696  -0.237954  0  3.958224  0
C  C78  1  0.41875246  0.54315980  0.71327337  1  0.582588  0  0.083543  0.217214  0  4.051125  0
C  C79  1  0.61773636  0.40698135  0.71709433  1  0.054317  0  -0.018041  0.079252  0  4.018635  0
C  C80  1  0.71526311  0.32950813  0.68929756  1  0.02506  0  -0.131617  -0.305368  0  4.040548  0
C  C81  1  0.79348422  0.24875452  0.72160146  1  0.429672  0  0.062644  0.214334  0  4.104863  0
C  C82  1  0.49335432  0.52594200  0.18260125  1  -0.001079  0  -0.015881  -0.06566  0  4.002351  0
C  C83  1  0.49036260  0.51191456  0.31284196  1  -0.033587  0  -0.013931  -0.136238  0  3.905394  0
C  C84  1  0.61312828  0.52544141  0.21574284  1  -0.054473  0  -0.0103  0.052032  0  3.905886  0
C  C85  1  0.36595909  0.51456394  0.27987909  1  0.004472  0  -0.000782  0.15965  0  3.922826  0
C  C86  1  0.61075892  0.51898730  0.27848017  1  0.012821  0  -0.007622  0.062222  0  3.906209  0
C  C87  1  0.37126370  0.52185912  0.21675617  1  -0.026234  0  -0.092308  -0.174798  0  3.953476  0
C  C88  1  0.76783368  0.52839452  0.21156381  1  -0.073183  0  -0.155935  -0.196912  0  3.904996  0
C  C89  1  0.76561763  0.52024165  0.28257144  1  0.037363  0  -0.156039  -0.199229  0  3.8918  0
C  C90  1  0.91199261  0.56682736  0.95596695  1  0.524937  0  0.142048  0.187615  0  3.889273  0
C  C91  1  0.05255073  0.44218334  0.03786334  1  0.410481  0  0.13632  0.281476  0  3.899371  0
C  C92  1  0.05452552  0.56732388  0.95662107  1  0.581141  0  0.143492  0.199358  0  3.869793  0
C  C93  1  0.90910595  0.44332380  0.03634870  1  0.526958  0  0.058887  -0.023983  0  3.845598  0
C  C94  1  0.90251303  0.64963958  0.90234923  1  -0.053677  0  -0.134906  -0.221094  0  3.817426  0
C  C95  1  0.06497983  0.65077304  0.90256984  1  -0.082235  0  -0.136747  -0.229449  0  3.797124  0
C  C96  1  0.48718034  0.88325312  0.98397053  1  -0.030625  0  -0.0132  -0.060959  0  3.996232  0
C  C97  1  0.47935236  0.14435903  0.98715604  1  -0.072009  0  -0.016391  -0.142878  0  3.922101  0
C  C98  1  0.60408866  0.95154882  0.99442120  1  -0.025182  0  -0.01108  0.048713  0  3.904427  0
C  C99  1  0.36093524  0.07634864  0.97136904  1  0.069261  0  0.000967  0.16289  0  3.920717  0
C  C100  1  0.59833218  0.07757939  0.99691443  1  0.023715  0  -0.010669  0.057106  0  3.917398  0
C  C101  1  0.36808052  0.94963483  0.97166204  1  -0.025405  0  -0.089688  -0.170769  0  3.949873  0
C  C102  1  0.75500901  0.94685885  0.00921149  1  -0.06303  0  -0.153821  -0.19545  0  3.893819  0
C  C103  1  0.74791213  0.08949852  0.01338579  1  -0.022335  0  -0.15518  -0.193867  0  3.90087  0
C  C104  1  0.89349991  0.34316876  0.41165506  1  -0.10296  0  -0.229867  -0.460936  0  3.928807  0
C  C105  1  0.76009212  0.12163737  0.54088416  1  -0.044774  0  -0.241321  -0.407775  0  3.977571  0
C  C106  1  0.22640884  0.51011087  0.30950234  1  -0.040015  0  -0.243033  -0.407722  0  3.991612  0
C  C107  1  0.12342664  0.36987402  0.08477857  1  -0.078236  0  -0.236645  -0.469258  0  3.936251  0
C  C108  1  0.22713414  0.13235075  0.95302323  1  -0.00261  0  -0.240858  -0.404285  0  3.978228  0
N  N109  1  0.16008451  0.49851793  0.50592316  1  -1.221435  0  -0.290046  -0.176953  0  3.491939  0
N  N110  1  0.86896003  0.49350779  0.49410044  1  -1.183581  0  -0.285928  -0.243155  0  3.388252  0
N  N111  1  0.83625060  0.50659849  0.99567964  1  -1.212182  0  -0.293224  -0.168462  0  3.513767  0
N  N112  1  0.12845006  0.50770121  0.99690422  1  -1.19356  0  -0.283866  -0.245557  0  3.375495  0
O  O113  1  0.62534106  0.68040683  0.50765702  1  -1.175671  0  -0.317997  -0.550452  0  2.325197  0
O  O114  1  0.39712256  0.68222658  0.48945338  1  -1.160713  0  -0.31864  -0.543797  0  2.307151  0
O  O115  1  0.42190699  0.52981851  0.59020727  1  -1.177303  0  -0.320346  -0.565692  0  2.394685  0
O  O116  1  0.64132824  0.46938865  0.58725231  1  -1.173992  0  -0.304468  -0.529508  0  2.332829  0
O  O117  1  0.39448888  0.31690103  0.51424500  1  -1.161387  0  -0.316673  -0.54376  0  2.293545  0
O  O118  1  0.61834478  0.31715995  0.48615043  1  -1.171507  0  -0.311487  -0.545902  0  2.36269  0
O  O119  1  0.61582477  0.52146154  0.40284316  1  -1.165472  0  -0.314285  -0.54737  0  2.315654  0
O  O120  1  0.39039326  0.47536136  0.40975727  1  -1.167259  0  -0.313618  -0.548838  0  2.356612  0
O  O121  1  0.36453740  0.70028811  0.99272801  1  -1.1546  0  -0.321203  -0.547832  0  2.327674  0
O  O122  1  0.59671894  0.69285703  0.98622100  1  -1.167122  0  -0.314034  -0.543673  0  2.306802  0
O  O123  1  0.60691546  0.47906672  0.90800677  1  -1.16633  0  -0.306221  -0.527647  0  2.372599  0
O  O124  1  0.38294124  0.52515971  0.90166243  1  -1.172111  0  -0.316598  -0.563023  0  2.343347  0
O  O125  1  0.59770288  0.32526033  0.00799535  1  -1.164621  0  -0.316277  -0.545325  0  2.318816  0
O  O126  1  0.37102626  0.33708857  0.98935543  1  -1.171022  0  -0.31113  -0.547917  0  2.388443  0
O  O127  1  0.37988617  0.52308226  0.08858172  1  -1.176358  0  -0.314562  -0.554509  0  2.339284  0
O  O128  1  0.61168824  0.52951832  0.08975148  1  -1.156602  0  -0.315091  -0.537939  0  2.319337  0
O  O129  1  0.32163338  0.60769384  0.68528214  1  -1.147223  0  -0.35545  -0.435125  0  2.317437  0
O  O130  1  0.30752904  0.60846644  0.80227246  1  -1.150712  0  -0.358255  -0.431886  0  2.317903  0
O  O131  1  0.85533400  0.16008948  0.81543077  1  -1.127188  0  -0.362669  -0.433287  0  2.246847  0
O  O132  1  0.88484975  0.17015269  0.69510017  1  -1.131938  0  -0.36344  -0.43003  0  2.252611  0
