# generated using pymatgen
data_AgH6C6N5O4
_symmetry_space_group_name_H-M   'P 1'
_cell_length_a   8.08602142
_cell_length_b   9.87011465
_cell_length_c   12.22264596
_cell_angle_alpha   109.83909108
_cell_angle_beta   90.00012343
_cell_angle_gamma   90.00025949
_symmetry_Int_Tables_number   1
_chemical_formula_structural   AgH6C6N5O4
_chemical_formula_sum   'Ag4 H24 C24 N20 O16'
_cell_volume   917.59305688
_cell_formula_units_Z   4
loop_
 _symmetry_equiv_pos_site_id
 _symmetry_equiv_pos_as_xyz
  1  'x, y, z'
loop_
 _atom_site_type_symbol
 _atom_site_label
 _atom_site_symmetry_multiplicity
 _atom_site_fract_x
 _atom_site_fract_y
 _atom_site_fract_z
 _atom_site_occupancy
 _atom_site_hle17_bader_spin_density
 _atom_site_hle17_ddec_charge
 _atom_site_hle17_ddec_spin_density
 _atom_site_hle17_ddec_sum_bond_order
 _atom_site_hle17_magmom
 _atom_site_hse06_10hf_bader_spin_density
 _atom_site_hse06_10hf_ddec_charge
 _atom_site_hse06_10hf_ddec_spin_density
 _atom_site_hse06_10hf_ddec_sum_bond_order
 _atom_site_hse06_10hf_magmom
 _atom_site_hse06_bader_spin_density
 _atom_site_hse06_ddec_charge
 _atom_site_hse06_ddec_spin_density
 _atom_site_hse06_ddec_sum_bond_order
 _atom_site_hse06_magmom
 _atom_site_pbe_bader_spin_density
 _atom_site_pbe_cm5_charge
 _atom_site_pbe_ddec_charge
 _atom_site_pbe_ddec_spin_density
 _atom_site_pbe_ddec_sum_bond_order
 _atom_site_pbe_magmom
Ag  Ag0  1  0.20258748  0.18897031  0.18956969  1  0  0.557525  0  1.421221  0  0  0.411119  0  1.87786  0  0  0.440315  0  1.831719  0  0  0.477536  0.39013  0  1.910506  0
Ag  Ag1  1  0.70258793  0.31102945  0.31042912  1  0  0.557506  0  1.421228  0  0  0.411115  0  1.87786  0  0  0.440315  0  1.83172  0  0  0.477524  0.390123  0  1.910507  0
Ag  Ag2  1  0.79741302  0.81103049  0.81043013  1  0  0.557515  0  1.421236  0  0  0.411108  0  1.87787  0  0  0.440305  0  1.83173  0  0  0.477524  0.390119  0  1.910519  0
Ag  Ag3  1  0.29741381  0.68897028  0.68957041  1  0  0.557523  0  1.421218  0  0  0.411106  0  1.877874  0  0  0.440313  0  1.831732  0  0  0.47753  0.390116  0  1.910521  0
H  H4  1  0.75128209  0.17331603  0.70381882  1  0  0.137164  0  0.960274  0  0  0.153342  0  1.023789  0  0  0.155985  0  1.022683  0  0  0.0975  0.151504  0  1.024448  0
H  H5  1  0.25127905  0.32668284  0.79617946  1  0  0.137136  0  0.960342  0  0  0.153312  0  1.02385  0  0  0.155956  0  1.022743  0  0  0.097499  0.151476  0  1.024507  0
H  H6  1  0.24871965  0.82668263  0.29618206  1  0  0.137156  0  0.960277  0  0  0.153294  0  1.023825  0  0  0.155939  0  1.022718  0  0  0.097487  0.151457  0  1.024483  0
H  H7  1  0.74871898  0.67331795  0.20381871  1  0  0.137154  0  0.960294  0  0  0.153295  0  1.023838  0  0  0.155939  0  1.022732  0  0  0.097488  0.151457  0  1.024496  0
H  H8  1  0.75455009  0.36628181  0.76347161  1  0  0.142879  0  0.922529  0  0  0.162995  0  0.980739  0  0  0.165487  0  0.979519  0  0  0.102597  0.161174  0  0.981638  0
H  H9  1  0.25454578  0.13371814  0.73652615  1  0  0.142946  0  0.922545  0  0  0.163041  0  0.980759  0  0  0.165534  0  0.97954  0  0  0.102619  0.161224  0  0.981655  0
H  H10  1  0.24545165  0.63371792  0.23652874  1  0  0.142946  0  0.922599  0  0  0.163063  0  0.980771  0  0  0.165555  0  0.979553  0  0  0.102633  0.161244  0  0.981669  0
H  H11  1  0.74545348  0.86628264  0.26347202  1  0  0.142936  0  0.922596  0  0  0.16305  0  0.980777  0  0  0.165542  0  0.97956  0  0  0.102632  0.161227  0  0.981679  0
H  H12  1  0.91274386  0.26583111  0.80037215  1  0  0.149059  0  0.942253  0  0  0.164016  0  1.007712  0  0  0.167499  0  1.00507  0  0  0.101452  0.161531  0  1.009557  0
H  H13  1  0.41273999  0.23416855  0.69962658  1  0  0.149095  0  0.942168  0  0  0.164022  0  1.007667  0  0  0.167506  0  1.005025  0  0  0.101465  0.161537  0  1.009512  0
H  H14  1  0.08725911  0.73416754  0.19962791  1  0  0.149101  0  0.942188  0  0  0.164027  0  1.007684  0  0  0.16751  0  1.005042  0  0  0.101459  0.161541  0  1.00953  0
H  H15  1  0.58726051  0.76583225  0.30037241  1  0  0.149098  0  0.942201  0  0  0.16403  0  1.007686  0  0  0.167513  0  1.005044  0  0  0.101463  0.161545  0  1.00953  0
H  H16  1  0.36243372  0.51542476  0.40139964  1  0  0.121376  0  0.915754  0  0  0.13358  0  0.972055  0  0  0.13592  0  0.96857  0  0  0.148753  0.131789  0  0.974878  0
H  H17  1  0.86242949  0.98457851  0.09860038  1  0  0.121355  0  0.915773  0  0  0.133546  0  0.972092  0  0  0.135887  0  0.968606  0  0  0.148745  0.131754  0  0.974917  0
H  H18  1  0.63756555  0.48457604  0.59860018  1  0  0.121362  0  0.915804  0  0  0.133562  0  0.972108  0  0  0.135903  0  0.968622  0  0  0.148741  0.131772  0  0.974931  0
H  H19  1  0.13756854  0.01542445  0.90140001  1  0  0.121349  0  0.915735  0  0  0.133551  0  0.972036  0  0  0.135889  0  0.968551  0  0  0.148747  0.131759  0  0.974861  0
H  H20  1  0.02685253  0.47417813  0.72451986  1  0  0.327139  0  0.916612  0  0  0.299021  0  0.992462  0  0  0.31035  0  0.982142  0  0  0.308626  0.291144  0  0.999527  0
H  H21  1  0.52685252  0.02582181  0.77547921  1  0  0.327182  0  0.916563  0  0  0.299021  0  0.992487  0  0  0.310347  0  0.982169  0  0  0.30862  0.291144  0  0.999547  0
H  H22  1  0.97314674  0.52582051  0.27547938  1  0  0.327129  0  0.916627  0  0  0.29901  0  0.992466  0  0  0.310343  0  0.982144  0  0  0.308615  0.291133  0  0.999532  0
H  H23  1  0.47314675  0.97417898  0.22451979  1  0  0.327116  0  0.916643  0  0  0.298996  0  0.9925  0  0  0.310326  0  0.982179  0  0  0.308608  0.291119  0  0.999567  0
H  H24  1  0.82992340  0.07775220  0.50547069  1  0  0.173171  0  0.950088  0  0  0.182003  0  1.004967  0  0  0.186059  0  1.004482  0  0  0.119328  0.179002  0  1.00602  0
H  H25  1  0.32992028  0.42224383  0.99452777  1  0  0.17323  0  0.950029  0  0  0.182014  0  1.004966  0  0  0.186071  0  1.004479  0  0  0.119303  0.179013  0  1.006019  0
H  H26  1  0.17007834  0.92224645  0.49452937  1  0  0.173224  0  0.950047  0  0  0.182001  0  1.004993  0  0  0.186058  0  1.004506  0  0  0.119326  0.179  0  1.006046  0
H  H27  1  0.67007775  0.57775267  0.00547171  1  0  0.173229  0  0.950011  0  0  0.182048  0  1.004896  0  0  0.186106  0  1.004405  0  0  0.119356  0.179046  0  1.005951  0
C  C28  1  0.27556518  0.45630051  0.43593242  1  0  0.243937  0  3.657294  0  0  0.179963  0  3.944429  0  0  0.197106  0  3.954039  0  0  0.165484  0.168195  0  3.938313  0
C  C29  1  0.77556211  0.04369852  0.06406630  1  0  0.243956  0  3.657276  0  0  0.179997  0  3.944381  0  0  0.197142  0  3.954  0  0  0.165451  0.168224  0  3.938262  0
C  C30  1  0.72443409  0.54369813  0.56406682  1  0  0.243959  0  3.657315  0  0  0.17999  0  3.944447  0  0  0.197133  0  3.954057  0  0  0.165512  0.168221  0  3.938332  0
C  C31  1  0.22443592  0.95629904  0.93593183  1  0  0.243991  0  3.657192  0  0  0.180024  0  3.944313  0  0  0.19717  0  3.953926  0  0  0.165479  0.168252  0  3.938197  0
C  C32  1  0.12070784  0.39835384  0.55479166  1  0  0.512497  0  3.764283  0  0  0.45185  0  4.040257  0  0  0.477376  0  4.049617  0  0  0.355822  0.434954  0  4.033256  0
C  C33  1  0.62070633  0.10164871  0.94520825  1  0  0.512553  0  3.764267  0  0  0.451872  0  4.04028  0  0  0.477413  0  4.049609  0  0  0.355791  0.434938  0  4.033331  0
C  C34  1  0.87929390  0.60164589  0.44520787  1  0  0.512481  0  3.764395  0  0  0.451878  0  4.040297  0  0  0.47741  0  4.049655  0  0  0.355837  0.434955  0  4.033332  0
C  C35  1  0.37929418  0.89835532  0.05479326  1  0  0.512478  0  3.764293  0  0  0.451851  0  4.040237  0  0  0.477372  0  4.049595  0  0  0.355846  0.434922  0  4.033277  0
C  C36  1  0.92786104  0.27117879  0.62656949  1  0  0.403928  0  3.669386  0  0  0.391808  0  3.929387  0  0  0.408633  0  3.94657  0  0  0.138968  0.380771  0  3.917779  0
C  C37  1  0.42785399  0.22882097  0.87343257  1  0  0.403746  0  3.669765  0  0  0.391813  0  3.929475  0  0  0.408633  0  3.946658  0  0  0.138976  0.380776  0  3.917864  0
C  C38  1  0.07214070  0.72881985  0.37342975  1  0  0.40381  0  3.669486  0  0  0.391748  0  3.929369  0  0  0.408578  0  3.946548  0  0  0.138951  0.380712  0  3.91776  0
C  C39  1  0.57214156  0.77117987  0.12657135  1  0  0.403777  0  3.669566  0  0  0.391752  0  3.929393  0  0  0.408579  0  3.946572  0  0  0.138918  0.380716  0  3.917784  0
C  C40  1  0.83078008  0.26850042  0.72918829  1  0  -0.39154  0  3.648524  0  0  -0.466471  0  3.877954  0  0  -0.471604  0  3.882707  0  0  -0.239391  -0.462539  0  3.874329  0
C  C41  1  0.33077519  0.23149993  0.77081133  1  0  -0.391501  0  3.648579  0  0  -0.466436  0  3.877952  0  0  -0.471571  0  3.882708  0  0  -0.239395  -0.462511  0  3.874336  0
C  C42  1  0.16922289  0.73149823  0.27081095  1  0  -0.391602  0  3.648557  0  0  -0.466495  0  3.878006  0  0  -0.471629  0  3.882757  0  0  -0.239428  -0.46256  0  3.87437  0
C  C43  1  0.66922284  0.76850195  0.22918878  1  0  -0.391551  0  3.64863  0  0  -0.466455  0  3.87806  0  0  -0.47159  0  3.882815  0  0  -0.2394  -0.462517  0  3.874426  0
C  C44  1  0.91518315  0.16681979  0.51834665  1  0  -0.372242  0  3.630649  0  0  -0.399002  0  3.895371  0  0  -0.418393  0  3.913416  0  0  -0.110436  -0.386919  0  3.885619  0
C  C45  1  0.41517826  0.33317234  0.98165089  1  0  -0.372286  0  3.630733  0  0  -0.399062  0  3.895403  0  0  -0.418454  0  3.913449  0  0  -0.110421  -0.386977  0  3.885651  0
C  C46  1  0.08481983  0.83317885  0.48165259  1  0  -0.372272  0  3.630661  0  0  -0.398989  0  3.895394  0  0  -0.418379  0  3.913435  0  0  -0.110443  -0.386908  0  3.885643  0
C  C47  1  0.58482100  0.66682523  0.01834888  1  0  -0.372317  0  3.630679  0  0  -0.399032  0  3.895338  0  0  -0.418422  0  3.91338  0  0  -0.110466  -0.386953  0  3.885592  0
C  C48  1  0.00349978  0.17193123  0.41862436  1  0  0.533603  0  3.882379  0  0  0.483649  0  4.181912  0  0  0.515622  0  4.179523  0  0  0.221879  0.462072  0  4.183867  0
C  C49  1  0.50349711  0.32807084  0.08138050  1  0  0.533762  0  3.882584  0  0  0.483809  0  4.182083  0  0  0.515783  0  4.179687  0  0  0.221947  0.462231  0  4.184044  0
C  C50  1  0.99650195  0.82806525  0.58137348  1  0  0.533607  0  3.882334  0  0  0.483612  0  4.181922  0  0  0.515584  0  4.179535  0  0  0.221845  0.462036  0  4.183876  0
C  C51  1  0.49649968  0.67194083  0.91863369  1  0  0.533639  0  3.882093  0  0  0.483578  0  4.181777  0  0  0.51555  0  4.179394  0  0  0.221845  0.462002  0  4.183733  0
N  N52  1  0.20830545  0.33222299  0.37170899  1  0  -0.240301  0  3.143495  0  0  -0.188591  0  3.448796  0  0  -0.203603  0  3.460721  0  0  -0.252162  -0.177989  0  3.440539  0
N  N53  1  0.70830204  0.16777788  0.12829094  1  0  -0.240227  0  3.14349  0  0  -0.188526  0  3.44879  0  0  -0.203559  0  3.460738  0  0  -0.252105  -0.177911  0  3.440519  0
N  N54  1  0.79169506  0.66777673  0.62829054  1  0  -0.240268  0  3.143453  0  0  -0.188567  0  3.448765  0  0  -0.203581  0  3.460693  0  0  -0.252144  -0.177965  0  3.44051  0
N  N55  1  0.29169476  0.83222185  0.87170941  1  0  -0.240309  0  3.143474  0  0  -0.188608  0  3.448788  0  0  -0.203638  0  3.460729  0  0  -0.252132  -0.177994  0  3.440521  0
N  N56  1  0.27552743  0.00227561  0.04907213  1  0  -0.469569  0  3.244734  0  0  -0.39539  0  3.572563  0  0  -0.419637  0  3.577653  0  0  -0.371805  -0.378612  0  3.569198  0
N  N57  1  0.77552689  0.49772451  0.45092688  1  0  -0.469567  0  3.244839  0  0  -0.395405  0  3.57268  0  0  -0.419662  0  3.577775  0  0  -0.371825  -0.378636  0  3.56933  0
N  N58  1  0.72447060  0.99772625  0.95092552  1  0  -0.469625  0  3.244865  0  0  -0.395426  0  3.572693  0  0  -0.419686  0  3.577784  0  0  -0.371822  -0.378653  0  3.569344  0
N  N59  1  0.22447485  0.50227415  0.54907318  1  0  -0.469528  0  3.24477  0  0  -0.395338  0  3.572607  0  0  -0.419598  0  3.577709  0  0  -0.371769  -0.378576  0  3.569243  0
N  N60  1  0.03208217  0.38718124  0.64435499  1  0  -0.424409  0  3.332407  0  0  -0.358721  0  3.563934  0  0  -0.382395  0  3.572405  0  0  -0.361053  -0.342622  0  3.557745  0
N  N61  1  0.53207795  0.11281979  0.85564356  1  0  -0.424417  0  3.3324  0  0  -0.35876  0  3.563922  0  0  -0.382431  0  3.572377  0  0  -0.361076  -0.342649  0  3.55775  0
N  N62  1  0.96791957  0.61281741  0.35564507  1  0  -0.42438  0  3.332528  0  0  -0.358705  0  3.564011  0  0  -0.382396  0  3.572493  0  0  -0.361034  -0.342599  0  3.55783  0
N  N63  1  0.46791884  0.88718314  0.14435520  1  0  -0.424369  0  3.332484  0  0  -0.35872  0  3.563979  0  0  -0.382394  0  3.572447  0  0  -0.361043  -0.342612  0  3.557801  0
N  N64  1  0.10940392  0.29528008  0.44776263  1  0  -0.143336  0  3.511366  0  0  -0.061349  0  3.726698  0  0  -0.079517  0  3.749576  0  0  -0.126491  -0.049446  0  3.711215  0
N  N65  1  0.60940171  0.20472030  0.05223621  1  0  -0.143494  0  3.511457  0  0  -0.061481  0  3.726785  0  0  -0.079649  0  3.749664  0  0  -0.126505  -0.049572  0  3.711312  0
N  N66  1  0.89059905  0.70471858  0.55223743  1  0  -0.143309  0  3.511393  0  0  -0.061322  0  3.726731  0  0  -0.079489  0  3.749609  0  0  -0.126455  -0.049411  0  3.711256  0
N  N67  1  0.39059756  0.79528265  0.94776419  1  0  -0.143255  0  3.511351  0  0  -0.061248  0  3.726699  0  0  -0.079409  0  3.749584  0  0  -0.126472  -0.049341  0  3.711224  0
N  N68  1  0.96173613  0.36036728  0.06487782  1  0  0.696983  0  4.150792  0  0  0.721687  0  4.45548  0  0  0.750471  0  4.461039  0  0  0.09621  0.704218  0  4.450706  0
N  N69  1  0.46173744  0.13963376  0.43512334  1  0  0.697161  0  4.150625  0  0  0.721603  0  4.455616  0  0  0.750385  0  4.46117  0  0  0.096201  0.704144  0  4.450838  0
N  N70  1  0.03826314  0.63963461  0.93512311  1  0  0.697125  0  4.15057  0  0  0.721666  0  4.45545  0  0  0.750449  0  4.461008  0  0  0.096231  0.704206  0  4.450675  0
N  N71  1  0.53826430  0.86036596  0.56487536  1  0  0.697138  0  4.1507  0  0  0.721571  0  4.455698  0  0  0.750353  0  4.461257  0  0  0.096188  0.704114  0  4.45092  0
O  O72  1  0.99563131  0.08845125  0.31682287  1  0  -0.5274  0  1.943465  0  0  -0.481211  0  2.185016  0  0  -0.502186  0  2.173514  0  0  -0.288916  -0.46651  0  2.192964  0
O  O73  1  0.49563084  0.41154776  0.18317370  1  0  -0.527377  0  1.943915  0  0  -0.48124  0  2.185542  0  0  -0.502211  0  2.174034  0  0  -0.28892  -0.466542  0  2.193492  0
O  O74  1  0.00437043  0.91154954  0.68317613  1  0  -0.527393  0  1.943419  0  0  -0.481193  0  2.184997  0  0  -0.50217  0  2.173498  0  0  -0.288897  -0.466492  0  2.192941  0
O  O75  1  0.50436719  0.58844980  0.81682443  1  0  -0.527409  0  1.943146  0  0  -0.481183  0  2.184736  0  0  -0.50216  0  2.17324  0  0  -0.288883  -0.466478  0  2.19268  0
O  O76  1  0.03619342  0.38572745  0.16448021  1  0  -0.534954  0  1.892379  0  0  -0.507801  0  2.161087  0  0  -0.528009  0  2.149767  0  0  -0.220225  -0.494118  0  2.168397  0
O  O77  1  0.53619533  0.11427262  0.33552253  1  0  -0.534961  0  1.89232  0  0  -0.50773  0  2.16111  0  0  -0.527929  0  2.149787  0  0  -0.220191  -0.494048  0  2.168419  0
O  O78  1  0.96380708  0.61427335  0.83551961  1  0  -0.534984  0  1.892302  0  0  -0.507778  0  2.16106  0  0  -0.527985  0  2.14974  0  0  -0.220226  -0.494098  0  2.168369  0
O  O79  1  0.46380517  0.88572711  0.66447700  1  0  -0.534969  0  1.892318  0  0  -0.50771  0  2.161105  0  0  -0.527917  0  2.149786  0  0  -0.220183  -0.49403  0  2.168411  0
O  O80  1  0.85373887  0.44726734  0.05679211  1  0  -0.443145  0  1.770778  0  0  -0.436405  0  1.990803  0  0  -0.45002  0  1.985813  0  0  -0.181732  -0.427563  0  1.99396  0
O  O81  1  0.35373725  0.05273209  0.44320765  1  0  -0.443235  0  1.770678  0  0  -0.436382  0  1.990764  0  0  -0.449998  0  1.985777  0  0  -0.181739  -0.427543  0  1.993917  0
O  O82  1  0.14626164  0.55273239  0.94320824  1  0  -0.44323  0  1.770556  0  0  -0.436433  0  1.990643  0  0  -0.450046  0  1.985656  0  0  -0.181767  -0.427593  0  1.993799  0
O  O83  1  0.64626449  0.94726657  0.55679241  1  0  -0.44324  0  1.770674  0  0  -0.436402  0  1.990784  0  0  -0.450007  0  1.985781  0  0  -0.18176  -0.427563  0  1.993938  0
O  O84  1  0.99971272  0.24909833  0.98197018  1  0  -0.452397  0  1.752316  0  0  -0.440131  0  1.966729  0  0  -0.455488  0  1.962733  0  0  -0.181964  -0.430189  0  1.969388  0
O  O85  1  0.49971329  0.25090285  0.51803155  1  0  -0.452474  0  1.752291  0  0  -0.440116  0  1.966794  0  0  -0.455487  0  1.96281  0  0  -0.181976  -0.43018  0  1.969454  0
O  O86  1  0.00028655  0.75090247  0.01802964  1  0  -0.452444  0  1.752399  0  0  -0.440112  0  1.96687  0  0  -0.455473  0  1.962877  0  0  -0.181953  -0.430175  0  1.96953  0
O  O87  1  0.50028844  0.74909795  0.48196827  1  0  -0.452442  0  1.752351  0  0  -0.440082  0  1.966862  0  0  -0.455443  0  1.962867  0  0  -0.181954  -0.430147  0  1.969523  0
