# generated using pymatgen
data_Zn2H16C27N6O7
_symmetry_space_group_name_H-M   'P 1'
_cell_length_a   8.86974251
_cell_length_b   9.48312686
_cell_length_c   17.07254331
_cell_angle_alpha   83.89963171
_cell_angle_beta   88.68730496
_cell_angle_gamma   72.89865814
_symmetry_Int_Tables_number   1
_chemical_formula_structural   Zn2H16C27N6O7
_chemical_formula_sum   'Zn4 H32 C54 N12 O14'
_cell_volume   1364.70412514
_cell_formula_units_Z   2
loop_
 _symmetry_equiv_pos_site_id
 _symmetry_equiv_pos_as_xyz
  1  'x, y, z'
loop_
 _atom_site_type_symbol
 _atom_site_label
 _atom_site_symmetry_multiplicity
 _atom_site_fract_x
 _atom_site_fract_y
 _atom_site_fract_z
 _atom_site_occupancy
 _atom_site_pbe_bader_charge
 _atom_site_pbe_bader_spin_density
 _atom_site_pbe_cm5_charge
 _atom_site_pbe_ddec_charge
 _atom_site_pbe_ddec_spin_density
 _atom_site_pbe_ddec_sum_bond_order
 _atom_site_pbe_magmom
Zn  Zn0  1  0.60507279  0.59009289  0.96182333  1  1.324155  0  0.67443  0.931406  0  2.287538  0
Zn  Zn1  1  0.39492057  0.40990941  0.03817345  1  1.32413  0  0.674427  0.931373  0  2.28765  0
Zn  Zn2  1  0.30123399  0.56944933  0.84882819  1  1.283748  0  0.684552  0.88469  0  2.339326  0
Zn  Zn3  1  0.69876643  0.43055332  0.15117718  1  1.283471  0  0.68464  0.884762  0  2.33931  0
H  H4  1  0.54971679  0.36613517  0.91072674  1  0.661589  0  0.27195  0.369424  0  0.983332  0
H  H5  1  0.45030813  0.63385443  0.08927718  1  0.661956  0  0.271982  0.36945  0  0.983304  0
H  H6  1  0.01296908  0.96389610  0.26310684  1  0.461163  0  0.341595  0.304105  0  0.894262  0
H  H7  1  0.98705737  0.03607252  0.73690440  1  0.461251  0  0.341571  0.304071  0  0.894312  0
H  H8  1  0.66977274  0.71256952  0.49249283  1  0.464373  0  0.341139  0.301636  0  0.895927  0
H  H9  1  0.33024134  0.28742684  0.50751909  1  0.464341  0  0.341163  0.30163  0  0.89586  0
H  H10  1  0.03179593  0.41885031  0.89717953  1  0.103782  0  0.102428  0.099974  0  1.058057  0
H  H11  1  0.96820404  0.58115339  0.10282343  1  0.103906  0  0.102383  0.099891  0  1.05824  0
H  H12  1  0.46882078  0.99815110  0.70209260  1  0.193421  0  0.114765  0.142596  0  1.027615  0
H  H13  1  0.53121869  0.00183343  0.29792129  1  0.193014  0  0.114806  0.14267  0  1.027492  0
H  H14  1  0.78561796  0.23108237  0.52252525  1  0.090405  0  0.106721  0.129116  0  0.987169  0
H  H15  1  0.21437505  0.76893101  0.47746898  1  0.090397  0  0.106745  0.129135  0  0.987202  0
H  H16  1  0.03749123  0.44249225  0.28766141  1  0.134672  0  0.114135  0.131435  0  0.989587  0
H  H17  1  0.96251312  0.55750341  0.71233146  1  0.134612  0  0.114202  0.131552  0  0.989696  0
H  H18  1  0.21507868  0.00857892  0.20444203  1  0.065928  0  0.115278  0.119796  0  0.993892  0
H  H19  1  0.78493441  0.99140480  0.79555792  1  0.066045  0  0.115303  0.119817  0  0.993881  0
H  H20  1  0.19960762  0.53281608  0.18229775  1  0.069636  0  0.122189  0.094849  0  0.97276  0
H  H21  1  0.80038962  0.46717588  0.81768677  1  0.06954  0  0.122198  0.094832  0  0.972726  0
H  H22  1  0.33566073  0.87604336  0.80663726  1  0.119803  0  0.11832  0.089171  0  1.018117  0
H  H23  1  0.66434875  0.12395284  0.19337185  1  0.120247  0  0.118356  0.089338  0  1.01795  0
H  H24  1  0.07962379  0.04408610  0.07034554  1  0.115432  0  0.104738  0.105419  0  1.026255  0
H  H25  1  0.92039278  0.95592238  0.92965959  1  0.115257  0  0.104704  0.105372  0  1.02622  0
H  H26  1  0.36305298  0.11736145  0.10414662  1  0.114858  0  0.117761  0.089945  0  1.041222  0
H  H27  1  0.63694731  0.88261979  0.89585206  1  0.11485  0  0.117741  0.089895  0  1.041278  0
H  H28  1  0.84446933  0.79323568  0.36038138  1  0.124602  0  0.110933  0.148843  0  1.000167  0
H  H29  1  0.15553489  0.20675267  0.63962959  1  0.124215  0  0.110836  0.14878  0  1.000161  0
H  H30  1  0.43617813  0.48970524  0.69753114  1  0.147104  0  0.121085  0.098474  0  0.996778  0
H  H31  1  0.56381916  0.51029615  0.30247087  1  0.147062  0  0.121097  0.098487  0  0.996705  0
H  H32  1  0.40423455  0.01752659  0.87742662  1  0.096644  0  0.105378  0.103892  0  1.044446  0
H  H33  1  0.59575815  0.98247992  0.12256167  1  0.096758  0  0.105389  0.103949  0  1.044344  0
H  H34  1  0.58225817  0.59009483  0.59005846  1  0.047699  0  0.107522  0.106721  0  1.000467  0
H  H35  1  0.41773510  0.40990547  0.40994667  1  0.048174  0  0.107522  0.106724  0  1.000449  0
C  C36  1  0.73963372  0.01959148  0.51387786  1  0.389789  0  0.083009  0.135997  0  4.087765  0
C  C37  1  0.26036883  0.98041112  0.48612452  1  0.389763  0  0.083058  0.13603  0  4.087675  0
C  C38  1  0.62499526  0.87073314  0.57766844  1  0.971081  0  0.219195  0.290032  0  4.048846  0
C  C39  1  0.37500709  0.12927069  0.42233796  1  0.971106  0  0.219175  0.290039  0  4.048534  0
C  C40  1  0.54027344  0.80382243  0.63724646  1  0.038707  0  0.017879  0.059831  0  4.010199  0
C  C41  1  0.45973469  0.19617358  0.36275684  1  0.038532  0  0.018048  0.060057  0  4.010173  0
C  C42  1  0.10937370  0.21842221  0.25457436  1  0.015402  0  0.01873  0.064309  0  3.994498  0
C  C43  1  0.89062252  0.78157450  0.74542098  1  0.015318  0  0.018781  0.064317  0  3.994439  0
C  C44  1  0.01516910  0.16119706  0.31336891  1  0.992608  0  0.221188  0.298191  0  4.040893  0
C  C45  1  0.98483390  0.83879647  0.68662825  1  0.99359  0  0.221176  0.298136  0  4.040649  0
C  C46  1  0.88058396  0.12661486  0.41701014  1  0.421674  0  0.084692  0.139495  0  4.084736  0
C  C47  1  0.11942206  0.87337984  0.58298744  1  0.421111  0  0.084777  0.139546  0  4.084637  0
C  C48  1  0.90005620  0.33321912  0.02748701  1  1.544595  0  0.221779  0.607893  0  4.133464  0
C  C49  1  0.09994700  0.66678785  0.97251153  1  1.544598  0  0.221682  0.607718  0  4.133296  0
C  C50  1  0.22244914  0.22429771  0.87806915  1  0.040018  0  -0.025964  -0.053469  0  4.005777  0
C  C51  1  0.77753015  0.77572330  0.12192606  1  0.0442  0  -0.025979  -0.053726  0  4.006159  0
C  C52  1  0.89907452  0.00039598  0.37351446  1  0.35323  0  0.098301  0.163901  0  4.059025  0
C  C53  1  0.10094330  0.99959130  0.62649039  1  0.353634  0  0.09833  0.164082  0  4.058386  0
C  C54  1  0.34962950  0.86031388  0.00992861  1  1.592295  0  0.208742  0.587072  0  4.184439  0
C  C55  1  0.65037968  0.13969207  0.99006986  1  1.592005  0  0.208446  0.586568  0  4.185293  0
C  C56  1  0.09303384  0.30472052  0.91869930  1  -0.053079  0  -0.077943  -0.097273  0  3.942198  0
C  C57  1  0.90695500  0.69529303  0.08130323  1  -0.054192  0  -0.077887  -0.09716  0  3.942272  0
C  C58  1  0.46704282  0.88466151  0.69904355  1  0.015702  0  -0.072532  -0.145633  0  3.904848  0
C  C59  1  0.53297105  0.11533137  0.30096393  1  0.016416  0  -0.072703  -0.145843  0  3.904882  0
C  C60  1  0.79951544  0.13748835  0.48832214  1  -0.006342  0  -0.092435  -0.225652  0  3.948183  0
C  C61  1  0.20048730  0.86251301  0.51167564  1  -0.006325  0  -0.09247  -0.225711  0  3.948303  0
C  C62  1  0.76058377  0.89616852  0.46814618  1  0.382781  0  0.102264  0.176611  0  4.04016  0
C  C63  1  0.23941702  0.10383302  0.53185925  1  0.383457  0  0.102346  0.176698  0  4.039835  0
C  C64  1  0.10999694  0.36729175  0.24839520  1  -0.008627  0  -0.074279  -0.144841  0  3.912625  0
C  C65  1  0.88999865  0.63269924  0.75159529  1  -0.008654  0  -0.074358  -0.14496  0  3.9126  0
C  C66  1  0.20361272  0.12650010  0.20211296  1  -0.001375  0  -0.075888  -0.153774  0  3.93097  0
C  C67  1  0.79639095  0.87349117  0.79788317  1  -0.001484  0  -0.075961  -0.153795  0  3.930935  0
C  C68  1  0.19874105  0.41736767  0.18984510  1  0.488599  0  0.047026  0.091752  0  3.950896  0
C  C69  1  0.80124916  0.58262201  0.81014210  1  0.488353  0  0.047065  0.091844  0  3.950344  0
C  C70  1  0.03960075  0.24004854  0.98726984  1  0.014414  0  -0.020596  -0.042852  0  3.960915  0
C  C71  1  0.96040198  0.75996747  0.01273276  1  0.014519  0  -0.020585  -0.042779  0  3.960454  0
C  C72  1  0.39107993  0.81788826  0.75693729  1  0.407771  0  0.048229  0.098564  0  3.938423  0
C  C73  1  0.60892723  0.18210453  0.24307095  1  0.407483  0  0.048221  0.098369  0  3.938338  0
C  C74  1  0.12018599  0.09449600  0.01695067  1  -0.094097  0  -0.070799  -0.096789  0  3.942835  0
C  C75  1  0.87981735  0.90551771  0.98304915  1  -0.093711  0  -0.070833  -0.096861  0  3.942663  0
C  C76  1  0.28893481  0.18561852  0.14563545  1  0.492454  0  0.046373  0.096487  0  3.953621  0
C  C77  1  0.71106421  0.81436924  0.85435753  1  0.491947  0  0.046485  0.09667  0  3.953408  0
C  C78  1  0.83866442  0.88270392  0.39651316  1  0.078399  0  -0.102759  -0.271691  0  3.973851  0
C  C79  1  0.16134343  0.11729327  0.60349241  1  0.078784  0  -0.102804  -0.271788  0  3.973502  0
C  C80  1  0.25394822  0.01424315  0.97817288  1  0.0035  0  -0.020637  -0.045108  0  3.960526  0
C  C81  1  0.74605645  0.98576272  0.02182512  1  0.003128  0  -0.020621  -0.044933  0  3.96058  0
C  C82  1  0.44918732  0.60083878  0.69596755  1  0.472084  0  0.044874  0.095352  0  3.949936  0
C  C83  1  0.55081078  0.39916046  0.30403694  1  0.471749  0  0.044785  0.09531  0  3.949865  0
C  C84  1  0.30202199  0.07950070  0.90846395  1  -0.083986  0  -0.073909  -0.090248  0  3.928808  0
C  C85  1  0.69796759  0.92051591  0.09152779  1  -0.085736  0  -0.073781  -0.090072  0  3.928894  0
C  C86  1  0.27143524  0.28815467  0.80033061  1  1.577293  0  0.200074  0.58239  0  4.231085  0
C  C87  1  0.72852587  0.71186257  0.19966004  1  1.57517  0  0.200156  0.582551  0  4.230535  0
C  C88  1  0.52830901  0.65934373  0.63615782  1  -0.065609  0  -0.085672  -0.173349  0  3.976206  0
C  C89  1  0.47168718  0.34065766  0.36384481  1  -0.066181  0  -0.085699  -0.173441  0  3.976307  0
N  N90  1  0.38297452  0.67826063  0.75624809  1  -1.254054  0  -0.337815  -0.252396  0  3.585747  0
N  N91  1  0.61702238  0.32173522  0.24375551  1  -1.253665  0  -0.337767  -0.252339  0  3.585614  0
N  N92  1  0.95340980  0.22365528  0.37722826  1  -1.136017  0  -0.340951  -0.403739  0  3.16508  0
N  N93  1  0.04659576  0.77633714  0.62276774  1  -1.135851  0  -0.340941  -0.403663  0  3.164839  0
N  N94  1  0.28636893  0.32894346  0.13828320  1  -1.234399  0  -0.326151  -0.247905  0  3.528594  0
N  N95  1  0.71362560  0.67104423  0.86170989  1  -1.233544  0  -0.326285  -0.248148  0  3.528231  0
N  N96  1  0.98474385  0.02721200  0.30848213  1  -1.237716  0  -0.382988  -0.32541  0  3.584539  0
N  N97  1  0.01527166  0.97276855  0.69152326  1  -1.238594  0  -0.383072  -0.325557  0  3.584219  0
N  N98  1  0.68726196  0.80449855  0.51099650  1  -1.234008  0  -0.383167  -0.322215  0  3.590354  0
N  N99  1  0.31273564  0.19550972  0.48901146  1  -1.234353  0  -0.383238  -0.322275  0  3.589985  0
N  N100  1  0.65506405  0.99923030  0.58104548  1  -1.112287  0  -0.337632  -0.397029  0  3.176634  0
N  N101  1  0.34493457  0.00077458  0.41896094  1  -1.112614  0  -0.337594  -0.396974  0  3.176648  0
O  O102  1  0.82719252  0.45786388  0.99120883  1  -1.203541  0  -0.31672  -0.573067  0  2.41525  0
O  O103  1  0.17281344  0.54214211  0.00879323  1  -1.203335  0  -0.316626  -0.573004  0  2.415263  0
O  O104  1  0.24067331  0.43168708  0.78828872  1  -1.19418  0  -0.35308  -0.607112  0  2.390023  0
O  O105  1  0.75930066  0.56833074  0.21171505  1  -1.194003  0  -0.353162  -0.607203  0  2.389737  0
O  O106  1  0.86512931  0.28540414  0.09675393  1  -1.154478  0  -0.316162  -0.537827  0  2.296164  0
O  O107  1  0.13487195  0.71460497  0.90324217  1  -1.154528  0  -0.316125  -0.537689  0  2.29609  0
O  O108  1  0.45422842  0.79457418  0.96166612  1  -1.201207  0  -0.332137  -0.592089  0  2.407548  0
O  O109  1  0.54575002  0.20542100  0.03832450  1  -1.200916  0  -0.332094  -0.591916  0  2.407514  0
O  O110  1  0.32552477  0.80738679  0.07842508  1  -1.175259  0  -0.322435  -0.536606  0  2.100515  0
O  O111  1  0.67451288  0.19263318  0.92157930  1  -1.175227  0  -0.322205  -0.536329  0  2.101124  0
O  O112  1  0.33083946  0.20258946  0.74998839  1  -1.174179  0  -0.32383  -0.541003  0  2.123398  0
O  O113  1  0.66905163  0.79743634  0.24998933  1  -1.173782  0  -0.323915  -0.541051  0  2.123265  0
O  O114  1  0.47801983  0.46610262  0.92211958  1  -1.287106  0  -0.570796  -0.862347  0  2.317432  0
O  O115  1  0.52199000  0.53388776  0.07788115  1  -1.287259  0  -0.570885  -0.862387  0  2.31728  0
