# generated using pymatgen
data_LiH10C4N2Cl
_symmetry_space_group_name_H-M   'P 1'
_cell_length_a   6.64420336
_cell_length_b   6.91739849
_cell_length_c   13.86942161
_cell_angle_alpha   97.09057858
_cell_angle_beta   89.99976321
_cell_angle_gamma   90.00000889
_symmetry_Int_Tables_number   1
_chemical_formula_structural   LiH10C4N2Cl
_chemical_formula_sum   'Li4 H40 C16 N8 Cl4'
_cell_volume   632.57193470
_cell_formula_units_Z   4
loop_
 _symmetry_equiv_pos_site_id
 _symmetry_equiv_pos_as_xyz
  1  'x, y, z'
loop_
 _atom_site_type_symbol
 _atom_site_label
 _atom_site_symmetry_multiplicity
 _atom_site_fract_x
 _atom_site_fract_y
 _atom_site_fract_z
 _atom_site_occupancy
 _atom_site_hle17_bader_spin_density
 _atom_site_hle17_ddec_charge
 _atom_site_hle17_ddec_spin_density
 _atom_site_hle17_ddec_sum_bond_order
 _atom_site_hle17_magmom
 _atom_site_hse06_10hf_bader_spin_density
 _atom_site_hse06_10hf_ddec_charge
 _atom_site_hse06_10hf_ddec_spin_density
 _atom_site_hse06_10hf_ddec_sum_bond_order
 _atom_site_hse06_10hf_magmom
 _atom_site_hse06_bader_spin_density
 _atom_site_hse06_ddec_charge
 _atom_site_hse06_ddec_spin_density
 _atom_site_hse06_ddec_sum_bond_order
 _atom_site_hse06_magmom
 _atom_site_pbe_bader_spin_density
 _atom_site_pbe_cm5_charge
 _atom_site_pbe_ddec_charge
 _atom_site_pbe_ddec_spin_density
 _atom_site_pbe_ddec_sum_bond_order
 _atom_site_pbe_magmom
Li  Li0  1  0.12182496  0.12433258  0.70680297  1  0  0.778406  0  0.476905  0  0  0.714436  0  0.610656  0  0  0.723439  0  0.597495  0  0  0.385642  0.708114  0  0.619936  0
Li  Li1  1  0.62182590  0.87566189  0.79319584  1  0  0.778406  0  0.476883  0  0  0.714433  0  0.610645  0  0  0.723442  0  0.597475  0  0  0.385643  0.708111  0  0.619924  0
Li  Li2  1  0.87817331  0.87566226  0.29319731  1  0  0.778394  0  0.47691  0  0  0.714416  0  0.610679  0  0  0.723418  0  0.597514  0  0  0.38565  0.708093  0  0.619958  0
Li  Li3  1  0.37817388  0.12433149  0.20680435  1  0  0.778414  0  0.476881  0  0  0.714446  0  0.610638  0  0  0.72344  0  0.597481  0  0  0.385642  0.708125  0  0.619916  0
H  H4  1  0.29469578  0.48407182  0.75139352  1  0  0.285319  0  0.937742  0  0  0.279639  0  0.992963  0  0  0.284588  0  0.989618  0  0  0.272443  0.276029  0  0.995498  0
H  H5  1  0.79469254  0.51591680  0.74860240  1  0  0.285444  0  0.937512  0  0  0.279655  0  0.992864  0  0  0.284604  0  0.98952  0  0  0.27247  0.276048  0  0.995395  0
H  H6  1  0.70530700  0.51592306  0.24860461  1  0  0.285356  0  0.937617  0  0  0.279607  0  0.992933  0  0  0.284556  0  0.98959  0  0  0.272417  0.275995  0  0.995479  0
H  H7  1  0.20530875  0.48407946  0.25139942  1  0  0.285292  0  0.937637  0  0  0.279575  0  0.992908  0  0  0.284525  0  0.989566  0  0  0.272401  0.27597  0  0.995431  0
H  H8  1  0.45160088  0.30664512  0.76946210  1  0  0.279182  0  0.94811  0  0  0.269511  0  1.013433  0  0  0.275106  0  1.008447  0  0  0.273978  0.26547  0  1.017175  0
H  H9  1  0.95159481  0.69334490  0.73053360  1  0  0.279175  0  0.948168  0  0  0.269559  0  1.013434  0  0  0.275155  0  1.008445  0  0  0.274001  0.265519  0  1.017174  0
H  H10  1  0.54840341  0.69334977  0.23053530  1  0  0.279176  0  0.948145  0  0  0.269567  0  1.013398  0  0  0.275163  0  1.008407  0  0  0.274007  0.265526  0  1.01714  0
H  H11  1  0.04840647  0.30664708  0.26946361  1  0  0.279142  0  0.948237  0  0  0.269523  0  1.013496  0  0  0.275118  0  1.008508  0  0  0.27398  0.265483  0  1.017237  0
H  H12  1  0.50910582  0.21219205  0.61161592  1  0  0.056138  0  0.95728  0  0  0.074981  0  1.023167  0  0  0.074766  0  1.024394  0  0  0.105405  0.074961  0  1.02259  0
H  H13  1  0.00910944  0.78780256  0.88837808  1  0  0.056147  0  0.957219  0  0  0.075019  0  1.0231  0  0  0.0748  0  1.024325  0  0  0.105421  0.074999  0  1.022525  0
H  H14  1  0.49088794  0.78780142  0.38837995  1  0  0.056147  0  0.957202  0  0  0.074999  0  1.023131  0  0  0.074779  0  1.024357  0  0  0.105421  0.074981  0  1.022552  0
H  H15  1  0.99089937  0.21219818  0.11161900  1  0  0.056056  0  0.957381  0  0  0.075004  0  1.023176  0  0  0.074783  0  1.024403  0  0  0.105416  0.074984  0  1.022601  0
H  H16  1  0.50537775  0.46992067  0.61834327  1  0  0.041197  0  0.93923  0  0  0.058666  0  1.007113  0  0  0.059419  0  1.006191  0  0  0.092239  0.057987  0  1.007959  0
H  H17  1  0.00537988  0.53007826  0.88165391  1  0  0.041175  0  0.939221  0  0  0.05867  0  1.007116  0  0  0.05942  0  1.00619  0  0  0.092249  0.057993  0  1.007961  0
H  H18  1  0.49461751  0.53007134  0.38165250  1  0  0.041162  0  0.939276  0  0  0.058649  0  1.007197  0  0  0.0594  0  1.00627  0  0  0.092224  0.057968  0  1.008041  0
H  H19  1  0.99462441  0.46992821  0.11834859  1  0  0.041194  0  0.939195  0  0  0.058687  0  1.007117  0  0  0.059435  0  1.006192  0  0  0.092236  0.058009  0  1.007961  0
H  H20  1  0.29529596  0.35027946  0.48161129  1  0  0.050063  0  0.92468  0  0  0.06683  0  0.990249  0  0  0.068172  0  0.988818  0  0  0.096172  0.065715  0  0.991438  0
H  H21  1  0.79530224  0.64972171  0.01838526  1  0  0.050093  0  0.924667  0  0  0.066853  0  0.990242  0  0  0.068197  0  0.988808  0  0  0.096193  0.065736  0  0.991436  0
H  H22  1  0.70469780  0.64971835  0.51838631  1  0  0.05005  0  0.924685  0  0  0.066819  0  0.990259  0  0  0.068164  0  0.988825  0  0  0.096167  0.065701  0  0.991455  0
H  H23  1  0.20471258  0.35029350  0.98161710  1  0  0.050166  0  0.924664  0  0  0.066908  0  0.990232  0  0  0.06825  0  0.988801  0  0  0.096221  0.065799  0  0.991421  0
H  H24  1  0.14082858  0.46104070  0.57747528  1  0  0.065738  0  0.939006  0  0  0.083465  0  1.001426  0  0  0.083767  0  1.002048  0  0  0.10701  0.083156  0  1.001097  0
H  H25  1  0.64082684  0.53895961  0.92252316  1  0  0.065708  0  0.938912  0  0  0.083415  0  1.001369  0  0  0.083716  0  1.001991  0  0  0.106999  0.083107  0  1.001037  0
H  H26  1  0.85916669  0.53895852  0.42252457  1  0  0.065747  0  0.939003  0  0  0.083511  0  1.001388  0  0  0.083812  0  1.002012  0  0  0.107027  0.0832  0  1.001061  0
H  H27  1  0.35918046  0.46104681  0.07748150  1  0  0.065766  0  0.939  0  0  0.083488  0  1.001418  0  0  0.083789  0  1.00204  0  0  0.107006  0.083178  0  1.001092  0
H  H28  1  0.35337498  0.95886245  0.53416398  1  0  0.068089  0  0.950656  0  0  0.085147  0  1.014657  0  0  0.085397  0  1.015226  0  0  0.107182  0.084876  0  1.014403  0
H  H29  1  0.85337579  0.04113774  0.96583619  1  0  0.068082  0  0.950688  0  0  0.085164  0  1.014657  0  0  0.085413  0  1.015224  0  0  0.107167  0.084892  0  1.014402  0
H  H30  1  0.64661727  0.04113677  0.46583587  1  0  0.068141  0  0.950552  0  0  0.08525  0  1.014503  0  0  0.085498  0  1.015074  0  0  0.107209  0.084971  0  1.014245  0
H  H31  1  0.14662097  0.95887467  0.03416093  1  0  0.068114  0  0.950554  0  0  0.085178  0  1.014566  0  0  0.085428  0  1.015136  0  0  0.107178  0.084907  0  1.01431  0
H  H32  1  0.24920488  0.02543843  0.42334051  1  0  0.05133  0  0.943398  0  0  0.060815  0  1.023232  0  0  0.062531  0  1.02105  0  0  0.099414  0.059461  0  1.024988  0
H  H33  1  0.74920620  0.97456268  0.07666045  1  0  0.051366  0  0.943403  0  0  0.060849  0  1.023239  0  0  0.062564  0  1.021056  0  0  0.099418  0.059495  0  1.024994  0
H  H34  1  0.75079189  0.97455782  0.57666203  1  0  0.051423  0  0.943194  0  0  0.060888  0  1.023059  0  0  0.062605  0  1.020876  0  0  0.099454  0.059531  0  1.024818  0
H  H35  1  0.25080411  0.02544968  0.92333883  1  0  0.051331  0  0.943307  0  0  0.060828  0  1.023139  0  0  0.062545  0  1.020956  0  0  0.099441  0.059475  0  1.024895  0
H  H36  1  0.93849289  0.23197104  0.43575123  1  0  0.047314  0  0.950049  0  0  0.061719  0  1.02137  0  0  0.062904  0  1.020058  0  0  0.093223  0.060718  0  1.022533  0
H  H37  1  0.43848577  0.76802998  0.06425007  1  0  0.047324  0  0.950016  0  0  0.061742  0  1.021343  0  0  0.062927  0  1.020028  0  0  0.09323  0.060741  0  1.022505  0
H  H38  1  0.06150387  0.76802672  0.56424853  1  0  0.047371  0  0.949945  0  0  0.061759  0  1.021304  0  0  0.062946  0  1.019993  0  0  0.093234  0.060756  0  1.022473  0
H  H39  1  0.56150950  0.23197642  0.93575531  1  0  0.047382  0  0.950011  0  0  0.061746  0  1.021376  0  0  0.062932  0  1.020065  0  0  0.093236  0.06075  0  1.02253  0
H  H40  1  0.84112932  0.30902311  0.55414446  1  0  0.062814  0  0.935219  0  0  0.079957  0  1.000892  0  0  0.080061  0  1.001359  0  0  0.106511  0.079765  0  1.000741  0
H  H41  1  0.34112491  0.69098588  0.94585344  1  0  0.062793  0  0.935248  0  0  0.079947  0  1.000938  0  0  0.080052  0  1.001404  0  0  0.106528  0.079755  0  1.000785  0
H  H42  1  0.15886895  0.69097759  0.44585405  1  0  0.062823  0  0.935222  0  0  0.079999  0  1.00087  0  0  0.080105  0  1.001338  0  0  0.106508  0.079815  0  1.000711  0
H  H43  1  0.65887336  0.30902647  0.05414657  1  0  0.062812  0  0.935258  0  0  0.079981  0  1.000906  0  0  0.08009  0  1.001371  0  0  0.106502  0.079792  0  1.000752  0
C  C44  1  0.41247717  0.34083340  0.62700273  1  0  0.066879  0  3.692287  0  0  0.007571  0  3.961072  0  0  0.011288  0  3.97298  0  0  -0.077284  0.005133  0  3.952932  0
C  C45  1  0.91247739  0.65916247  0.87299343  1  0  0.066879  0  3.692222  0  0  0.007461  0  3.96116  0  0  0.011194  0  3.97305  0  0  -0.077371  0.005021  0  3.953022  0
C  C46  1  0.58752261  0.65915856  0.37299520  1  0  0.066943  0  3.692051  0  0  0.007525  0  3.961001  0  0  0.011254  0  3.972905  0  0  -0.077293  0.005095  0  3.952848  0
C  C47  1  0.08753292  0.34084405  0.12700618  1  0  0.066975  0  3.692363  0  0  0.007464  0  3.961358  0  0  0.01119  0  3.973269  0  0  -0.077355  0.005028  0  3.953211  0
C  C48  1  0.23844307  0.33494570  0.55555500  1  0  -0.027719  0  3.669504  0  0  -0.079668  0  3.927984  0  0  -0.077309  0  3.94053  0  0  -0.068658  -0.081079  0  3.919304  0
C  C49  1  0.73844869  0.66505600  0.94444479  1  0  -0.027651  0  3.669353  0  0  -0.079584  0  3.927834  0  0  -0.077218  0  3.940387  0  0  -0.06864  -0.080993  0  3.919147  0
C  C50  1  0.76155821  0.66505204  0.44444620  1  0  -0.027719  0  3.669375  0  0  -0.079705  0  3.927927  0  0  -0.077352  0  3.940469  0  0  -0.068668  -0.08111  0  3.919244  0
C  C51  1  0.26155711  0.33495334  0.05555935  1  0  -0.02796  0  3.669697  0  0  -0.079843  0  3.92817  0  0  -0.077485  0  3.940707  0  0  -0.068692  -0.081262  0  3.919489  0
C  C52  1  0.21316570  0.99097193  0.49749036  1  0  -0.032868  0  3.687601  0  0  -0.088301  0  3.943948  0  0  -0.085997  0  3.956567  0  0  -0.06735  -0.089519  0  3.934869  0
C  C53  1  0.71316751  0.00903210  0.00251087  1  0  -0.032933  0  3.687624  0  0  -0.088416  0  3.943947  0  0  -0.086118  0  3.956628  0  0  -0.067364  -0.089628  0  3.934857  0
C  C54  1  0.78683106  0.00902440  0.50250858  1  0  -0.033023  0  3.687479  0  0  -0.088461  0  3.943745  0  0  -0.086179  0  3.956415  0  0  -0.067413  -0.089656  0  3.93464  0
C  C55  1  0.28683679  0.99098020  0.99749130  1  0  -0.032898  0  3.687567  0  0  -0.088313  0  3.943826  0  0  -0.086023  0  3.956479  0  0  -0.067365  -0.08953  0  3.934735  0
C  C56  1  0.91851726  0.18922079  0.50959884  1  0  -0.01572  0  3.689078  0  0  -0.072975  0  3.949754  0  0  -0.070043  0  3.961988  0  0  -0.064216  -0.074746  0  3.941134  0
C  C57  1  0.41851248  0.81078084  0.99040130  1  0  -0.015702  0  3.688998  0  0  -0.073055  0  3.949758  0  0  -0.070112  0  3.962  0  0  -0.064261  -0.074834  0  3.941163  0
C  C58  1  0.08147950  0.81077557  0.49039866  1  0  -0.015823  0  3.688923  0  0  -0.073125  0  3.949609  0  0  -0.070206  0  3.96187  0  0  -0.064229  -0.074898  0  3.940993  0
C  C59  1  0.58147826  0.18922853  0.00960211  1  0  -0.015758  0  3.689069  0  0  -0.073011  0  3.949711  0  0  -0.070093  0  3.96197  0  0  -0.064193  -0.074784  0  3.94109  0
N  N60  1  0.33493246  0.34327186  0.72681799  1  0  -0.732994  0  3.039923  0  0  -0.700428  0  3.276412  0  0  -0.713365  0  3.273826  0  0  -0.713249  -0.691338  0  3.278523  0
N  N61  1  0.83493353  0.65672549  0.77317843  1  0  -0.733114  0  3.039768  0  0  -0.700454  0  3.276295  0  0  -0.713395  0  3.273699  0  0  -0.713254  -0.691366  0  3.278404  0
N  N62  1  0.66506732  0.65672594  0.27317961  1  0  -0.73306  0  3.039806  0  0  -0.700429  0  3.27627  0  0  -0.713372  0  3.27368  0  0  -0.713252  -0.691343  0  3.278376  0
N  N63  1  0.16506173  0.34326495  0.22682301  1  0  -0.73291  0  3.039764  0  0  -0.700328  0  3.276293  0  0  -0.713264  0  3.273704  0  0  -0.713168  -0.691239  0  3.278405  0
N  N64  1  0.11445829  0.15817362  0.55433181  1  0  -0.296331  0  3.266147  0  0  -0.211963  0  3.513883  0  0  -0.225806  0  3.532969  0  0  -0.403297  -0.202344  0  3.500503  0
N  N65  1  0.61446544  0.84182811  0.94566894  1  0  -0.296403  0  3.265902  0  0  -0.211924  0  3.51359  0  0  -0.225797  0  3.532677  0  0  -0.403275  -0.202303  0  3.5002  0
N  N66  1  0.88553396  0.84182269  0.44566785  1  0  -0.296309  0  3.266112  0  0  -0.211901  0  3.513864  0  0  -0.225727  0  3.532907  0  0  -0.403314  -0.202291  0  3.500484  0
N  N67  1  0.38553885  0.15818129  0.05433232  1  0  -0.296243  0  3.266222  0  0  -0.211867  0  3.513961  0  0  -0.225689  0  3.533006  0  0  -0.403301  -0.202243  0  3.500576  0
Cl  Cl68  1  0.30198498  0.83572795  0.72713675  1  0  -0.746815  0  0.682076  0  0  -0.689392  0  0.909355  0  0  -0.698904  0  0.889419  0  0  -0.345166  -0.682355  0  0.923521  0
Cl  Cl69  1  0.80198447  0.16426500  0.77286160  1  0  -0.746837  0  0.68211  0  0  -0.689389  0  0.909344  0  0  -0.698897  0  0.889407  0  0  -0.345161  -0.682355  0  0.923509  0
Cl  Cl70  1  0.69801480  0.16426692  0.27286209  1  0  -0.746829  0  0.682081  0  0  -0.689397  0  0.909351  0  0  -0.6989  0  0.889421  0  0  -0.345168  -0.682363  0  0.923515  0
Cl  Cl71  1  0.19801681  0.83572832  0.22714147  1  0  -0.746822  0  0.682116  0  0  -0.689389  0  0.909392  0  0  -0.698895  0  0.889461  0  0  -0.345162  -0.682356  0  0.923556  0
