# generated using pymatgen
data_NdH24C24(NO2)6
_symmetry_space_group_name_H-M   'P 1'
_cell_length_a   16.05077122
_cell_length_b   16.05076799
_cell_length_c   16.46093720
_cell_angle_alpha   89.99991586
_cell_angle_beta   90.00004941
_cell_angle_gamma   119.99981607
_symmetry_Int_Tables_number   1
_chemical_formula_structural   NdH24C24(NO2)6
_chemical_formula_sum   'Nd4 H96 C96 N24 O48'
_cell_volume   3672.63455683
_cell_formula_units_Z   4
loop_
 _symmetry_equiv_pos_site_id
 _symmetry_equiv_pos_as_xyz
  1  'x, y, z'
loop_
 _atom_site_type_symbol
 _atom_site_label
 _atom_site_symmetry_multiplicity
 _atom_site_fract_x
 _atom_site_fract_y
 _atom_site_fract_z
 _atom_site_occupancy
 _atom_site_pbe_bader_charge
 _atom_site_pbe_bader_spin_density
 _atom_site_pbe_cm5_charge
 _atom_site_pbe_ddec_charge
 _atom_site_pbe_ddec_spin_density
 _atom_site_pbe_ddec_sum_bond_order
 _atom_site_pbe_magmom
Nd  Nd0  1  0.66666694  0.33333439  0.33336016  1  2.198513  0  1.491059  1.914018  0  2.333989  0
Nd  Nd1  1  0.33333429  0.66666728  0.16663963  1  2.198515  0  1.491064  1.914028  0  2.333946  0
Nd  Nd2  1  0.33333210  0.66666542  0.66663971  1  2.198525  0  1.491057  1.913995  0  2.334002  0
Nd  Nd3  1  0.66666573  0.33333279  0.83335964  1  2.198509  0  1.491052  1.914026  0  2.333978  0
H  H4  1  0.74486460  0.49317441  0.51415902  1  0.108654  0  0.108444  0.123472  0  1.012391  0
H  H5  1  0.50682340  0.25169226  0.51415849  1  0.104453  0  0.108434  0.123467  0  1.012402  0
H  H6  1  0.74831017  0.25513632  0.51416041  1  0.107883  0  0.108445  0.123456  0  1.012398  0
H  H7  1  0.49317509  0.74486496  0.98584087  1  0.108665  0  0.108441  0.123485  0  1.012397  0
H  H8  1  0.25169298  0.50682374  0.98584155  1  0.104443  0  0.10844  0.123466  0  1.012397  0
H  H9  1  0.25513671  0.74831094  0.98583955  1  0.107882  0  0.108451  0.123462  0  1.012387  0
H  H10  1  0.25513579  0.50682531  0.48584086  1  0.108658  0  0.108436  0.123448  0  1.012464  0
H  H11  1  0.49317528  0.74830791  0.48584018  1  0.104492  0  0.108443  0.123478  0  1.012424  0
H  H12  1  0.25168985  0.74486375  0.48583947  1  0.107882  0  0.108446  0.123477  0  1.012367  0
H  H13  1  0.50682529  0.25513475  0.01415901  1  0.108648  0  0.108428  0.123457  0  1.01242  0
H  H14  1  0.74830704  0.49317634  0.01415833  1  0.104441  0  0.108433  0.123455  0  1.012395  0
H  H15  1  0.74486358  0.25169012  0.01416093  1  0.107875  0  0.10844  0.123456  0  1.012371  0
H  H16  1  0.58958191  0.68497125  0.44082946  1  0.090821  0  0.102948  0.100758  0  1.041893  0
H  H17  1  0.31502974  0.90461415  0.44083101  1  0.09167  0  0.102969  0.100787  0  1.041912  0
H  H18  1  0.09538762  0.41041580  0.44083066  1  0.094019  0  0.102978  0.100794  0  1.041885  0
H  H19  1  0.68497084  0.58958127  0.05917025  1  0.090782  0  0.102955  0.10075  0  1.041921  0
H  H20  1  0.90461426  0.31502963  0.05916872  1  0.091673  0  0.10297  0.100795  0  1.04191  0
H  H21  1  0.41041664  0.09538813  0.05916927  1  0.094013  0  0.102974  0.100792  0  1.041909  0
H  H22  1  0.41041811  0.31502883  0.55917042  1  0.090818  0  0.103007  0.100839  0  1.041941  0
H  H23  1  0.68497001  0.09538495  0.55916947  1  0.091682  0  0.102948  0.100785  0  1.041915  0
H  H24  1  0.90461241  0.58958428  0.55916982  1  0.094016  0  0.102976  0.100808  0  1.041886  0
H  H25  1  0.31502954  0.41041845  0.94083023  1  0.090793  0  0.103018  0.100857  0  1.041919  0
H  H26  1  0.09538576  0.68497045  0.94083116  1  0.091677  0  0.102969  0.100796  0  1.041906  0
H  H27  1  0.58958400  0.90461257  0.94083060  1  0.094029  0  0.102969  0.100774  0  1.041919  0
H  H28  1  0.80760241  0.65745559  0.57053786  1  0.112697  0  0.103668  0.10136  0  1.008582  0
H  H29  1  0.34254416  0.15014946  0.57053802  1  0.099299  0  0.103689  0.101393  0  1.00856  0
H  H30  1  0.84985234  0.19239710  0.57053821  1  0.077489  0  0.103679  0.101358  0  1.008589  0
H  H31  1  0.65745503  0.80760156  0.92946197  1  0.112627  0  0.103673  0.101352  0  1.008604  0
H  H32  1  0.15014923  0.34254424  0.92946148  1  0.099299  0  0.103697  0.101403  0  1.008545  0
H  H33  1  0.19239693  0.84985255  0.92946235  1  0.077476  0  0.103664  0.10135  0  1.008586  0
H  H34  1  0.19239824  0.34254510  0.42946202  1  0.1127  0  0.103678  0.101364  0  1.008584  0
H  H35  1  0.65745488  0.84985036  0.42946124  1  0.0993  0  0.103699  0.101402  0  1.008529  0
H  H36  1  0.15014830  0.80760360  0.42946167  1  0.077475  0  0.103688  0.101388  0  1.008546  0
H  H37  1  0.34254535  0.19239815  0.07053852  1  0.112752  0  0.103672  0.101355  0  1.00858  0
H  H38  1  0.84985079  0.65745584  0.07053901  1  0.099296  0  0.103696  0.101407  0  1.008545  0
H  H39  1  0.80760371  0.15014815  0.07053813  1  0.077476  0  0.103687  0.101389  0  1.008548  0
H  H40  1  0.73194378  0.75577233  0.53294087  1  0.070346  0  0.099676  0.101618  0  1.004345  0
H  H41  1  0.24422660  0.97617485  0.53293929  1  0.092879  0  0.099722  0.101668  0  1.004283  0
H  H42  1  0.02382642  0.26805132  0.53293849  1  0.075272  0  0.099711  0.101651  0  1.004315  0
H  H43  1  0.75577295  0.73194412  0.96705956  1  0.070335  0  0.099668  0.101616  0  1.004336  0
H  H44  1  0.97617535  0.24422678  0.96706060  1  0.092884  0  0.099723  0.101666  0  1.004286  0
H  H45  1  0.26805162  0.02382700  0.96706168  1  0.075263  0  0.09971  0.101654  0  1.004316  0
H  H46  1  0.26805625  0.24422775  0.46705961  1  0.070347  0  0.09968  0.101636  0  1.004339  0
H  H47  1  0.75577316  0.02382424  0.46706119  1  0.092896  0  0.099717  0.101649  0  1.004269  0
H  H48  1  0.97617360  0.73194875  0.46706139  1  0.075264  0  0.099706  0.101651  0  1.004279  0
H  H49  1  0.24422806  0.26805622  0.03294032  1  0.070352  0  0.099679  0.101636  0  1.004334  0
H  H50  1  0.02382503  0.75577293  0.03293927  1  0.092882  0  0.099725  0.101668  0  1.004284  0
H  H51  1  0.73194902  0.97617370  0.03293820  1  0.075262  0  0.099712  0.101657  0  1.00431  0
H  H52  1  0.47217321  0.55968078  0.36327559  1  0.169943  0  0.128562  0.101237  0  1.01405  0
H  H53  1  0.44032024  0.91249698  0.36327654  1  0.142907  0  0.128574  0.101231  0  1.014131  0
H  H54  1  0.08750668  0.52782520  0.36327545  1  0.19027  0  0.128551  0.101235  0  1.014076  0
H  H55  1  0.55967998  0.47217286  0.13672480  1  0.169945  0  0.12856  0.101249  0  1.014052  0
H  H56  1  0.91249644  0.44031949  0.13672375  1  0.142898  0  0.128583  0.101245  0  1.014059  0
H  H57  1  0.52782534  0.08750651  0.13672384  1  0.190273  0  0.128546  0.10123  0  1.014105  0
H  H58  1  0.52782744  0.44031992  0.63672489  1  0.169945  0  0.128558  0.101237  0  1.014054  0
H  H59  1  0.55968040  0.08750372  0.63672333  1  0.142897  0  0.128576  0.101223  0  1.014102  0
H  H60  1  0.91249334  0.47217487  0.63672442  1  0.190269  0  0.128541  0.101223  0  1.014111  0
H  H61  1  0.44032004  0.52782721  0.86327569  1  0.169949  0  0.128547  0.101217  0  1.014085  0
H  H62  1  0.08750296  0.55967996  0.86327551  1  0.142911  0  0.12857  0.101233  0  1.014107  0
H  H63  1  0.47217530  0.91249419  0.86327603  1  0.190286  0  0.128556  0.101246  0  1.014085  0
H  H64  1  0.34050439  0.43198959  0.30266972  1  0.097534  0  0.11884  0.101174  0  0.999651  0
H  H65  1  0.56800938  0.90851622  0.30267069  1  0.058352  0  0.118842  0.101184  0  0.99964  0
H  H66  1  0.09148520  0.65949470  0.30267006  1  0.090074  0  0.118834  0.101159  0  0.999685  0
H  H67  1  0.43198975  0.34050425  0.19733074  1  0.097661  0  0.118834  0.101159  0  0.999651  0
H  H68  1  0.90851592  0.56800961  0.19732957  1  0.058351  0  0.118835  0.101181  0  0.999668  0
H  H69  1  0.65949441  0.09148533  0.19732980  1  0.090073  0  0.118836  0.101155  0  0.99968  0
H  H70  1  0.65949564  0.56801049  0.69733076  1  0.097673  0  0.118839  0.10118  0  0.99964  0
H  H71  1  0.43199028  0.09148422  0.69732918  1  0.058341  0  0.118848  0.101185  0  0.999663  0
H  H72  1  0.90851482  0.34050538  0.69732981  1  0.090074  0  0.118833  0.101162  0  0.99968  0
H  H73  1  0.56801089  0.65949644  0.80266913  1  0.097666  0  0.118838  0.10116  0  0.999655  0
H  H74  1  0.09148348  0.43198985  0.80267031  1  0.058355  0  0.118835  0.101168  0  0.999695  0
H  H75  1  0.34050624  0.90851537  0.80267007  1  0.090079  0  0.11884  0.101169  0  0.999671  0
H  H76  1  0.32531213  0.31618410  0.32062868  1  0.091469  0  0.123609  0.108865  0  0.954973  0
H  H77  1  0.68381547  0.00912848  0.32062844  1  0.09789  0  0.123612  0.108865  0  0.954956  0
H  H78  1  0.99087206  0.67468804  0.32062749  1  0.085137  0  0.123625  0.10887  0  0.954961  0
H  H79  1  0.31618368  0.32531140  0.17937183  1  0.091493  0  0.123605  0.108855  0  0.954976  0
H  H80  1  0.00912846  0.68381585  0.17937144  1  0.097888  0  0.123616  0.108865  0  0.95496  0
H  H81  1  0.67468788  0.99087244  0.17937272  1  0.085147  0  0.12363  0.108883  0  0.954956  0
H  H82  1  0.67468851  0.68381660  0.67937181  1  0.091488  0  0.123601  0.108853  0  0.954979  0
H  H83  1  0.31618455  0.99087159  0.67937144  1  0.097896  0  0.123616  0.108868  0  0.954967  0
H  H84  1  0.00912797  0.32531203  0.67937239  1  0.085138  0  0.12362  0.10888  0  0.954934  0
H  H85  1  0.68381670  0.67468832  0.82062805  1  0.091491  0  0.123612  0.10886  0  0.954974  0
H  H86  1  0.99087094  0.31618360  0.82062843  1  0.097882  0  0.12362  0.108865  0  0.954966  0
H  H87  1  0.32531214  0.00912764  0.82062777  1  0.085143  0  0.123625  0.108896  0  0.954923  0
H  H88  1  0.49504736  0.38867580  0.35410310  1  0.526482  0  0.316856  0.272298  0  0.99011  0
H  H89  1  0.61132485  0.10637300  0.35410274  1  0.526697  0  0.316852  0.27227  0  0.990195  0
H  H90  1  0.89362870  0.50495301  0.35410257  1  0.531158  0  0.316817  0.272194  0  0.990181  0
H  H91  1  0.38867566  0.49504766  0.14589673  1  0.526474  0  0.316826  0.272226  0  0.990154  0
H  H92  1  0.10637233  0.61132460  0.14589713  1  0.526707  0  0.316827  0.272227  0  0.990243  0
H  H93  1  0.50495263  0.89362812  0.14589710  1  0.53115  0  0.316803  0.272184  0  0.990183  0
H  H94  1  0.50495267  0.61132428  0.64589739  1  0.52648  0  0.316839  0.272233  0  0.990153  0
H  H95  1  0.38867517  0.89362708  0.64589714  1  0.526701  0  0.316827  0.272235  0  0.990207  0
H  H96  1  0.10637168  0.49504671  0.64589730  1  0.531155  0  0.316813  0.272198  0  0.990169  0
H  H97  1  0.61132400  0.50495277  0.85410315  1  0.526486  0  0.316802  0.272171  0  0.990171  0
H  H98  1  0.89362644  0.38867422  0.85410274  1  0.526696  0  0.316845  0.272269  0  0.990193  0
H  H99  1  0.49504739  0.10637196  0.85410278  1  0.531155  0  0.316825  0.272221  0  0.990164  0
C  C100  1  0.58745551  0.55089145  0.42502426  1  0.045397  0  -0.034324  -0.097743  0  4.019001  0
C  C101  1  0.44910795  0.03656800  0.42502517  1  -0.011994  0  -0.034295  -0.097573  0  4.018954  0
C  C102  1  0.96343567  0.41254399  0.42502512  1  -0.0168  0  -0.034376  -0.097797  0  4.019085  0
C  C103  1  0.55089107  0.58745488  0.07497549  1  0.045401  0  -0.034255  -0.097604  0  4.018963  0
C  C104  1  0.03656800  0.44910833  0.07497477  1  -0.012007  0  -0.034285  -0.097541  0  4.018927  0
C  C105  1  0.41254370  0.96343516  0.07497456  1  -0.016818  0  -0.034339  -0.097754  0  4.018985  0
C  C106  1  0.41254513  0.44910925  0.57497562  1  0.045374  0  -0.034299  -0.097686  0  4.01901  0
C  C107  1  0.55089109  0.96343181  0.57497410  1  -0.012006  0  -0.03434  -0.097679  0  4.019028  0
C  C108  1  0.03656435  0.58745608  0.57497476  1  -0.016763  0  -0.034326  -0.09767  0  4.019039  0
C  C109  1  0.44910931  0.41254483  0.92502438  1  0.045259  0  -0.034271  -0.097605  0  4.018972  0
C  C110  1  0.96343166  0.55089210  0.92502511  1  -0.011999  0  -0.03429  -0.097553  0  4.018942  0
C  C111  1  0.58745633  0.03656491  0.92502531  1  -0.016758  0  -0.034339  -0.097741  0  4.018989  0
C  C112  1  0.63206976  0.49461047  0.44466597  1  0.683768  0  0.106255  0.357667  0  4.086532  0
C  C113  1  0.50538692  0.13746236  0.44466435  1  0.69897  0  0.10626  0.357756  0  4.08647  0
C  C114  1  0.86254049  0.36793005  0.44466615  1  0.735994  0  0.106246  0.357631  0  4.086527  0
C  C115  1  0.49461172  0.63207005  0.05533379  1  0.683723  0  0.10621  0.357693  0  4.086396  0
C  C116  1  0.13746235  0.50538732  0.05533555  1  0.698944  0  0.106234  0.357683  0  4.08651  0
C  C117  1  0.36792940  0.86254033  0.05533296  1  0.735951  0  0.106242  0.357698  0  4.08637  0
C  C118  1  0.36792999  0.50538862  0.55533330  1  0.68378  0  0.106209  0.357621  0  4.086518  0
C  C119  1  0.49461176  0.86253781  0.55533492  1  0.69905  0  0.106284  0.357665  0  4.086538  0
C  C120  1  0.13745918  0.63207039  0.55533372  1  0.735986  0  0.10622  0.357619  0  4.086452  0
C  C121  1  0.50539026  0.36793055  0.94466609  1  0.683926  0  0.106199  0.357557  0  4.086661  0
C  C122  1  0.86253767  0.49461276  0.94466433  1  0.698939  0  0.106239  0.357696  0  4.086536  0
C  C123  1  0.63207026  0.13746011  0.94466691  1  0.735963  0  0.106255  0.357667  0  4.086437  0
C  C124  1  0.71155173  0.53595598  0.49868416  1  -0.086758  0  -0.105415  -0.228613  0  3.953265  0
C  C125  1  0.46404160  0.17559910  0.49868188  1  -0.077896  0  -0.105429  -0.228675  0  3.95338  0
C  C126  1  0.82440448  0.28844830  0.49868499  1  -0.115289  0  -0.105388  -0.228528  0  3.953303  0
C  C127  1  0.53595628  0.71155180  0.00131556  1  -0.08676  0  -0.105416  -0.228659  0  3.95329  0
C  C128  1  0.17559911  0.46404202  0.00131741  1  -0.077867  0  -0.105435  -0.228648  0  3.953312  0
C  C129  1  0.28844771  0.82440435  0.00131477  1  -0.115298  0  -0.105419  -0.228616  0  3.953218  0
C  C130  1  0.28844829  0.46404410  0.50131572  1  -0.086782  0  -0.105398  -0.228569  0  3.953294  0
C  C131  1  0.53595610  0.82440081  0.50131556  1  -0.078042  0  -0.105442  -0.228664  0  3.953419  0
C  C132  1  0.17559554  0.71155177  0.50131489  1  -0.115322  0  -0.10543  -0.228632  0  3.953232  0
C  C133  1  0.46404410  0.28844791  0.99868432  1  -0.086764  0  -0.105426  -0.228622  0  3.953307  0
C  C134  1  0.82440091  0.53595806  0.99868247  1  -0.077859  0  -0.10542  -0.228627  0  3.953355  0
C  C135  1  0.71155231  0.17559572  0.99868511  1  -0.115286  0  -0.105411  -0.22857  0  3.953157  0
C  C136  1  0.62475153  0.64453707  0.45773498  1  -0.048538  0  -0.08009  -0.077893  0  3.988435  0
C  C137  1  0.35546113  0.98021799  0.45773341  1  0.001451  0  -0.080135  -0.078069  0  3.988526  0
C  C138  1  0.01978366  0.37524530  0.45773431  1  -0.031806  0  -0.080058  -0.077826  0  3.988469  0
C  C139  1  0.64453731  0.62475154  0.04226473  1  -0.048492  0  -0.080066  -0.077882  0  3.988494  0
C  C140  1  0.98021873  0.35546165  0.04226689  1  0.001458  0  -0.080128  -0.078083  0  3.988507  0
C  C141  1  0.37524518  0.01978391  0.04226566  1  -0.031758  0  -0.080089  -0.077903  0  3.988468  0
C  C142  1  0.37524885  0.35546265  0.54226490  1  -0.048543  0  -0.080087  -0.077918  0  3.988558  0
C  C143  1  0.64453863  0.01978110  0.54226646  1  0.001464  0  -0.08009  -0.077995  0  3.988549  0
C  C144  1  0.98021636  0.62475477  0.54226557  1  -0.031785  0  -0.080077  -0.07793  0  3.988478  0
C  C145  1  0.35546271  0.37524853  0.95773514  1  -0.048504  0  -0.080112  -0.077985  0  3.988505  0
C  C146  1  0.01978129  0.64453843  0.95773299  1  0.001448  0  -0.080133  -0.07809  0  3.988514  0
C  C147  1  0.62475547  0.98021679  0.95773482  1  -0.031745  0  -0.080112  -0.077906  0  3.988456  0
C  C148  1  0.74650557  0.62803494  0.52896610  1  -0.113947  0  -0.080189  -0.035484  0  4.015801  0
C  C149  1  0.37196389  0.11847440  0.52896388  1  -0.089248  0  -0.080276  -0.035585  0  4.015953  0
C  C150  1  0.88152846  0.25349264  0.52896521  1  -0.106776  0  -0.080246  -0.035532  0  4.015923  0
C  C151  1  0.62803497  0.74650531  0.97103375  1  -0.113879  0  -0.080206  -0.035491  0  4.015865  0
C  C152  1  0.11847416  0.37196395  0.97103563  1  -0.089249  0  -0.080271  -0.035583  0  4.0159  0
C  C153  1  0.25349181  0.88152802  0.97103471  1  -0.106743  0  -0.08021  -0.035472  0  4.015809  0
C  C154  1  0.25349445  0.37196514  0.47103377  1  -0.113937  0  -0.080189  -0.035468  0  4.015765  0
C  C155  1  0.62803453  0.88152479  0.47103539  1  -0.089231  0  -0.080261  -0.035542  0  4.015847  0
C  C156  1  0.11847219  0.74650806  0.47103467  1  -0.10675  0  -0.080226  -0.035523  0  4.015826  0
C  C157  1  0.37196541  0.25349441  0.02896613  1  -0.114  0  -0.080185  -0.035452  0  4.015764  0
C  C158  1  0.88152586  0.62803612  0.02896425  1  -0.089245  0  -0.080278  -0.035607  0  4.015938  0
C  C159  1  0.74650822  0.11847206  0.02896516  1  -0.106753  0  -0.080227  -0.035534  0  4.015822  0
C  C160  1  0.70369300  0.68353350  0.50844473  1  -0.029648  0  -0.113668  -0.137442  0  4.061331  0
C  C161  1  0.31646530  0.02016398  0.50844322  1  -0.072187  0  -0.113625  -0.137377  0  4.061344  0
C  C162  1  0.97983961  0.29630454  0.50844330  1  -0.01411  0  -0.113718  -0.137536  0  4.06135  0
C  C163  1  0.68353412  0.70369333  0.99155511  1  -0.029655  0  -0.113667  -0.137445  0  4.061362  0
C  C164  1  0.02016375  0.31646535  0.99155633  1  -0.072196  0  -0.113636  -0.137382  0  4.061326  0
C  C165  1  0.29630432  0.97983980  0.99155658  1  -0.014117  0  -0.113707  -0.137513  0  4.06134  0
C  C166  1  0.29630738  0.31646622  0.49155575  1  -0.029647  0  -0.113727  -0.137539  0  4.06137  0
C  C167  1  0.68353410  0.97983547  0.49155665  1  -0.072195  0  -0.113627  -0.137378  0  4.06132  0
C  C168  1  0.02016067  0.70369652  0.49155657  1  -0.014108  0  -0.113681  -0.137471  0  4.06125  0
C  C169  1  0.31646652  0.29630737  0.00844476  1  -0.029648  0  -0.113703  -0.137499  0  4.061292  0
C  C170  1  0.97983627  0.68353473  0.00844355  1  -0.072194  0  -0.113637  -0.137375  0  4.061325  0
C  C171  1  0.70369668  0.02016054  0.00844330  1  -0.014124  0  -0.113686  -0.1375  0  4.061362  0
C  C172  1  0.50446399  0.51481241  0.37505261  1  0.516438  0  0.104102  0.136883  0  3.841362  0
C  C173  1  0.48518612  0.98965482  0.37505287  1  0.530029  0  0.104101  0.136864  0  3.841425  0
C  C174  1  0.01034619  0.49553331  0.37505120  1  0.516498  0  0.104136  0.136843  0  3.841515  0
C  C175  1  0.51481262  0.50446394  0.12494718  1  0.516429  0  0.104115  0.136801  0  3.841407  0
C  C176  1  0.98965489  0.48518599  0.12494800  1  0.530034  0  0.104089  0.13685  0  3.841335  0
C  C177  1  0.49553345  0.01034600  0.12494874  1  0.516513  0  0.104163  0.136879  0  3.841542  0
C  C178  1  0.49553603  0.48518766  0.62494727  1  0.516432  0  0.104116  0.136849  0  3.841365  0
C  C179  1  0.51481390  0.01034526  0.62494761  1  0.530037  0  0.104108  0.136917  0  3.841362  0
C  C180  1  0.98965383  0.50446677  0.62494928  1  0.516496  0  0.104161  0.136852  0  3.841535  0
C  C181  1  0.48518714  0.49553515  0.87505209  1  0.516561  0  0.104116  0.136843  0  3.841381  0
C  C182  1  0.01034513  0.51481408  0.87505249  1  0.530032  0  0.104108  0.136865  0  3.841398  0
C  C183  1  0.50446657  0.98965407  0.87505175  1  0.516473  0  0.104165  0.136897  0  3.841522  0
C  C184  1  0.37412563  0.38755891  0.29510337  1  0.296647  0  -0.045301  -0.053545  0  3.885333  0
C  C185  1  0.61244114  0.98656798  0.29510365  1  0.329725  0  -0.0453  -0.053536  0  3.885329  0
C  C186  1  0.01343318  0.62587390  0.29510366  1  0.347806  0  -0.045282  -0.053551  0  3.885286  0
C  C187  1  0.38755908  0.37412551  0.20489649  1  0.326276  0  -0.045312  -0.053553  0  3.885402  0
C  C188  1  0.98656802  0.61244100  0.20489657  1  0.329724  0  -0.045291  -0.053526  0  3.885351  0
C  C189  1  0.62587360  0.01343328  0.20489624  1  0.347809  0  -0.045294  -0.053571  0  3.885262  0
C  C190  1  0.62587439  0.61244116  0.70489651  1  0.296482  0  -0.045288  -0.053577  0  3.885348  0
C  C191  1  0.38755950  0.01343272  0.70489683  1  0.329735  0  -0.045323  -0.053559  0  3.885379  0
C  C192  1  0.98656685  0.37412618  0.70489622  1  0.347812  0  -0.045287  -0.053567  0  3.885268  0
C  C193  1  0.61244094  0.62587457  0.79510338  1  0.326278  0  -0.045247  -0.053466  0  3.885228  0
C  C194  1  0.01343200  0.38755907  0.79510391  1  0.329732  0  -0.045309  -0.053522  0  3.885393  0
C  C195  1  0.37412642  0.98656679  0.79510363  1  0.347801  0  -0.045299  -0.053588  0  3.885244  0
N  N196  1  0.46269852  0.42920493  0.34163110  1  -1.249994  0  -0.372797  -0.167961  0  3.616045  0
N  N197  1  0.57079585  0.03349591  0.34163204  1  -1.244268  0  -0.372784  -0.167913  0  3.616146  0
N  N198  1  0.96650824  0.53730052  0.34163245  1  -1.255752  0  -0.372779  -0.167759  0  3.616104  0
N  N199  1  0.42920415  0.46269818  0.15836872  1  -1.249984  0  -0.372751  -0.167805  0  3.61608  0
N  N200  1  0.03349526  0.57079559  0.15836848  1  -1.244282  0  -0.37278  -0.167903  0  3.616138  0
N  N201  1  0.53730014  0.96650767  0.15836780  1  -1.255767  0  -0.372782  -0.167775  0  3.616103  0
N  N202  1  0.53730213  0.57079577  0.65836877  1  -1.249993  0  -0.372788  -0.167843  0  3.615999  0
N  N203  1  0.42920381  0.96650452  0.65836844  1  -1.244285  0  -0.372777  -0.167899  0  3.616076  0
N  N204  1  0.03349178  0.46269955  0.65836803  1  -1.255755  0  -0.372779  -0.167777  0  3.616107  0
N  N205  1  0.57079489  0.53730164  0.84163116  1  -1.250108  0  -0.372775  -0.167808  0  3.61591  0
N  N206  1  0.96650440  0.42920484  0.84163201  1  -1.244266  0  -0.372775  -0.167914  0  3.616142  0
N  N207  1  0.46269952  0.03349277  0.84163269  1  -1.255771  0  -0.372814  -0.167849  0  3.616111  0
N  N208  1  0.48607234  0.20855639  0.23819062  1  0.830928  0  0.087558  0.729161  0  4.412235  0
N  N209  1  0.79144168  0.27751319  0.23819192  1  0.833801  0  0.08766  0.729191  0  4.412362  0
N  N210  1  0.72249207  0.51392975  0.23819233  1  0.824358  0  0.087707  0.729214  0  4.412404  0
N  N211  1  0.20855980  0.48607401  0.26181047  1  0.831037  0  0.087633  0.729088  0  4.412426  0
N  N212  1  0.27751341  0.79144164  0.26180846  1  0.83383  0  0.087658  0.729199  0  4.412353  0
N  N213  1  0.51392928  0.72249136  0.26180861  1  0.824367  0  0.08766  0.729153  0  4.41248  0
N  N214  1  0.51392591  0.79144047  0.76181047  1  0.831026  0  0.087622  0.729098  0  4.412502  0
N  N215  1  0.20855835  0.72248688  0.76180857  1  0.833842  0  0.087654  0.729194  0  4.412376  0
N  N216  1  0.27750796  0.48607032  0.76180816  1  0.824363  0  0.087679  0.729157  0  4.412459  0
N  N217  1  0.79144182  0.51392695  0.73818940  1  0.830924  0  0.087641  0.7292  0  4.412411  0
N  N218  1  0.72248661  0.20855843  0.73819142  1  0.833806  0  0.087659  0.729196  0  4.412417  0
N  N219  1  0.48607012  0.27750809  0.73819187  1  0.824358  0  0.087681  0.729189  0  4.412397  0
O  O220  1  0.59986445  0.40859002  0.41390349  1  -1.20296  0  -0.429272  -0.647926  0  2.330505  0
O  O221  1  0.59141036  0.19127732  0.41390364  1  -1.201414  0  -0.429263  -0.64798  0  2.330437  0
O  O222  1  0.80872566  0.40013603  0.41390419  1  -1.200241  0  -0.429267  -0.64793  0  2.330559  0
O  O223  1  0.40859065  0.59986409  0.08609691  1  -1.202912  0  -0.429288  -0.647992  0  2.3304  0
O  O224  1  0.19127667  0.59141013  0.08609621  1  -1.201415  0  -0.429267  -0.647972  0  2.330465  0
O  O225  1  0.40013660  0.80872671  0.08609554  1  -1.200223  0  -0.429287  -0.647978  0  2.330494  0
O  O226  1  0.40013594  0.59140970  0.58609699  1  -1.202915  0  -0.429264  -0.647911  0  2.330432  0
O  O227  1  0.40858832  0.80872285  0.58609563  1  -1.201444  0  -0.429286  -0.647931  0  2.330461  0
O  O228  1  0.19127311  0.59986279  0.58609569  1  -1.200226  0  -0.429279  -0.647931  0  2.330475  0
O  O229  1  0.59141071  0.40013588  0.91390297  1  -1.202975  0  -0.429273  -0.647898  0  2.330507  0
O  O230  1  0.80872237  0.40858968  0.91390366  1  -1.201416  0  -0.429257  -0.647955  0  2.330432  0
O  O231  1  0.59986368  0.19127435  0.91390434  1  -1.200242  0  -0.429275  -0.647954  0  2.330535  0
O  O232  1  0.48559185  0.25708177  0.30002060  1  -0.582916  0  -0.237103  -0.512075  0  2.027963  0
O  O233  1  0.74292218  0.22851236  0.30002620  1  -0.585481  0  -0.237181  -0.512134  0  2.028014  0
O  O234  1  0.77148857  0.51440733  0.30002844  1  -0.585072  0  -0.237245  -0.512278  0  2.028156  0
O  O235  1  0.25708252  0.48559374  0.19997865  1  -0.582947  0  -0.237125  -0.512071  0  2.028021  0
O  O236  1  0.22851227  0.74292254  0.19997421  1  -0.585499  0  -0.237153  -0.512112  0  2.027986  0
O  O237  1  0.51440753  0.77148854  0.19997188  1  -0.585046  0  -0.237227  -0.512209  0  2.028091  0
O  O238  1  0.51440657  0.74291742  0.69997866  1  -0.58295  0  -0.237119  -0.512057  0  2.028008  0
O  O239  1  0.25707748  0.77148808  0.69997428  1  -0.585498  0  -0.237165  -0.512132  0  2.027983  0
O  O240  1  0.22851145  0.48559275  0.69997205  1  -0.585056  0  -0.23723  -0.51224  0  2.028168  0
O  O241  1  0.74291678  0.51440705  0.80001940  1  -0.582904  0  -0.237148  -0.51214  0  2.027992  0
O  O242  1  0.77148775  0.25707753  0.80002628  1  -0.585477  0  -0.237187  -0.512146  0  2.02798  0
O  O243  1  0.48559250  0.22851154  0.80002800  1  -0.585053  0  -0.237221  -0.512253  0  2.028149  0
O  O244  1  0.56654158  0.21211902  0.22219825  1  -0.591916  0  -0.247932  -0.53164  0  1.999566  0
O  O245  1  0.78788064  0.35442131  0.22219885  1  -0.595894  0  -0.247954  -0.531678  0  1.999608  0
O  O246  1  0.64558078  0.43346461  0.22219934  1  -0.588213  0  -0.247991  -0.531606  0  1.999473  0
O  O247  1  0.21212073  0.56654372  0.27780161  1  -0.591956  0  -0.248003  -0.531684  0  1.999608  0
O  O248  1  0.35442114  0.78788095  0.27780151  1  -0.595893  0  -0.247959  -0.531683  0  1.999605  0
O  O249  1  0.43346414  0.64558006  0.27780043  1  -0.588235  0  -0.247978  -0.531598  0  1.999562  0
O  O250  1  0.43345719  0.78787981  0.77780163  1  -0.591943  0  -0.247999  -0.531726  0  1.999695  0
O  O251  1  0.21211938  0.64557877  0.77780164  1  -0.595901  0  -0.247965  -0.531681  0  1.99957  0
O  O252  1  0.35441960  0.56653511  0.77780054  1  -0.588214  0  -0.247993  -0.531584  0  1.999479  0
O  O253  1  0.78787992  0.43345698  0.72219766  1  -0.59195  0  -0.247988  -0.531715  0  1.999625  0
O  O254  1  0.64557888  0.21211913  0.72219837  1  -0.595895  0  -0.247962  -0.531687  0  1.999593  0
O  O255  1  0.56653562  0.35441904  0.72219945  1  -0.588217  0  -0.247995  -0.531609  0  1.9995  0
O  O256  1  0.41364322  0.16137915  0.19602960  1  -0.482611  0  -0.151469  -0.382204  0  1.925634  0
O  O257  1  0.83861084  0.25225694  0.19602668  1  -0.479834  0  -0.151456  -0.382118  0  1.925691  0
O  O258  1  0.74775518  0.58635643  0.19602640  1  -0.477043  0  -0.151416  -0.382098  0  1.925831  0
O  O259  1  0.16138870  0.41364741  0.30397457  1  -0.482655  0  -0.151452  -0.382093  0  1.92577  0
O  O260  1  0.25225617  0.83861054  0.30397369  1  -0.479857  0  -0.151473  -0.38214  0  1.925661  0
O  O261  1  0.58635654  0.74775507  0.30397390  1  -0.477054  0  -0.151393  -0.382092  0  1.925823  0
O  O262  1  0.58635283  0.83861119  0.80397392  1  -0.482655  0  -0.151451  -0.382084  0  1.925779  0
O  O263  1  0.16138882  0.74774350  0.80397381  1  -0.479868  0  -0.151452  -0.38212  0  1.925762  0
O  O264  1  0.25224520  0.41364329  0.80397408  1  -0.477068  0  -0.151405  -0.382092  0  1.925819  0
O  O265  1  0.83861453  0.58635444  0.69602713  1  -0.482594  0  -0.15144  -0.382109  0  1.925798  0
O  O266  1  0.74774385  0.16138954  0.69602618  1  -0.47985  0  -0.151447  -0.382125  0  1.925804  0
O  O267  1  0.41364348  0.25224501  0.69602598  1  -0.477064  0  -0.151401  -0.382091  0  1.925806  0
