# generated using pymatgen
data_AlAgH16C28(NO)4
_symmetry_space_group_name_H-M   'P 1'
_cell_length_a   6.89945788
_cell_length_b   6.90013638
_cell_length_c   13.93097702
_cell_angle_alpha   104.21352991
_cell_angle_beta   104.27472085
_cell_angle_gamma   89.93722235
_symmetry_Int_Tables_number   1
_chemical_formula_structural   AlAgH16C28(NO)4
_chemical_formula_sum   'Al1 Ag1 H16 C28 N4 O4'
_cell_volume   621.81328525
_cell_formula_units_Z   1
loop_
 _symmetry_equiv_pos_site_id
 _symmetry_equiv_pos_as_xyz
  1  'x, y, z'
loop_
 _atom_site_type_symbol
 _atom_site_label
 _atom_site_symmetry_multiplicity
 _atom_site_fract_x
 _atom_site_fract_y
 _atom_site_fract_z
 _atom_site_occupancy
 _atom_site_hle17_bader_spin_density
 _atom_site_hle17_ddec_charge
 _atom_site_hle17_ddec_spin_density
 _atom_site_hle17_ddec_sum_bond_order
 _atom_site_hle17_magmom
 _atom_site_hse06_10hf_bader_spin_density
 _atom_site_hse06_10hf_ddec_charge
 _atom_site_hse06_10hf_ddec_spin_density
 _atom_site_hse06_10hf_ddec_sum_bond_order
 _atom_site_hse06_10hf_magmom
 _atom_site_hse06_bader_spin_density
 _atom_site_hse06_ddec_charge
 _atom_site_hse06_ddec_spin_density
 _atom_site_hse06_ddec_sum_bond_order
 _atom_site_hse06_magmom
 _atom_site_pbe_bader_spin_density
 _atom_site_pbe_cm5_charge
 _atom_site_pbe_ddec_charge
 _atom_site_pbe_ddec_spin_density
 _atom_site_pbe_ddec_sum_bond_order
 _atom_site_pbe_magmom
Al  Al0  1  0.49918939  0.50066126  0.99997328  1  0  1.72668  0  2.360897  0  0  1.563691  0  2.758314  0  0  1.598643  0  2.706598  0  0  0.483944  1.539121  0  2.792568  0
Ag  Ag1  1  0.25183071  0.74998558  0.50021106  1  0  0.666731  0  1.663007  0  0  0.556783  0  2.166801  0  0  0.570165  0  2.121325  0  0  0.569187  0.549098  0  2.19737  0
H  H2  1  0.93543958  0.72167516  0.97604999  1  0  0.12228  0  0.941642  0  0  0.133105  0  1.000089  0  0  0.13651  0  0.999185  0  0  0.11101  0.130705  0  1.000877  0
H  H3  1  0.04024169  0.25766892  0.97626979  1  0  0.12094  0  0.943631  0  0  0.131678  0  1.002223  0  0  0.13505  0  1.001366  0  0  0.110524  0.129275  0  1.003003  0
H  H4  1  0.74254692  0.06452935  0.02397997  1  0  0.122358  0  0.941381  0  0  0.133038  0  0.999965  0  0  0.136445  0  0.999067  0  0  0.111293  0.130624  0  1.000769  0
H  H5  1  0.27765262  0.96016253  0.02368774  1  0  0.120369  0  0.943545  0  0  0.131268  0  1.002124  0  0  0.134638  0  1.001258  0  0  0.110225  0.128866  0  1.002914  0
H  H6  1  0.14217666  0.69977019  0.85103086  1  0  0.101242  0  0.947555  0  0  0.110114  0  1.010858  0  0  0.113787  0  1.007795  0  0  0.109946  0.107307  0  1.013329  0
H  H7  1  0.70889162  0.15478285  0.85182736  1  0  0.100282  0  0.947168  0  0  0.109278  0  1.010602  0  0  0.113079  0  1.007238  0  0  0.109197  0.106422  0  1.013186  0
H  H8  1  0.84661221  0.85744936  0.14879679  1  0  0.101577  0  0.947356  0  0  0.110547  0  1.010527  0  0  0.114223  0  1.007448  0  0  0.109925  0.107719  0  1.01304  0
H  H9  1  0.30040247  0.29146041  0.14843720  1  0  0.100173  0  0.94758  0  0  0.109118  0  1.010932  0  0  0.112894  0  1.007595  0  0  0.10927  0.106291  0  1.013444  0
H  H10  1  0.60721663  0.53322333  0.60159586  1  0  0.097877  0  0.96024  0  0  0.106349  0  1.025543  0  0  0.10949  0  1.023001  0  0  0.101759  0.104108  0  1.02731  0
H  H11  1  0.99501430  0.06425554  0.60177446  1  0  0.097173  0  0.962724  0  0  0.105352  0  1.028332  0  0  0.108548  0  1.025706  0  0  0.101739  0.103111  0  1.030102  0
H  H12  1  0.93475392  0.39253373  0.39833888  1  0  0.098481  0  0.960538  0  0  0.107099  0  1.025487  0  0  0.110265  0  1.022924  0  0  0.102541  0.104781  0  1.027343  0
H  H13  1  0.46629650  0.00512216  0.39824427  1  0  0.096899  0  0.961624  0  0  0.104878  0  1.027431  0  0  0.108107  0  1.024757  0  0  0.101302  0.102593  0  1.029258  0
H  H14  1  0.40229322  0.56060745  0.72748712  1  0  0.112864  0  0.968749  0  0  0.122913  0  1.030401  0  0  0.125563  0  1.030516  0  0  0.102658  0.121009  0  1.03054  0
H  H15  1  0.32532909  0.16423098  0.72706036  1  0  0.112871  0  0.968903  0  0  0.122604  0  1.030832  0  0  0.125307  0  1.030896  0  0  0.103137  0.120656  0  1.031008  0
H  H16  1  0.83536694  0.59770196  0.27255123  1  0  0.112403  0  0.968727  0  0  0.122561  0  1.030353  0  0  0.125209  0  1.030474  0  0  0.10271  0.120667  0  1.030461  0
H  H17  1  0.43842467  0.67474553  0.27274472  1  0  0.113291  0  0.968634  0  0  0.123288  0  1.030277  0  0  0.125954  0  1.03038  0  0  0.10315  0.121374  0  1.030421  0
C  C18  1  0.65477557  0.64582929  0.85976638  1  0  0.402556  0  3.837955  0  0  0.392581  0  4.089167  0  0  0.408076  0  4.102153  0  0  0.113859  0.381926  0  4.08039  0
C  C19  1  0.20484925  0.21501239  0.85966735  1  0  0.398998  0  3.838498  0  0  0.388521  0  4.090404  0  0  0.40405  0  4.103331  0  0  0.109083  0.377871  0  4.08161  0
C  C20  1  0.78519131  0.34515390  0.14026480  1  0  0.402323  0  3.838824  0  0  0.392723  0  4.089713  0  0  0.408204  0  4.102719  0  0  0.113628  0.382115  0  4.080868  0
C  C21  1  0.35392764  0.79540057  0.14020149  1  0  0.398383  0  3.838579  0  0  0.388926  0  4.089298  0  0  0.40449  0  4.102192  0  0  0.111047  0.378271  0  4.080513  0
C  C22  1  0.86453874  0.68462909  0.89419280  1  0  -0.200736  0  3.714779  0  0  -0.220492  0  3.969989  0  0  -0.229296  0  3.990641  0  0  -0.095753  -0.214847  0  3.956326  0
C  C23  1  0.02949301  0.21153861  0.89439646  1  0  -0.197744  0  3.714984  0  0  -0.217259  0  3.969947  0  0  -0.226039  0  3.990565  0  0  -0.093668  -0.211592  0  3.956231  0
C  C24  1  0.78873119  0.13531608  0.10580361  1  0  -0.201543  0  3.716524  0  0  -0.221182  0  3.971571  0  0  -0.229996  0  3.992242  0  0  -0.096692  -0.215543  0  3.957905  0
C  C25  1  0.31511670  0.97084791  0.10560540  1  0  -0.197889  0  3.71611  0  0  -0.217869  0  3.970933  0  0  -0.226648  0  3.991553  0  0  -0.094784  -0.212231  0  3.957265  0
C  C26  1  0.97994313  0.67020313  0.82452962  1  0  -0.047179  0  3.737942  0  0  -0.071411  0  3.989601  0  0  -0.068567  0  4.009705  0  0  -0.070463  -0.072964  0  3.976112  0
C  C27  1  0.84460627  0.15611686  0.82501249  1  0  -0.046102  0  3.735588  0  0  -0.070251  0  3.987233  0  0  -0.067295  0  4.007236  0  0  -0.068761  -0.071795  0  3.97372  0
C  C28  1  0.84451091  0.01973166  0.17540483  1  0  -0.048544  0  3.738215  0  0  -0.07275  0  3.989824  0  0  -0.069915  0  4.009916  0  0  -0.07093  -0.074293  0  3.976349  0
C  C29  1  0.32980227  0.15568725  0.17507288  1  0  -0.044981  0  3.735916  0  0  -0.069134  0  3.987329  0  0  -0.066239  0  4.007389  0  0  -0.068097  -0.070666  0  3.973865  0
C  C30  1  0.88756653  0.61594500  0.71856999  1  0  -0.03375  0  3.929318  0  0  -0.01132  0  4.160407  0  0  -0.01927  0  4.185656  0  0  -0.018931  -0.006076  0  4.14332  0
C  C31  1  0.83129357  0.10246597  0.71902349  1  0  -0.036672  0  3.929306  0  0  -0.014799  0  4.160818  0  0  -0.023343  0  4.187161  0  0  -0.021583  -0.009551  0  4.143774  0
C  C32  1  0.89779076  0.11202334  0.28135013  1  0  -0.03163  0  3.92858  0  0  -0.009714  0  4.160461  0  0  -0.017644  0  4.185673  0  0  -0.018014  -0.004519  0  4.143434  0
C  C33  1  0.38409376  0.16883896  0.28108774  1  0  -0.035195  0  3.929463  0  0  -0.012944  0  4.160344  0  0  -0.021209  0  4.18625  0  0  -0.020588  -0.007766  0  4.143341  0
C  C34  1  0.67799491  0.57624506  0.68358591  1  0  -0.065209  0  3.767258  0  0  -0.088647  0  4.017384  0  0  -0.08634  0  4.037596  0  0  -0.080319  -0.089756  0  4.003401  0
C  C35  1  0.00594076  0.10549846  0.68376948  1  0  -0.06146  0  3.767253  0  0  -0.0841  0  4.016588  0  0  -0.081786  0  4.036872  0  0  -0.076984  -0.085208  0  4.002591  0
C  C36  1  0.89432013  0.32170888  0.31637112  1  0  -0.065352  0  3.766171  0  0  -0.088596  0  4.015829  0  0  -0.086341  0  4.036112  0  0  -0.080529  -0.089614  0  4.001859  0
C  C37  1  0.42339613  0.99418786  0.31623654  1  0  -0.060779  0  3.768631  0  0  -0.083341  0  4.018192  0  0  -0.081105  0  4.038448  0  0  -0.077083  -0.084405  0  4.004244  0
C  C38  1  0.56384828  0.59202026  0.75368659  1  0  -0.200166  0  3.727565  0  0  -0.218684  0  3.97769  0  0  -0.22763  0  3.999257  0  0  -0.102508  -0.212865  0  3.963273  0
C  C39  1  0.18996963  0.16042636  0.75355511  1  0  -0.200669  0  3.725016  0  0  -0.219047  0  3.975486  0  0  -0.228032  0  3.99698  0  0  -0.104335  -0.213194  0  3.961098  0
C  C40  1  0.83951300  0.43603084  0.24633122  1  0  -0.199457  0  3.725122  0  0  -0.218254  0  3.975373  0  0  -0.227215  0  3.996987  0  0  -0.10289  -0.21241  0  3.960864  0
C  C41  1  0.40743856  0.81013205  0.24637006  1  0  -0.201845  0  3.725409  0  0  -0.220762  0  3.975669  0  0  -0.22971  0  3.997195  0  0  -0.104101  -0.21494  0  3.961265  0
C  C42  1  0.00347225  0.60272364  0.64707118  1  0  0.322721  0  3.758268  0  0  0.307723  0  4.01665  0  0  0.321792  0  4.034616  0  0  0.207195  0.298091  0  4.004697  0
C  C43  1  0.64435420  0.04386393  0.64768299  1  0  0.325392  0  3.755043  0  0  0.310717  0  4.013218  0  0  0.324927  0  4.031028  0  0  0.210531  0.301045  0  4.001298  0
C  C44  1  0.95626713  0.99600224  0.35280143  1  0  0.321939  0  3.758912  0  0  0.307131  0  4.017155  0  0  0.321221  0  4.035077  0  0  0.208469  0.297489  0  4.005246  0
C  C45  1  0.39742336  0.35583272  0.35252375  1  0  0.323875  0  3.755892  0  0  0.308982  0  4.014231  0  0  0.323112  0  4.032129  0  0  0.209236  0.299336  0  4.002332  0
N  N46  1  0.09990678  0.59196291  0.58781971  1  0  -0.466027  0  2.876484  0  0  -0.42066  0  3.167816  0  0  -0.434279  0  3.170594  0  0  -0.349681  -0.411797  0  3.166136  0
N  N47  1  0.48925389  0.99493723  0.58834515  1  0  -0.467959  0  2.879217  0  0  -0.422472  0  3.171183  0  0  -0.436069  0  3.173674  0  0  -0.353142  -0.413582  0  3.169573  0
N  N48  1  0.00495643  0.89952300  0.41206643  1  0  -0.466416  0  2.877645  0  0  -0.421024  0  3.168895  0  0  -0.43466  0  3.171661  0  0  -0.351617  -0.412139  0  3.167218  0
N  N49  1  0.40827022  0.51095372  0.41189424  1  0  -0.467697  0  2.878526  0  0  -0.422289  0  3.170264  0  0  -0.435915  0  3.172917  0  0  -0.352091  -0.413431  0  3.16864  0
O  O50  1  0.54053274  0.66091202  0.92593936  1  0  -0.745418  0  2.099754  0  0  -0.672497  0  2.339315  0  0  -0.692768  0  2.325232  0  0  -0.292175  -0.65771  0  2.348703  0
O  O51  1  0.38500921  0.26697516  0.92555088  1  0  -0.742943  0  2.100731  0  0  -0.669556  0  2.340307  0  0  -0.689871  0  2.326244  0  0  -0.288931  -0.654663  0  2.349515  0
O  O52  1  0.73313761  0.45955018  0.07418710  1  0  -0.744245  0  2.100855  0  0  -0.671866  0  2.340962  0  0  -0.692129  0  2.326889  0  0  -0.291412  -0.657105  0  2.350377  0
O  O53  1  0.33909003  0.61519915  0.07420767  1  0  -0.743068  0  2.100264  0  0  -0.670051  0  2.339222  0  0  -0.690436  0  2.325141  0  0  -0.290501  -0.655213  0  2.348549  0
