# generated using pymatgen
data_Zr6H37C52N7O32
_symmetry_space_group_name_H-M   'P 1'
_cell_length_a   14.77771670
_cell_length_b   14.77643264
_cell_length_c   14.78574685
_cell_angle_alpha   60.11167678
_cell_angle_beta   60.02513900
_cell_angle_gamma   60.09333649
_symmetry_Int_Tables_number   1
_chemical_formula_structural   Zr6H37C52N7O32
_chemical_formula_sum   'Zr6 H37 C52 N7 O32'
_cell_volume   2286.96244993
_cell_formula_units_Z   1
loop_
 _symmetry_equiv_pos_site_id
 _symmetry_equiv_pos_as_xyz
  1  'x, y, z'
loop_
 _atom_site_type_symbol
 _atom_site_label
 _atom_site_symmetry_multiplicity
 _atom_site_fract_x
 _atom_site_fract_y
 _atom_site_fract_z
 _atom_site_occupancy
 _atom_site_pbe_bader_charge
 _atom_site_pbe_bader_spin_density
 _atom_site_pbe_cm5_charge
 _atom_site_pbe_ddec_charge
 _atom_site_pbe_ddec_spin_density
 _atom_site_pbe_ddec_sum_bond_order
 _atom_site_pbe_magmom
Zr  Zr0  1  0.87585077  0.88266629  0.62106325  1  2.636217  0  1.629892  2.372035  0  2.753935  0
Zr  Zr1  1  0.11622253  0.11898285  0.38441390  1  2.625936  0  1.624011  2.358986  0  2.794274  0
Zr  Zr2  1  0.11438074  0.88130895  0.62268866  1  2.63013  0  1.624269  2.367741  0  2.761793  0
Zr  Zr3  1  0.87680960  0.12171345  0.38212561  1  2.634788  0  1.631825  2.372039  0  2.758283  0
Zr  Zr4  1  0.11594658  0.88302847  0.38196519  1  2.632077  0  1.626372  2.366927  0  2.7714  0
Zr  Zr5  1  0.87722598  0.12193830  0.62059366  1  2.633885  0  1.625301  2.366848  0  2.767566  0
H  H6  1  0.09074175  0.71952055  0.59456891  1  0.641618  0  0.330979  0.42223  0  0.860699  0
H  H7  1  0.09311158  0.09431022  0.21989609  1  0.619561  0  0.332144  0.424625  0  0.857724  0
H  H8  1  0.09054929  0.09464455  0.59759137  1  0.594611  0  0.332411  0.42671  0  0.850808  0
H  H9  1  0.71396910  0.09673306  0.59562363  1  0.604435  0  0.332529  0.42474  0  0.854088  0
H  H10  1  0.82716699  0.61102606  0.61737673  1  0.091793  0  0.105784  0.113838  0  1.001198  0
H  H11  1  0.14537047  0.58822529  0.36199889  1  0.094066  0  0.105938  0.118796  0  1.009602  0
H  H12  1  0.83501471  0.43912518  0.61283475  1  0.049051  0  0.10664  0.110569  0  0.997593  0
H  H13  1  0.58458773  0.85085489  0.92447987  1  0.09165  0  0.103602  0.113626  0  1.005428  0
H  H14  1  0.59700566  0.13630019  0.92224117  1  0.088167  0  0.103367  0.115244  0  1.016202  0
H  H15  1  0.41490043  0.85666915  0.09418558  1  0.077917  0  0.102388  0.104954  0  1.006968  0
H  H16  1  0.13968970  0.85164240  0.08733950  1  0.073762  0  0.102253  0.111914  0  1.007367  0
H  H17  1  0.83470871  0.12503648  0.11236086  1  0.09939  0  0.111059  0.124322  0  0.997885  0
H  H18  1  0.13283620  0.85754881  0.91817648  1  0.097621  0  0.103693  0.107958  0  1.006565  0
H  H19  1  0.58212672  0.42381424  0.64551565  1  0.079039  0  0.100202  0.108121  0  1.011483  0
H  H20  1  0.59474839  0.41922075  0.35129694  1  0.051224  0  0.108931  0.123766  0  0.999456  0
H  H21  1  0.41055455  0.59136348  0.64121716  1  0.069903  0  0.10327  0.10664  0  1.00504  0
H  H22  1  0.97868535  0.57591712  0.74220730  1  0.081619  0  0.092403  0.09625  0  1.058548  0
H  H23  1  0.96652470  0.41439351  0.74649873  1  0.061733  0  0.088363  0.087625  0  1.038198  0
H  H24  1  0.96789818  0.24498946  0.08125320  1  0.070511  0  0.09205  0.096824  0  1.067948  0
H  H25  1  0.96158019  0.24691700  0.91814620  1  0.033714  0  0.086688  0.082798  0  1.050827  0
H  H26  1  0.58527795  0.14085003  0.34786039  1  0.07511  0  0.100625  0.110394  0  1.010363  0
H  H27  1  0.59450736  0.85153888  0.63810991  1  0.101444  0  0.108218  0.121851  0  1.003495  0
H  H28  1  0.41529263  0.13357123  0.35522993  1  0.086462  0  0.098897  0.100656  0  1.016161  0
H  H29  1  0.18726290  0.33167496  0.35044765  1  0.484226  0  0.301222  0.305476  0  0.992204  0
H  H30  1  0.24477929  0.42866198  0.31152305  1  0.418848  0  0.309282  0.300644  0  0.940907  0
H  H31  1  0.34874219  0.17103084  0.15851748  1  0.500964  0  0.302593  0.310751  0  0.993062  0
H  H32  1  0.45339761  0.22474435  0.05042865  1  0.425799  0  0.311107  0.302476  0  0.941706  0
H  H33  1  0.81253622  0.16313908  0.86229418  1  0.487093  0  0.304446  0.313129  0  0.988115  0
H  H34  1  0.76040796  0.21370945  0.96975927  1  0.439795  0  0.312894  0.304622  0  0.938724  0
H  H35  1  0.35787343  0.66689317  0.31704824  1  0.50346  0  0.302487  0.310648  0  0.992506  0
H  H36  1  0.47153673  0.56842611  0.25868216  1  0.431294  0  0.311837  0.304202  0  0.938612  0
H  H37  1  0.35547899  0.81625602  0.66536746  1  0.491356  0  0.305774  0.315366  0  0.986298  0
H  H38  1  0.46630908  0.76188844  0.71271407  1  0.420944  0  0.314998  0.307588  0  0.937751  0
H  H39  1  0.05473413  0.41787749  0.23068196  1  0.471324  0  0.294612  0.298412  0  0.995053  0
H  H40  1  0.08106785  0.53866727  0.14766022  1  0.422987  0  0.296082  0.280542  0  0.984028  0
H  H41  1  0.03866477  0.74015671  0.92204959  1  0.466082  0  0.295703  0.301375  0  0.99031  0
H  H42  1  0.99388560  0.69173976  0.06312924  1  0.449294  0  0.303735  0.293524  0  0.949751  0
C  C43  1  0.98966944  0.70537413  0.49443835  1  1.555992  0  0.239386  0.641241  0  4.087854  0
C  C44  1  0.30739323  0.99848425  0.20154156  1  1.494059  0  0.232072  0.649844  0  4.081138  0
C  C45  1  0.99526309  0.31163209  0.49494633  1  1.538432  0  0.231544  0.647006  0  4.091352  0
C  C46  1  0.69758103  0.99706575  0.81005327  1  1.54179  0  0.238749  0.644711  0  4.078557  0
C  C47  1  0.99280458  0.69894724  0.80804803  1  1.507895  0  0.237177  0.665712  0  4.070982  0
C  C48  1  0.69687548  0.99939019  0.49552502  1  1.559628  0  0.239775  0.644891  0  4.081579  0
C  C49  1  0.99386626  0.30789060  0.20020360  1  1.509427  0  0.238748  0.674864  0  4.050546  0
C  C50  1  0.30548513  0.99491624  0.50101134  1  1.513225  0  0.230684  0.650581  0  4.0806  0
C  C51  1  0.30459502  0.69931817  0.49814709  1  1.511503  0  0.232371  0.650749  0  4.079978  0
C  C52  1  0.98784366  0.99727408  0.81427177  1  1.501835  0  0.229815  0.643964  0  4.092915  0
C  C53  1  0.69752981  0.31045507  0.49905179  1  1.546797  0  0.240176  0.645785  0  4.076889  0
C  C54  1  0.99233277  0.99396148  0.20418042  1  1.554451  0  0.240145  0.643615  0  4.082513  0
C  C55  1  0.99441531  0.41571414  0.48734351  1  0.020848  0  -0.029067  -0.168129  0  3.919698  0
C  C56  1  0.98730652  0.60785854  0.48988944  1  -0.064046  0  -0.012408  -0.007566  0  3.996584  0
C  C57  1  0.08416429  0.45789716  0.41346732  1  0.449808  0  0.109971  0.305538  0  4.050963  0
C  C58  1  0.89752736  0.56791430  0.56101800  1  0.012422  0  -0.09861  -0.134712  0  4.013715  0
C  C59  1  0.07754665  0.55470374  0.41673849  1  -0.05206  0  -0.095271  -0.216587  0  3.931342  0
C  C60  1  0.90237089  0.47322837  0.55845220  1  -0.006913  0  -0.081977  -0.0707  0  4.015503  0
C  C61  1  0.40978717  0.99869691  0.10429832  1  -0.020152  0  -0.030404  -0.169496  0  3.913199  0
C  C62  1  0.59935028  0.99475132  0.91374494  1  -0.011896  0  -0.015049  -0.009983  0  4.003256  0
C  C63  1  0.46136161  0.07986361  0.05618180  1  0.43534  0  0.114668  0.313421  0  4.059594  0
C  C64  1  0.54962684  0.91368784  0.96192920  1  0.007749  0  -0.105197  -0.143251  0  4.022776  0
C  C65  1  0.55632731  0.07517671  0.96063021  1  -0.03328  0  -0.095965  -0.216191  0  3.929134  0
C  C66  1  0.45639326  0.91708637  0.05559691  1  -0.016173  0  -0.08604  -0.072214  0  4.030479  0
C  C67  1  0.98130277  0.99445902  0.91870558  1  0.00348  0  -0.032445  -0.174663  0  3.92215  0
C  C68  1  0.98699335  0.98939864  0.10831917  1  -0.098187  0  -0.013846  -0.009475  0  3.998776  0
C  C69  1  0.89415712  0.07186645  0.97386141  1  0.438262  0  0.114336  0.308111  0  4.068061  0
C  C70  1  0.07165138  0.91137312  0.05560624  1  0.034764  0  -0.105644  -0.143474  0  4.022087  0
C  C71  1  0.89942893  0.06624787  0.06928799  1  0.001129  0  -0.091745  -0.213118  0  3.925411  0
C  C72  1  0.06735852  0.91502593  0.96244857  1  -0.046359  0  -0.088112  -0.075279  0  4.026507  0
C  C73  1  0.40580036  0.60067035  0.49450087  1  -0.045304  0  -0.029887  -0.169879  0  3.913088  0
C  C74  1  0.59759399  0.41249204  0.49769626  1  0.031352  0  -0.014292  -0.008054  0  3.999518  0
C  C75  1  0.45802863  0.55264475  0.40974974  1  0.461169  0  0.113039  0.311883  0  4.059525  0
C  C76  1  0.54680854  0.46030806  0.58076184  1  -0.063273  0  -0.10662  -0.145636  0  4.028102  0
C  C77  1  0.55391419  0.45820831  0.41424624  1  0.008389  0  -0.094725  -0.216383  0  3.921632  0
C  C78  1  0.45237393  0.55266068  0.57794659  1  -0.002952  0  -0.085622  -0.070421  0  4.026433  0
C  C79  1  0.99743359  0.59612332  0.90556383  1  0.059639  0  -0.03028  -0.203014  0  3.937556  0
C  C80  1  0.98392285  0.50450096  0.90895672  1  -0.03954  0  -0.012817  0.058991  0  3.995474  0
C  C81  1  0.01593960  0.59030426  0.99241722  1  0.418847  0  0.09737  0.197006  0  4.039005  0
C  C82  1  0.97789758  0.50347268  0.81658237  1  -0.058394  0  -0.106199  -0.141649  0  4.000514  0
C  C83  1  0.96988594  0.41289973  0.81923853  1  -0.052974  0  -0.11218  -0.101259  0  4.076837  0
C  C84  1  0.99611384  0.40592475  0.09765141  1  0.018823  0  -0.035769  -0.215905  0  3.931049  0
C  C85  1  0.01743193  0.49242251  0.08939701  1  0.418087  0  0.100818  0.204322  0  4.048867  0
C  C86  1  0.98117652  0.40893284  0.00707282  1  -0.00775  0  -0.010989  0.063823  0  3.992953  0
C  C87  1  0.97165492  0.31769795  0.00731305  1  -0.024367  0  -0.110146  -0.150713  0  4.002747  0
C  C88  1  0.96666644  0.31928371  0.91563257  1  -0.047011  0  -0.113369  -0.100571  0  4.082455  0
C  C89  1  0.40751763  0.99065427  0.50084453  1  -0.068759  0  -0.031831  -0.173498  0  3.915551  0
C  C90  1  0.59824279  0.99607088  0.49410692  1  -0.068137  0  -0.014768  -0.00796  0  4.004977  0
C  C91  1  0.45880169  0.90742524  0.58235422  1  0.506677  0  0.116053  0.317731  0  4.065595  0
C  C92  1  0.54914003  0.07691218  0.41238386  1  -0.013575  0  -0.107619  -0.147944  0  4.031691  0
C  C93  1  0.55438430  0.91301073  0.57629379  1  -0.010538  0  -0.095364  -0.218611  0  3.923619  0
C  C94  1  0.45538568  0.07276422  0.41712116  1  -0.016644  0  -0.088268  -0.072551  0  4.035911  0
N  N95  1  0.17626108  0.40989064  0.33870803  1  -1.244316  0  -0.592161  -0.613057  0  3.331097  0
N  N96  1  0.42432625  0.16045342  0.09873641  1  -1.258833  0  -0.590419  -0.610951  0  3.348458  0
N  N97  1  0.80634305  0.15045910  0.93903382  1  -1.254711  0  -0.58846  -0.610438  0  3.34366  0
N  N98  1  0.41834477  0.59170521  0.32628983  1  -1.263556  0  -0.593442  -0.618905  0  3.338821  0
N  N99  1  0.41886207  0.82485535  0.66644112  1  -1.219523  0  -0.588288  -0.612841  0  3.355385  0
N  N100  1  0.03412674  0.49306710  0.17286162  1  -1.220107  0  -0.602561  -0.602385  0  3.344752  0
N  N101  1  0.03597345  0.67284464  0.99205895  1  -1.240531  0  -0.602193  -0.617702  0  3.340718  0
O  O102  1  0.91422652  0.74232599  0.57342293  1  -1.183123  0  -0.350827  -0.613124  0  2.284206  0
O  O103  1  0.26289083  0.07669056  0.24238998  1  -1.193709  0  -0.362775  -0.631214  0  2.316307  0
O  O104  1  0.07487046  0.26606696  0.42169081  1  -1.199383  0  -0.363019  -0.634925  0  2.325749  0
O  O105  1  0.73475737  0.92225077  0.76856416  1  -1.169108  0  -0.353889  -0.612865  0  2.272888  0
O  O106  1  0.06760208  0.74187628  0.76963365  1  -1.190204  0  -0.363867  -0.63197  0  2.286625  0
O  O107  1  0.73437447  0.07815203  0.42047507  1  -1.186429  0  -0.35559  -0.616799  0  2.275379  0
O  O108  1  0.91785869  0.26678389  0.24084048  1  -1.171823  0  -0.354855  -0.613031  0  2.292039  0
O  O109  1  0.26179130  0.91974460  0.57851134  1  -1.191909  0  -0.359782  -0.629182  0  2.31013  0
O  O110  1  0.26214050  0.74126854  0.42191461  1  -1.184883  0  -0.360208  -0.628332  0  2.31647  0
O  O111  1  0.91584155  0.07782353  0.76827529  1  -1.189508  0  -0.357259  -0.623468  0  2.317443  0
O  O112  1  0.73581217  0.26978840  0.57723996  1  -1.184088  0  -0.359259  -0.62213  0  2.273507  0
O  O113  1  0.07283347  0.92080026  0.23955779  1  -1.183469  0  -0.355863  -0.617407  0  2.281695  0
O  O114  1  0.06541429  0.92101884  0.77367116  1  -1.191765  0  -0.357036  -0.629683  0  2.280037  0
O  O115  1  0.73665437  0.26960641  0.42326140  1  -1.178726  0  -0.354692  -0.61859  0  2.286883  0
O  O116  1  0.91738751  0.07242962  0.24226216  1  -1.185885  0  -0.353662  -0.619732  0  2.299205  0
O  O117  1  0.26309188  0.73774938  0.57649829  1  -1.183722  0  -0.357963  -0.627681  0  2.270739  0
O  O118  1  0.91640235  0.73947570  0.76784974  1  -1.174704  0  -0.349217  -0.61119  0  2.28368  0
O  O119  1  0.26409423  0.07348540  0.42581651  1  -1.196861  0  -0.362778  -0.633451  0  2.281999  0
O  O120  1  0.06904945  0.26905119  0.24266211  1  -1.18651  0  -0.361083  -0.639519  0  2.275696  0
O  O121  1  0.73562696  0.92411252  0.57330241  1  -1.192428  0  -0.358192  -0.622459  0  2.296885  0
O  O122  1  0.73643261  0.07505131  0.76885351  1  -1.186356  0  -0.359864  -0.627816  0  2.29145  0
O  O123  1  0.06885800  0.74282604  0.42064364  1  -1.186041  0  -0.35823  -0.622386  0  2.299555  0
O  O124  1  0.26624387  0.92294580  0.23982178  1  -1.184002  0  -0.357823  -0.628762  0  2.271398  0
O  O125  1  0.91952977  0.27123410  0.57302010  1  -1.195495  0  -0.35334  -0.620616  0  2.271465  0
O  O126  1  0.79426078  0.06993629  0.56884693  1  -1.229383  0  -0.693696  -1.066879  0  2.360161  0
O  O127  1  0.06350986  0.06805898  0.57085766  1  -1.222601  0  -0.697222  -1.069672  0  2.360955  0
O  O128  1  0.06456110  0.06851771  0.30010705  1  -1.247027  0  -0.697332  -1.070531  0  2.36979  0
O  O129  1  0.06275969  0.79973883  0.56911202  1  -1.269308  0  -0.694681  -1.067373  0  2.364851  0
O  O130  1  0.14579570  0.95094743  0.45338206  1  -1.194604  0  -0.795389  -1.145344  0  2.142961  0
O  O131  1  0.94688222  0.95273036  0.45197675  1  -1.20291  0  -0.790849  -1.146681  0  2.128559  0
O  O132  1  0.94734437  0.15051222  0.45245658  1  -1.200093  0  -0.79492  -1.146013  0  2.141897  0
O  O133  1  0.94601812  0.95261807  0.65048448  1  -1.1968  0  -0.792564  -1.14758  0  2.136982  0
