# generated using pymatgen
data_CuH15C15NO4
_symmetry_space_group_name_H-M   'P 1'
_cell_length_a   4.83608217
_cell_length_b   11.41888968
_cell_length_c   24.63052083
_cell_angle_alpha   89.99937167
_cell_angle_beta   90.00085349
_cell_angle_gamma   93.71130313
_symmetry_Int_Tables_number   1
_chemical_formula_structural   CuH15C15NO4
_chemical_formula_sum   'Cu4 H60 C60 N4 O16'
_cell_volume   1357.31114280
_cell_formula_units_Z   4
loop_
 _symmetry_equiv_pos_site_id
 _symmetry_equiv_pos_as_xyz
  1  'x, y, z'
loop_
 _atom_site_type_symbol
 _atom_site_label
 _atom_site_symmetry_multiplicity
 _atom_site_fract_x
 _atom_site_fract_y
 _atom_site_fract_z
 _atom_site_occupancy
 _atom_site_pbe_bader_charge
 _atom_site_pbe_bader_spin_density
 _atom_site_pbe_cm5_charge
 _atom_site_pbe_ddec_charge
 _atom_site_pbe_ddec_spin_density
 _atom_site_pbe_ddec_sum_bond_order
 _atom_site_pbe_magmom
Cu  Cu0  1  0.99838508  0.36814543  0.01433840  1  1.080833  -0.414015  0.713539  0.838277  -0.517278  2.235904  -0.413
Cu  Cu1  1  0.50161032  0.13186422  0.51433299  1  1.080768  0.413889  0.713401  0.837987  0.517121  2.236102  0.413
Cu  Cu2  1  0.00162032  0.63187001  0.98566370  1  1.080948  0.414006  0.713517  0.838233  0.517254  2.23604  0.413
Cu  Cu3  1  0.49837259  0.86812577  0.48566099  1  1.081146  -0.413886  0.713426  0.837891  -0.517094  2.236172  -0.413
H  H4  1  0.71063346  0.13995997  0.01428376  1  0.110406  -0.001511  0.115431  0.082854  -0.000691  1.031696  -0.001
H  H5  1  0.78935680  0.36005670  0.51428491  1  0.110552  0.001512  0.115422  0.082814  0.000692  1.031535  0.001
H  H6  1  0.28939215  0.86006601  0.98571266  1  0.110717  0.001514  0.115383  0.082813  0.000693  1.031416  0.001
H  H7  1  0.21060130  0.63993329  0.48572287  1  0.110823  -0.001511  0.115412  0.08285  -0.000691  1.031566  -0.001
H  H8  1  0.69232949  0.95845763  0.95587237  1  0.075983  -0.000664  0.106989  0.113697  -0.000325  1.011275  0.0
H  H9  1  0.80764639  0.54155288  0.45587199  1  0.076095  0.000665  0.106931  0.113462  0.000326  1.011205  0.0
H  H10  1  0.30765222  0.04155167  0.04413136  1  0.076132  0.000665  0.106937  0.113444  0.000326  1.011182  0.0
H  H11  1  0.19232545  0.45844588  0.54414188  1  0.076094  -0.000665  0.106929  0.113544  -0.000326  1.011152  0.0
H  H12  1  0.97899413  0.96115716  0.87126392  1  0.1313  -1.7e-05  0.108988  0.107039  2.1e-05  1.025525  0.0
H  H13  1  0.52105226  0.53882973  0.37125583  1  0.131102  1.7e-05  0.108983  0.106977  -2.1e-05  1.025706  0.0
H  H14  1  0.02096196  0.03881967  0.12873046  1  0.131486  1.7e-05  0.108932  0.106892  -2.1e-05  1.025892  0.0
H  H15  1  0.47895788  0.46117606  0.62875479  1  0.130951  -1.7e-05  0.109001  0.107091  2.1e-05  1.025524  0.0
H  H16  1  0.27162372  0.14496282  0.84810551  1  0.092813  -0.000615  0.102911  0.115467  -0.000307  1.034959  0.0
H  H17  1  0.22843402  0.35503960  0.34808057  1  0.093179  0.000615  0.102831  0.115322  0.000308  1.034729  0.0
H  H18  1  0.72834152  0.85503331  0.15189699  1  0.092276  0.000616  0.102846  0.115309  0.000308  1.034894  0.0
H  H19  1  0.77156104  0.64497584  0.65191950  1  0.09315  -0.000614  0.102861  0.115362  -0.000307  1.034775  0.0
H  H20  1  0.40742775  0.34466137  0.86745842  1  0.036366  0.000838  0.094921  0.106613  0.000373  1.00571  0.0
H  H21  1  0.09256645  0.15534853  0.36744548  1  0.036362  -0.000838  0.095001  0.106882  -0.000373  1.005625  0.0
H  H22  1  0.59255436  0.65532336  0.13254124  1  0.036152  -0.000837  0.095017  0.106814  -0.000373  1.006062  0.0
H  H23  1  0.90742300  0.84465726  0.63255012  1  0.036146  0.000838  0.094895  0.106657  0.000373  1.005678  0.0
H  H24  1  0.44858028  0.37687867  0.93805090  1  0.111379  0.000636  0.109145  0.135109  0.000372  0.996799  0.0
H  H25  1  0.05141221  0.12313848  0.43803759  1  0.111222  -0.000636  0.10917  0.135235  -0.000372  0.996788  0.0
H  H26  1  0.55143359  0.62312449  0.06194471  1  0.111571  -0.000636  0.109121  0.13511  -0.000372  0.996855  0.0
H  H27  1  0.94859906  0.87686117  0.56195801  1  0.111557  0.000635  0.109099  0.13513  0.000372  0.996835  0.0
H  H28  1  0.20678741  0.52986540  0.88539192  1  0.02057  -0.002058  0.095829  0.063665  -0.00115  1.014389  -0.001
H  H29  1  0.29324565  0.97015975  0.38537429  1  0.02025  0.002061  0.095811  0.063624  0.001152  1.014127  0.001
H  H30  1  0.79321404  0.47013775  0.11459841  1  0.02111  0.002063  0.095755  0.063495  0.001154  1.014299  0.001
H  H31  1  0.70675054  0.02984954  0.61461807  1  0.020799  -0.002063  0.095779  0.063599  -0.001154  1.014063  -0.001
H  H32  1  0.92856042  0.42425482  0.87181048  1  -0.022347  0.001444  0.079899  0.035467  0.000711  1.007763  0.001
H  H33  1  0.57149437  0.07574625  0.37181250  1  -0.022804  -0.001443  0.0799  0.035406  -0.00071  1.007717  -0.001
H  H34  1  0.07143916  0.57573605  0.12819121  1  -0.022424  -0.001443  0.07993  0.03544  -0.00071  1.007806  -0.001
H  H35  1  0.42851883  0.92425252  0.62818270  1  -0.022738  0.001443  0.079922  0.035442  0.00071  1.007741  0.001
H  H36  1  0.64943829  0.16380812  0.11730092  1  0.084755  -0.000295  0.113923  0.108912  -0.000165  0.986981  0.0
H  H37  1  0.85056058  0.33617210  0.61729669  1  0.084387  0.000295  0.113932  0.108902  0.000166  0.98709  0.0
H  H38  1  0.35051681  0.83617573  0.88269347  1  0.083852  0.000295  0.11391  0.10884  0.000166  0.986997  0.0
H  H39  1  0.14950398  0.66383808  0.38269891  1  0.084377  -0.000295  0.113925  0.108879  -0.000166  0.986989  0.0
H  H40  1  0.66520741  0.30199848  0.14868320  1  0.103594  -0.000278  0.108659  0.098165  -0.000137  1.01983  0.0
H  H41  1  0.83476958  0.19799861  0.64868247  1  0.103496  0.000278  0.108613  0.098096  0.000137  1.019869  0.0
H  H42  1  0.33478151  0.69800379  0.85131687  1  0.103487  0.000278  0.108677  0.098192  0.000137  1.019933  0.0
H  H43  1  0.16524643  0.80201859  0.35131922  1  0.103195  -0.000278  0.108688  0.098225  -0.000137  1.019885  0.0
H  H44  1  0.00138463  0.09874099  0.24127236  1  0.08472  -2e-06  0.102044  0.114371  2e-06  1.025807  0.0
H  H45  1  0.49864432  0.40124881  0.74126173  1  0.084872  2e-06  0.102086  0.114336  -2e-06  1.025948  0.0
H  H46  1  0.99862016  0.90125690  0.75873136  1  0.08477  2e-06  0.102048  0.114335  -2e-06  1.02584  0.0
H  H47  1  0.50139657  0.59875523  0.25873388  1  0.084882  -2e-06  0.102047  0.114297  2e-06  1.025981  0.0
H  H48  1  0.70293968  0.21206192  0.30222672  1  0.032469  -8.4e-05  0.094173  0.084368  -6.4e-05  1.033837  0.0
H  H49  1  0.79707222  0.28793714  0.80222705  1  0.03248  8.4e-05  0.094188  0.084402  6.4e-05  1.033838  0.0
H  H50  1  0.29707239  0.78794299  0.69777538  1  0.032497  8.4e-05  0.094189  0.084383  6.4e-05  1.033719  0.0
H  H51  1  0.20293958  0.71206602  0.19777586  1  0.032599  -8.4e-05  0.094212  0.084453  -6.4e-05  1.033802  0.0
H  H52  1  0.72925748  0.43060748  0.29769442  1  0.071434  -2.5e-05  0.092302  0.090403  -1.7e-05  1.056936  0.0
H  H53  1  0.77072473  0.06938904  0.79770391  1  0.07128  2.5e-05  0.092326  0.090362  1.7e-05  1.056947  0.0
H  H54  1  0.27073998  0.56939655  0.70230767  1  0.071514  2.5e-05  0.092315  0.090421  1.7e-05  1.056988  0.0
H  H55  1  0.22925979  0.93061148  0.20230224  1  0.071321  -2.5e-05  0.092339  0.090432  -1.7e-05  1.056805  0.0
H  H56  1  0.04604291  0.53382534  0.23209164  1  0.021623  8e-06  0.097155  0.092169  1.2e-05  1.034597  0.0
H  H57  1  0.45396232  0.96616274  0.73209639  1  0.021472  -9e-06  0.097176  0.092084  -1.2e-05  1.034738  0.0
H  H58  1  0.95395554  0.46617167  0.76790924  1  0.021557  -9e-06  0.097152  0.092191  -1.2e-05  1.034691  0.0
H  H59  1  0.54604661  0.03383515  0.26790571  1  0.02169  9e-06  0.097177  0.092169  1.2e-05  1.034593  0.0
H  H60  1  0.34066265  0.42262524  0.17097428  1  0.077162  3.3e-05  0.104275  0.115912  3.5e-05  1.018977  0.0
H  H61  1  0.15935270  0.07736519  0.67097204  1  0.077189  -3.3e-05  0.104322  0.115931  -3.5e-05  1.019002  0.0
H  H62  1  0.65933528  0.57736826  0.82902782  1  0.077155  -3.2e-05  0.104258  0.115919  -3.5e-05  1.018968  0.0
H  H63  1  0.84069439  0.92263884  0.32902316  1  0.076805  3.3e-05  0.104266  0.115934  3.5e-05  1.019022  0.0
C  C64  1  0.82973144  0.13535712  0.97695623  1  0.464371  0.002343  0.044267  0.094892  0.00099  3.963504  0.002
C  C65  1  0.67026396  0.36464870  0.47695300  1  0.464179  -0.00234  0.044312  0.094936  -0.000989  3.963913  -0.002
C  C66  1  0.17025388  0.86464866  0.02304627  1  0.46396  -0.00234  0.044369  0.094918  -0.000989  3.964078  -0.002
C  C67  1  0.32971768  0.63534656  0.52305275  1  0.464074  0.002341  0.044312  0.094849  0.00099  3.963806  0.002
C  C68  1  0.82032032  0.03624203  0.94424462  1  0.037693  -0.003963  -0.090633  -0.138361  -0.002615  3.995297  -0.003
C  C69  1  0.67965578  0.46374869  0.44423928  1  0.038346  0.003961  -0.090518  -0.13814  0.002613  3.995288  0.003
C  C70  1  0.17963544  0.96374620  0.05575505  1  0.037921  0.003962  -0.090486  -0.138061  0.002614  3.994991  0.003
C  C71  1  0.32031759  0.53624656  0.55576891  1  0.038223  -0.003962  -0.090545  -0.138274  -0.002613  3.995139  -0.003
C  C72  1  0.98293102  0.03821953  0.89744722  1  -0.105577  0.004364  -0.070079  -0.026345  0.002757  3.969642  0.003
C  C73  1  0.51710080  0.46179414  0.39743290  1  -0.112883  -0.004362  -0.070253  -0.02631  -0.002756  3.969524  -0.003
C  C74  1  0.01702342  0.96178713  0.10255407  1  -0.106143  -0.004364  -0.07008  -0.026092  -0.002757  3.969401  -0.003
C  C75  1  0.48289939  0.53821428  0.60257489  1  -0.113265  0.004363  -0.070232  -0.026339  0.002757  3.969295  0.003
C  C76  1  0.14439284  0.14001592  0.88467867  1  -0.044083  -0.004724  -0.086565  -0.177249  -0.003132  3.920883  -0.004
C  C77  1  0.35566387  0.35998834  0.38466827  1  -0.037534  0.004723  -0.086204  -0.176985  0.003131  3.920556  0.004
C  C78  1  0.85559048  0.85997671  0.11531125  1  -0.043603  0.004723  -0.086414  -0.177227  0.003131  3.921086  0.004
C  C79  1  0.64434693  0.64002183  0.61533545  1  -0.03693  -0.004723  -0.086285  -0.177089  -0.00313  3.920817  -0.004
C  C80  1  0.14303359  0.23777867  0.91892942  1  0.477966  0.001675  0.124003  0.276919  0.000742  3.920983  0.001
C  C81  1  0.35698330  0.26223187  0.41891993  1  0.477615  -0.001673  0.123812  0.276921  -0.000741  3.921471  -0.001
C  C82  1  0.85697294  0.76223063  0.08106700  1  0.478255  -0.001673  0.124037  0.277041  -0.000741  3.921329  -0.001
C  C83  1  0.64301529  0.73776602  0.58107811  1  0.477464  0.001673  0.123842  0.276922  0.000742  3.921455  0.001
C  C84  1  0.29607104  0.35249403  0.90603071  1  -0.055405  -0.003011  -0.166654  -0.296175  -0.001741  3.944098  -0.003
C  C85  1  0.20392488  0.14752117  0.40602138  1  -0.055248  0.003006  -0.166776  -0.296904  0.001738  3.944444  0.003
C  C86  1  0.70390067  0.64750386  0.09397464  1  -0.055597  0.003013  -0.166865  -0.296711  0.001742  3.944139  0.003
C  C87  1  0.79607171  0.85249076  0.59397301  1  -0.055488  -0.003007  -0.166598  -0.296468  -0.001739  3.94407  -0.003
C  C88  1  0.09338352  0.45061935  0.90152357  1  0.545441  -0.000549  -0.086118  0.103455  -0.000533  3.97246  0.0
C  C89  1  0.40664195  0.04940210  0.40151531  1  0.545972  0.000547  -0.086094  0.103824  0.000531  3.971659  0.0
C  C90  1  0.90665923  0.54939697  0.09847488  1  0.545272  0.000549  -0.086051  0.103869  0.000531  3.971959  0.0
C  C91  1  0.59333816  0.95059667  0.59847948  1  0.545774  -0.000546  -0.086151  0.103682  -0.000529  3.971803  0.0
C  C92  1  0.38009688  0.28412136  0.08091366  1  1.531502  0.00129  0.190658  0.56846  0.000456  4.21875  0.002
C  C93  1  0.11991173  0.21585697  0.58091141  1  1.531392  -0.001289  0.190692  0.568507  -0.000455  4.217909  -0.002
C  C94  1  0.61991485  0.71586775  0.91909006  1  1.53149  -0.00129  0.190618  0.568523  -0.000456  4.218494  -0.002
C  C95  1  0.88010647  0.78413390  0.41908703  1  1.531623  0.00129  0.190559  0.568331  0.000456  4.218569  0.002
C  C96  1  0.52107866  0.23403942  0.13080047  1  0.388313  -0.004849  -0.068492  -0.123527  -0.003375  3.882768  -0.004
C  C97  1  0.97892776  0.26595630  0.63079250  1  0.388851  0.004844  -0.068426  -0.123529  0.003372  3.883127  0.004
C  C98  1  0.47892660  0.76594794  0.86919960  1  0.389415  0.004847  -0.068529  -0.123673  0.003375  3.88323  0.004
C  C99  1  0.02111240  0.73405651  0.36920310  1  0.388729  -0.004844  -0.06853  -0.123634  -0.003372  3.883287  -0.004
C  C100  1  0.19003967  0.25298793  0.20278300  1  0.367289  -7.2e-05  0.08304  0.262128  -0.000121  4.05513  0.0
C  C101  1  0.30997015  0.24700445  0.70278520  1  0.367131  7.3e-05  0.082926  0.261989  0.000121  4.055067  0.0
C  C102  1  0.80995204  0.74700557  0.79721667  1  0.367182  7.3e-05  0.083019  0.262088  0.000121  4.0554  0.0
C  C103  1  0.69006592  0.75299520  0.29721284  1  0.366968  -7.2e-05  0.082897  0.261927  -0.000121  4.055324  0.0
C  C104  1  0.01065550  0.19436633  0.24007443  1  0.016929  -0.000307  -0.109889  -0.212859  -0.000182  3.983358  0.0
C  C105  1  0.48933914  0.30562963  0.74006872  1  0.017026  0.000306  -0.109772  -0.212638  0.000182  3.983436  0.0
C  C106  1  0.98933922  0.80563331  0.75993011  1  0.017372  0.000307  -0.109841  -0.212786  0.000183  3.983396  0.0
C  C107  1  0.51068647  0.69436914  0.25993053  1  0.016994  -0.000307  -0.109718  -0.21254  -0.000183  3.983225  0.0
C  C108  1  0.84519541  0.25808116  0.27384495  1  -0.050468  4.3e-05  -0.098336  -0.070161  2.6e-05  4.063572  0.0
C  C109  1  0.65481391  0.24190183  0.77384592  1  -0.050248  -4.3e-05  -0.098487  -0.070534  -2.6e-05  4.063827  0.0
C  C110  1  0.15481131  0.74191585  0.72615837  1  -0.050727  -4.3e-05  -0.098326  -0.07014  -2.6e-05  4.063609  0.0
C  C111  1  0.34519349  0.75809957  0.22615537  1  -0.050229  4.3e-05  -0.098464  -0.070471  2.6e-05  4.063727  0.0
C  C112  1  0.85794717  0.38060524  0.27130187  1  -0.06003  -0.000273  -0.113343  -0.130134  -0.000165  4.057343  0.0
C  C113  1  0.64205323  0.11938834  0.77130627  1  -0.060623  0.000273  -0.113283  -0.129732  0.000165  4.057452  0.0
C  C114  1  0.14205375  0.61939440  0.72870144  1  -0.060152  0.000273  -0.113337  -0.130061  0.000165  4.057763  0.0
C  C115  1  0.35795197  0.88061219  0.22869705  1  -0.060431  -0.000273  -0.113347  -0.129986  -0.000165  4.057534  0.0
C  C116  1  0.03822180  0.43833701  0.23443815  1  -0.01141  0.000207  -0.098126  -0.07229  0.000152  4.045724  0.0
C  C117  1  0.46179076  0.06165733  0.73444173  1  -0.010227  -0.000207  -0.098265  -0.0725  -0.000152  4.045612  0.0
C  C118  1  0.96179086  0.56165825  0.76556232  1  -0.010793  -0.000207  -0.098199  -0.072461  -0.000152  4.045755  0.0
C  C119  1  0.53823164  0.93834759  0.26555793  1  -0.011276  0.000207  -0.098226  -0.07245  0.000152  4.045414  0.0
C  C120  1  0.20522789  0.37580093  0.20011569  1  -0.024534  -0.000169  -0.108633  -0.216056  -0.000112  4.003399  0.0
C  C121  1  0.29476547  0.12419326  0.70011360  1  -0.025269  0.000169  -0.108526  -0.215861  0.000111  4.002854  0.0
C  C122  1  0.79476076  0.62419959  0.79988763  1  -0.025147  0.00017  -0.108592  -0.216038  0.000112  4.003324  0.0
C  C123  1  0.70527501  0.87580814  0.29988281  1  -0.024271  -0.000169  -0.108474  -0.215922  -0.000111  4.002973  0.0
N  N124  1  0.98768850  0.23305939  0.96477173  1  -1.22634  -0.052376  -0.351422  -0.277268  -0.034506  3.582986  -0.046
N  N125  1  0.51232248  0.26695986  0.46475799  1  -1.226484  0.05236  -0.351361  -0.277128  0.034498  3.583357  0.046
N  N126  1  0.01232790  0.76696044  0.03523483  1  -1.226565  0.052381  -0.351499  -0.277258  0.03451  3.583935  0.046
N  N127  1  0.48767664  0.73304154  0.53523883  1  -1.226242  -0.052351  -0.351327  -0.277051  -0.034492  3.583234  -0.046
O  O128  1  0.97657573  0.47683486  0.95207384  1  -1.009433  -0.014625  -0.399996  -0.539263  -0.009233  2.484852  -0.014
O  O129  1  0.52334332  0.02315744  0.45207112  1  -1.008704  0.014609  -0.399953  -0.539205  0.009223  2.484672  0.014
O  O130  1  0.02339238  0.52316653  0.04792339  1  -1.009662  0.014628  -0.400038  -0.539344  0.009238  2.485113  0.014
O  O131  1  0.47662345  0.97683518  0.54792246  1  -1.009572  -0.014624  -0.399919  -0.53909  -0.009237  2.484765  -0.014
O  O132  1  0.11451945  0.28151043  0.08075901  1  -1.077322  -0.052189  -0.327803  -0.545708  -0.03311  2.346043  -0.047
O  O133  1  0.38548928  0.21846879  0.58075061  1  -1.077356  0.052154  -0.327877  -0.545713  0.033088  2.346204  0.047
O  O134  1  0.88548887  0.71846991  0.91924797  1  -1.077365  0.052177  -0.327898  -0.545789  0.033102  2.346386  0.047
O  O135  1  0.61451804  0.78151857  0.41924175  1  -1.077327  -0.052158  -0.327795  -0.545629  -0.03309  2.346079  -0.047
O  O136  1  0.53307752  0.32384235  0.04312286  1  -1.188789  0.000698  -0.322991  -0.592073  0.000512  2.301027  -0.001
O  O137  1  0.96690599  0.17612894  0.54311694  1  -1.189003  -0.000698  -0.32301  -0.5921  -0.000512  2.30027  0.001
O  O138  1  0.46692014  0.67614940  0.95688168  1  -1.188851  -0.000701  -0.322913  -0.592037  -0.000513  2.300803  0.001
O  O139  1  0.03307558  0.82385228  0.45688191  1  -1.189021  0.0007  -0.322934  -0.591974  0.000512  2.300898  -0.001
O  O140  1  0.33879189  0.18171677  0.17088800  1  -1.089162  -0.000319  -0.18305  -0.190817  -0.000111  2.586348  0.0
O  O141  1  0.16119410  0.31827103  0.67088373  1  -1.088851  0.000319  -0.18306  -0.190784  0.00011  2.586496  0.0
O  O142  1  0.66116922  0.81827936  0.82911044  1  -1.089107  0.00032  -0.18298  -0.190634  0.000111  2.586546  0.0
O  O143  1  0.83885038  0.68172950  0.32911106  1  -1.088547  -0.000319  -0.183014  -0.190701  -0.00011  2.586526  0.0
