# generated using pymatgen
data_CdH14C16(NO3)2
_symmetry_space_group_name_H-M   'P 1'
_cell_length_a   7.97900135
_cell_length_b   10.30298227
_cell_length_c   11.96973277
_cell_angle_alpha   89.44503715
_cell_angle_beta   102.65026725
_cell_angle_gamma   107.17598509
_symmetry_Int_Tables_number   1
_chemical_formula_structural   CdH14C16(NO3)2
_chemical_formula_sum   'Cd2 H28 C32 N4 O12'
_cell_volume   915.69913462
_cell_formula_units_Z   2
loop_
 _symmetry_equiv_pos_site_id
 _symmetry_equiv_pos_as_xyz
  1  'x, y, z'
loop_
 _atom_site_type_symbol
 _atom_site_label
 _atom_site_symmetry_multiplicity
 _atom_site_fract_x
 _atom_site_fract_y
 _atom_site_fract_z
 _atom_site_occupancy
 _atom_site_hle17_bader_spin_density
 _atom_site_hle17_ddec_charge
 _atom_site_hle17_ddec_spin_density
 _atom_site_hle17_ddec_sum_bond_order
 _atom_site_hle17_magmom
 _atom_site_hse06_10hf_bader_spin_density
 _atom_site_hse06_10hf_ddec_charge
 _atom_site_hse06_10hf_ddec_spin_density
 _atom_site_hse06_10hf_ddec_sum_bond_order
 _atom_site_hse06_10hf_magmom
 _atom_site_hse06_bader_spin_density
 _atom_site_hse06_ddec_charge
 _atom_site_hse06_ddec_spin_density
 _atom_site_hse06_ddec_sum_bond_order
 _atom_site_hse06_magmom
 _atom_site_pbe_bader_spin_density
 _atom_site_pbe_cm5_charge
 _atom_site_pbe_ddec_charge
 _atom_site_pbe_ddec_spin_density
 _atom_site_pbe_ddec_sum_bond_order
 _atom_site_pbe_magmom
Cd  Cd0  1  0.21524446  0.11747333  0.48158695  1  0  1.154364  0  1.636957  0  0  0.971983  0  2.073503  0  0  1.030743  0  2.019052  0  0  0.770339  0.926132  0  2.114579  0
Cd  Cd1  1  0.78475683  0.88252201  0.51841124  1  0  1.154348  0  1.637001  0  0  0.971946  0  2.073551  0  0  1.030702  0  2.019103  0  0  0.77031  0.926085  0  2.11464  0
H  H2  1  0.56422915  0.18517215  0.43859383  1  0  0.433271  0  0.868841  0  0  0.399891  0  0.936958  0  0  0.411256  0  0.920555  0  0  0.287393  0.391682  0  0.948778  0
H  H3  1  0.43577121  0.81482109  0.56140671  1  0  0.433245  0  0.868855  0  0  0.399853  0  0.936996  0  0  0.411218  0  0.920591  0  0  0.287357  0.39164  0  0.94882  0
H  H4  1  0.46255985  0.29682200  0.40299567  1  0  0.421855  0  0.844095  0  0  0.399513  0  0.907588  0  0  0.408703  0  0.895065  0  0  0.303068  0.392767  0  0.915272  0
H  H5  1  0.53744341  0.70317139  0.59699951  1  0  0.421884  0  0.844032  0  0  0.399542  0  0.907521  0  0  0.408731  0  0.895023  0  0  0.303102  0.392795  0  0.915204  0
H  H6  1  0.77285019  0.35357511  0.82217532  1  0  0.115109  0  0.935974  0  0  0.127122  0  0.989703  0  0  0.129851  0  0.99021  0  0  0.113545  0.125105  0  0.989549  0
H  H7  1  0.22715712  0.64642850  0.17781885  1  0  0.115095  0  0.935944  0  0  0.127116  0  0.989665  0  0  0.129845  0  0.990173  0  0  0.113559  0.1251  0  0.989512  0
H  H8  1  0.26120899  0.94052145  0.69233735  1  0  0.100903  0  0.933431  0  0  0.108559  0  0.996711  0  0  0.111733  0  0.993522  0  0  0.122945  0.106112  0  0.999265  0
H  H9  1  0.73878021  0.05948990  0.30766636  1  0  0.100932  0  0.933341  0  0  0.108626  0  0.996589  0  0  0.111801  0  0.993406  0  0  0.122986  0.106197  0  0.999123  0
H  H10  1  0.83348954  0.32439274  0.22494054  1  0  0.117334  0  0.972372  0  0  0.123885  0  1.038585  0  0  0.128348  0  1.034091  0  0  0.105356  0.120533  0  1.041926  0
H  H11  1  0.16650783  0.67560031  0.77506703  1  0  0.11738  0  0.972223  0  0  0.123897  0  1.038489  0  0  0.128362  0  1.033991  0  0  0.105318  0.120551  0  1.041823  0
H  H12  1  0.48168699  0.93814616  0.87430728  1  0  0.122821  0  0.960221  0  0  0.131523  0  1.019982  0  0  0.135726  0  1.017883  0  0  0.110371  0.128408  0  1.02176  0
H  H13  1  0.51830325  0.06185807  0.12569744  1  0  0.12283  0  0.96018  0  0  0.131571  0  1.019901  0  0  0.135781  0  1.017794  0  0  0.110396  0.128455  0  1.02169  0
H  H14  1  0.68722386  0.50246591  0.15955942  1  0  0.090709  0  0.937729  0  0  0.103631  0  0.98857  0  0  0.107238  0  0.987316  0  0  0.101512  0.10108  0  0.989514  0
H  H15  1  0.31277394  0.49753126  0.84044571  1  0  0.090685  0  0.937774  0  0  0.10364  0  0.988581  0  0  0.107246  0  0.987326  0  0  0.10149  0.101078  0  0.989537  0
H  H16  1  0.53726561  0.33852655  0.64143688  1  0  0.092056  0  0.933058  0  0  0.100579  0  0.996247  0  0  0.103189  0  0.993628  0  0  0.12245  0.098587  0  0.99829  0
H  H17  1  0.46274263  0.66148224  0.35855327  1  0  0.092112  0  0.933178  0  0  0.100622  0  0.996392  0  0  0.103233  0  0.993773  0  0  0.122449  0.098625  0  0.998437  0
H  H18  1  0.81648994  0.73695104  0.25480057  1  0  0.089013  0  0.97235  0  0  0.096167  0  1.04047  0  0  0.099348  0  1.038445  0  0  0.098408  0.093957  0  1.041733  0
H  H19  1  0.18351676  0.26305231  0.74520437  1  0  0.089045  0  0.972292  0  0  0.096176  0  1.040434  0  0  0.099357  0  1.038409  0  0  0.098419  0.093953  0  1.041716  0
H  H20  1  0.23718218  0.61139481  0.47515803  1  0  0.095922  0  0.963186  0  0  0.104035  0  1.032  0  0  0.107762  0  1.028743  0  0  0.105567  0.101364  0  1.034594  0
H  H21  1  0.76282105  0.38860251  0.52484299  1  0  0.095926  0  0.963135  0  0  0.104034  0  1.031963  0  0  0.107761  0  1.028704  0  0  0.105577  0.101362  0  1.034556  0
H  H22  1  0.17636569  0.17076829  0.08643698  1  0  0.074171  0  0.897431  0  0  0.092659  0  0.951916  0  0  0.092988  0  0.951582  0  0  0.111106  0.092353  0  0.952138  0
H  H23  1  0.82362625  0.82922600  0.91355882  1  0  0.074174  0  0.897382  0  0  0.092627  0  0.951913  0  0  0.092955  0  0.951581  0  0  0.111095  0.092318  0  0.952135  0
H  H24  1  0.99710588  0.14757506  0.15884187  1  0  0.109087  0  0.933696  0  0  0.120152  0  0.997475  0  0  0.122075  0  0.996087  0  0  0.120348  0.118626  0  0.998618  0
H  H25  1  0.00289017  0.85242330  0.84115545  1  0  0.109078  0  0.933686  0  0  0.120139  0  0.997459  0  0  0.122061  0  0.99607  0  0  0.120352  0.118613  0  0.9986  0
H  H26  1  0.84712165  0.03661485  0.80708887  1  0  0.090263  0  0.937299  0  0  0.108852  0  0.99329  0  0  0.108351  0  0.995275  0  0  0.116691  0.109127  0  0.992115  0
H  H27  1  0.15286931  0.96338042  0.19290844  1  0  0.090321  0  0.937321  0  0  0.108868  0  0.993354  0  0  0.108366  0  0.995343  0  0  0.116658  0.109144  0  0.992176  0
H  H28  1  0.08182029  0.10107112  0.86831949  1  0  0.073031  0  0.919828  0  0  0.087236  0  0.985224  0  0  0.0876  0  0.985059  0  0  0.107337  0.086898  0  0.985361  0
H  H29  1  0.91817121  0.89892523  0.13167541  1  0  0.07304  0  0.919808  0  0  0.087284  0  0.985174  0  0  0.087653  0  0.984999  0  0  0.107337  0.086946  0  0.985314  0
C  C30  1  0.77591882  0.15420156  0.97567197  1  0  0.478804  0  3.856535  0  0  0.428087  0  4.152823  0  0  0.457249  0  4.151468  0  0  0.242506  0.408425  0  4.153045  0
C  C31  1  0.22409033  0.84581017  0.02432335  1  0  0.478864  0  3.856372  0  0  0.428159  0  4.152609  0  0  0.457323  0  4.151254  0  0  0.242596  0.408486  0  4.152842  0
C  C32  1  0.66142732  0.26043181  0.79653907  1  0  -0.138689  0  3.71132  0  0  -0.158899  0  3.957139  0  0  -0.165704  0  3.977822  0  0  -0.078658  -0.154665  0  3.943703  0
C  C33  1  0.33857293  0.73957682  0.20345477  1  0  -0.138485  0  3.711224  0  0  -0.158731  0  3.95705  0  0  -0.165532  0  3.977732  0  0  -0.078627  -0.154503  0  3.943616  0
C  C34  1  0.64725408  0.14603359  0.86189062  1  0  0.019701  0  3.766433  0  0  0.033872  0  4.008886  0  0  0.035533  0  4.026996  0  0  0.00971  0.032712  0  3.996865  0
C  C35  1  0.35274454  0.85397095  0.13810379  1  0  0.019466  0  3.766637  0  0  0.033705  0  4.009004  0  0  0.035362  0  4.027109  0  0  0.009713  0.032547  0  3.996983  0
C  C36  1  0.12995252  0.35004114  0.39807665  1  0  0.626465  0  3.947767  0  0  0.580131  0  4.232743  0  0  0.613725  0  4.229479  0  0  0.189221  0.557163  0  4.234045  0
C  C37  1  0.87004597  0.64995100  0.60192693  1  0  0.626493  0  3.947783  0  0  0.58019  0  4.232699  0  0  0.613786  0  4.229435  0  0  0.189254  0.557224  0  4.233995  0
C  C38  1  0.37703041  0.02955315  0.72403310  1  0  0.156478  0  3.654524  0  0  0.123463  0  3.908339  0  0  0.132266  0  3.924213  0  0  0.056029  0.117645  0  3.89745  0
C  C39  1  0.62296862  0.97045327  0.27596806  1  0  0.156622  0  3.654267  0  0  0.123525  0  3.908138  0  0  0.132318  0  3.924018  0  0  0.056011  0.117699  0  3.897245  0
C  C40  1  0.88876476  0.42652647  0.26583554  1  0  -0.047459  0  3.688503  0  0  -0.076811  0  3.935904  0  0  -0.0728  0  3.952272  0  0  -0.077398  -0.078289  0  3.924257  0
C  C41  1  0.11123487  0.57346870  0.73416906  1  0  -0.047401  0  3.688314  0  0  -0.07673  0  3.935724  0  0  -0.072719  0  3.952094  0  0  -0.077357  -0.07821  0  3.924063  0
C  C42  1  0.50143520  0.02902773  0.82533595  1  0  -0.141402  0  3.687504  0  0  -0.161518  0  3.933563  0  0  -0.168158  0  3.952317  0  0  -0.080555  -0.157395  0  3.921441  0
C  C43  1  0.49856753  0.97097470  0.17466332  1  0  -0.141425  0  3.687465  0  0  -0.161597  0  3.933548  0  0  -0.168237  0  3.952294  0  0  -0.080594  -0.157473  0  3.921434  0
C  C44  1  0.80786381  0.52718791  0.22893851  1  0  -0.082183  0  3.777732  0  0  -0.090727  0  4.027355  0  0  -0.096138  0  4.048137  0  0  -0.092432  -0.087291  0  4.012601  0
C  C45  1  0.19213642  0.47281230  0.77106787  1  0  -0.082234  0  3.777785  0  0  -0.090804  0  4.027422  0  0  -0.096211  0  4.048201  0  0  -0.092479  -0.087352  0  4.012659  0
C  C46  1  0.53191009  0.25251940  0.69594048  1  0  0.131347  0  3.712018  0  0  0.099006  0  3.96735  0  0  0.106732  0  3.985633  0  0  0.050494  0.093793  0  3.954936  0
C  C47  1  0.46808448  0.74748813  0.30405493  1  0  0.131313  0  3.712027  0  0  0.09894  0  3.967348  0  0  0.106663  0  3.985629  0  0  0.050459  0.093733  0  3.954926  0
C  C48  1  0.04413493  0.45758003  0.35470432  1  0  -0.070204  0  3.759325  0  0  -0.042636  0  3.991231  0  0  -0.053175  0  4.01572  0  0  -0.019729  -0.036144  0  3.975565  0
C  C49  1  0.95586870  0.54241522  0.64529844  1  0  -0.07033  0  3.759315  0  0  -0.042783  0  3.991242  0  0  -0.053327  0  4.015731  0  0  -0.019668  -0.036288  0  3.975579  0
C  C50  1  0.88023329  0.65817899  0.28096847  1  0  -0.054497  0  3.728244  0  0  -0.084471  0  3.983244  0  0  -0.081531  0  4.00251  0  0  -0.082944  -0.085219  0  3.969315  0
C  C51  1  0.11976961  0.34182127  0.71903668  1  0  -0.054544  0  3.728198  0  0  -0.084537  0  3.983192  0  0  -0.081597  0  4.002458  0  0  -0.082922  -0.085279  0  3.969276  0
C  C52  1  0.11936202  0.83262457  0.42025236  1  0  0.648119  0  3.911218  0  0  0.593304  0  4.204406  0  0  0.628365  0  4.198571  0  0  0.201728  0.569036  0  4.207914  0
C  C53  1  0.88064909  0.16737679  0.57975248  1  0  0.647999  0  3.9115  0  0  0.593146  0  4.204714  0  0  0.628207  0  4.19888  0  0  0.201742  0.568882  0  4.208218  0
C  C54  1  0.11779574  0.58956153  0.40545281  1  0  -0.065062  0  3.718878  0  0  -0.101703  0  3.967328  0  0  -0.099152  0  3.987893  0  0  -0.075847  -0.103823  0  3.954927  0
C  C55  1  0.88220629  0.41043582  0.59454634  1  0  -0.065008  0  3.718804  0  0  -0.101678  0  3.967241  0  0  -0.099121  0  3.987803  0  0  -0.075887  -0.103802  0  3.954844  0
C  C56  1  0.03727738  0.69064907  0.36892687  1  0  -0.088462  0  3.786471  0  0  -0.061373  0  4.022723  0  0  -0.072531  0  4.04799  0  0  -0.02512  -0.05433  0  4.006499  0
C  C57  1  0.96272755  0.30935322  0.63107945  1  0  -0.088416  0  3.786491  0  0  -0.061212  0  4.022574  0  0  -0.072371  0  4.047841  0  0  -0.025125  -0.054173  0  4.006356  0
C  C58  1  0.04133590  0.10492325  0.09091830  1  0  -0.013769  0  3.62145  0  0  -0.074488  0  3.883821  0  0  -0.069891  0  3.893928  0  0  -0.05508  -0.077365  0  3.876703  0
C  C59  1  0.95865768  0.89507205  0.90907861  1  0  -0.013728  0  3.621412  0  0  -0.074415  0  3.883778  0  0  -0.069818  0  3.893879  0  0  -0.055074  -0.077293  0  3.876654  0
C  C60  1  0.95161673  0.03939258  0.88417129  1  0  -0.011298  0  3.644986  0  0  -0.077646  0  3.915569  0  0  -0.07352  0  3.928128  0  0  -0.053566  -0.080305  0  3.906818  0
C  C61  1  0.04837650  0.96060173  0.11582473  1  0  -0.011373  0  3.645144  0  0  -0.07774  0  3.915778  0  0  -0.073616  0  3.928339  0  0  -0.053553  -0.080402  0  3.907025  0
N  N62  1  0.39393379  0.13887004  0.65995350  1  0  -0.341977  0  3.297312  0  0  -0.260912  0  3.566297  0  0  -0.282151  0  3.584122  0  0  -0.334128  -0.245839  0  3.553232  0
N  N63  1  0.60606267  0.86113637  0.34004724  1  0  -0.34216  0  3.297164  0  0  -0.26099  0  3.566099  0  0  -0.282224  0  3.583921  0  0  -0.334109  -0.245916  0  3.553034  0
N  N64  1  0.91569882  0.10291038  0.98137839  1  0  -0.211769  0  3.406947  0  0  -0.12683  0  3.650489  0  0  -0.148194  0  3.671992  0  0  -0.274137  -0.112337  0  3.635375  0
N  N65  1  0.08429391  0.89708595  0.01861755  1  0  -0.21173  0  3.407071  0  0  -0.126794  0  3.650607  0  0  -0.148158  0  3.672111  0  0  -0.274055  -0.112295  0  3.63549  0
O  O66  1  0.27942092  0.87321354  0.47891577  1  0  -0.629318  0  1.995653  0  0  -0.56772  0  2.226674  0  0  -0.595258  0  2.218664  0  0  -0.30795  -0.547661  0  2.231285  0
O  O67  1  0.72059023  0.12678784  0.52108824  1  0  -0.629192  0  1.995903  0  0  -0.567626  0  2.226965  0  0  -0.595164  0  2.218959  0  0  -0.307882  -0.54757  0  2.23158  0
O  O68  1  0.74669892  0.20699360  0.05957067  1  0  -0.534781  0  1.939114  0  0  -0.498211  0  2.158272  0  0  -0.520442  0  2.151887  0  0  -0.29188  -0.482321  0  2.161891  0
O  O69  1  0.25332051  0.79302435  0.94042300  1  0  -0.534755  0  1.938842  0  0  -0.498191  0  2.158002  0  0  -0.520423  0  2.151616  0  0  -0.29196  -0.482299  0  2.161625  0
O  O70  1  0.28411558  0.38418204  0.46586355  1  0  -0.652159  0  1.909251  0  0  -0.59844  0  2.131115  0  0  -0.624505  0  2.122247  0  0  -0.338387  -0.579121  0  2.135981  0
O  O71  1  0.71588435  0.61581411  0.53414278  1  0  -0.652185  0  1.90921  0  0  -0.598482  0  2.131067  0  0  -0.624545  0  2.1222  0  0  -0.338457  -0.579167  0  2.135935  0
O  O72  1  0.03887267  0.22552964  0.36530622  1  0  -0.648454  0  1.96952  0  0  -0.579732  0  2.208192  0  0  -0.610217  0  2.199513  0  0  -0.334736  -0.55686  0  2.214708  0
O  O73  1  0.96111587  0.77446653  0.63469488  1  0  -0.648452  0  1.969659  0  0  -0.579718  0  2.208294  0  0  -0.610201  0  2.19961  0  0  -0.334724  -0.556844  0  2.214804  0
O  O74  1  0.02144760  0.91428797  0.39873240  1  0  -0.684513  0  2.054061  0  0  -0.60622  0  2.316915  0  0  -0.638294  0  2.305779  0  0  -0.337568  -0.582591  0  2.32598  0
O  O75  1  0.97855133  0.08570521  0.60127042  1  0  -0.684475  0  2.053884  0  0  -0.606192  0  2.316744  0  0  -0.638265  0  2.30561  0  0  -0.337638  -0.582564  0  2.325803  0
O  O76  1  0.45484603  0.20150733  0.38851362  1  0  -0.824892  0  1.813656  0  0  -0.765347  0  1.99263  0  0  -0.787156  0  1.961739  0  0  -0.586033  -0.749975  0  2.013643  0
O  O77  1  0.54515274  0.79848492  0.61148499  1  0  -0.824894  0  1.813587  0  0  -0.765356  0  1.992588  0  0  -0.787165  0  1.961723  0  0  -0.586044  -0.749979  0  2.013605  0
