# generated using pymatgen
data_Zn2CdH42C54(NO6)2
_symmetry_space_group_name_H-M   'P 1'
_cell_length_a   10.30611164
_cell_length_b   10.93919187
_cell_length_c   13.15327598
_cell_angle_alpha   76.39922230
_cell_angle_beta   67.47273172
_cell_angle_gamma   63.08166197
_symmetry_Int_Tables_number   1
_chemical_formula_structural   Zn2CdH42C54(NO6)2
_chemical_formula_sum   'Zn2 Cd1 H42 C54 N2 O12'
_cell_volume   1217.91514411
_cell_formula_units_Z   1
loop_
 _symmetry_equiv_pos_site_id
 _symmetry_equiv_pos_as_xyz
  1  'x, y, z'
loop_
 _atom_site_type_symbol
 _atom_site_label
 _atom_site_symmetry_multiplicity
 _atom_site_fract_x
 _atom_site_fract_y
 _atom_site_fract_z
 _atom_site_occupancy
 _atom_site_hle17_bader_spin_density
 _atom_site_hle17_ddec_charge
 _atom_site_hle17_ddec_spin_density
 _atom_site_hle17_ddec_sum_bond_order
 _atom_site_hle17_magmom
 _atom_site_hse06_10hf_bader_spin_density
 _atom_site_hse06_10hf_ddec_charge
 _atom_site_hse06_10hf_ddec_spin_density
 _atom_site_hse06_10hf_ddec_sum_bond_order
 _atom_site_hse06_10hf_magmom
 _atom_site_hse06_bader_spin_density
 _atom_site_hse06_ddec_charge
 _atom_site_hse06_ddec_spin_density
 _atom_site_hse06_ddec_sum_bond_order
 _atom_site_hse06_magmom
 _atom_site_pbe_bader_spin_density
 _atom_site_pbe_cm5_charge
 _atom_site_pbe_ddec_charge
 _atom_site_pbe_ddec_spin_density
 _atom_site_pbe_ddec_sum_bond_order
 _atom_site_pbe_magmom
Zn  Zn0  1  0.70259690  0.95948322  0.71697559  1  0  1.055895  0  1.821855  0  0  0.86949  0  2.298302  0  0  0.919866  0  2.239057  0  0  0.689416  0.834294  0  2.339035  0
Zn  Zn1  1  0.29740053  0.04051962  0.28302395  1  0  1.055893  0  1.821865  0  0  0.869472  0  2.298312  0  0  0.919846  0  2.239063  0  0  0.6894  0.834278  0  2.339047  0
Cd  Cd2  1  0.99999985  0.99999850  0.50000018  1  0  1.298064  0  1.662771  0  0  1.1305  0  2.130721  0  0  1.187195  0  2.065984  0  0  0.793662  1.089143  0  2.176107  0
H  H3  1  0.51101120  0.84254515  0.54970800  1  0  0.092106  0  0.953862  0  0  0.103539  0  1.015155  0  0  0.106278  0  1.013839  0  0  0.101357  0.10159  0  1.0161  0
H  H4  1  0.48898326  0.15745258  0.45029188  1  0  0.092156  0  0.953757  0  0  0.103572  0  1.015081  0  0  0.106305  0  1.013765  0  0  0.101394  0.101624  0  1.016029  0
H  H5  1  0.44462492  0.72840237  0.44470906  1  0  0.092267  0  0.956954  0  0  0.104228  0  1.014215  0  0  0.106912  0  1.013306  0  0  0.099035  0.102314  0  1.015137  0
H  H6  1  0.55536739  0.27160255  0.55528778  1  0  0.092233  0  0.956948  0  0  0.104208  0  1.014194  0  0  0.106891  0  1.013286  0  0  0.099032  0.102293  0  1.015118  0
H  H7  1  0.62480267  0.64549163  0.26123156  1  0  0.081059  0  0.986917  0  0  0.092486  0  1.047721  0  0  0.093942  0  1.048989  0  0  0.093811  0.091396  0  1.046962  0
H  H8  1  0.37519325  0.35451225  0.73876595  1  0  0.081121  0  0.986872  0  0  0.092542  0  1.047685  0  0  0.093999  0  1.048952  0  0  0.093841  0.091452  0  1.04693  0
H  H9  1  0.86801635  0.67955362  0.18055095  1  0  0.078511  0  0.956144  0  0  0.090298  0  1.01615  0  0  0.092589  0  1.016471  0  0  0.093277  0.08885  0  1.015592  0
H  H10  1  0.13198563  0.32043893  0.81945303  1  0  0.078536  0  0.956231  0  0  0.090332  0  1.016214  0  0  0.092621  0  1.016538  0  0  0.093308  0.088881  0  1.015659  0
H  H11  1  0.92984885  0.79985428  0.28432580  1  0  0.091909  0  0.971577  0  0  0.098945  0  1.039741  0  0  0.101561  0  1.038913  0  0  0.096763  0.097029  0  1.040448  0
H  H12  1  0.07015540  0.20013313  0.71568154  1  0  0.091905  0  0.971519  0  0  0.099015  0  1.039658  0  0  0.101644  0  1.038792  0  0  0.096763  0.097086  0  1.040354  0
H  H13  1  0.95634635  0.65791044  0.93306266  1  0  0.09143  0  0.964344  0  0  0.100687  0  1.029386  0  0  0.103976  0  1.027248  0  0  0.101055  0.098364  0  1.030933  0
H  H14  1  0.04364940  0.34209138  0.06694061  1  0  0.091494  0  0.964297  0  0  0.100749  0  1.029336  0  0  0.104039  0  1.027198  0  0  0.1011  0.098426  0  1.030883  0
H  H15  1  0.15509992  0.50974715  0.02365263  1  0  0.082492  0  0.973067  0  0  0.094041  0  1.033037  0  0  0.096849  0  1.031852  0  0  0.097864  0.092022  0  1.033976  0
H  H16  1  0.84489538  0.49025570  0.97634982  1  0  0.082502  0  0.97299  0  0  0.094005  0  1.033015  0  0  0.096819  0  1.031825  0  0  0.097816  0.091987  0  1.033955  0
H  H17  1  0.43238766  0.45391118  0.91833111  1  0  0.091803  0  0.946258  0  0  0.103675  0  1.003702  0  0  0.106684  0  1.001969  0  0  0.102561  0.101397  0  1.005143  0
H  H18  1  0.56760796  0.54608859  0.08167260  1  0  0.091803  0  0.946265  0  0  0.103664  0  1.003728  0  0  0.106672  0  1.001996  0  0  0.102547  0.101382  0  1.005169  0
H  H19  1  0.50842493  0.54869422  0.72375024  1  0  0.088214  0  0.989014  0  0  0.096294  0  1.053536  0  0  0.097348  0  1.05655  0  0  0.097923  0.095549  0  1.051473  0
H  H20  1  0.49157245  0.45130862  0.27625539  1  0  0.088252  0  0.988948  0  0  0.096305  0  1.053493  0  0  0.097358  0  1.056509  0  0  0.097941  0.095563  0  1.051422  0
H  H21  1  0.30740307  0.69509526  0.63371088  1  0  0.103418  0  0.949698  0  0  0.113918  0  1.009374  0  0  0.117347  0  1.006807  0  0  0.106623  0.111415  0  1.011306  0
H  H22  1  0.69259596  0.30490859  0.36629330  1  0  0.103505  0  0.949669  0  0  0.113976  0  1.009375  0  0  0.117407  0  1.006804  0  0  0.106665  0.111472  0  1.011311  0
H  H23  1  0.81442025  0.31970603  0.52714158  1  0  0.106234  0  0.979577  0  0  0.114219  0  1.044833  0  0  0.117831  0  1.042124  0  0  0.100896  0.111632  0  1.046774  0
H  H24  1  0.18558712  0.68029573  0.47285446  1  0  0.106264  0  0.979546  0  0  0.11422  0  1.044829  0  0  0.117831  0  1.042117  0  0  0.100896  0.111633  0  1.046769  0
H  H25  1  0.85158170  0.53671553  0.49009595  1  0  0.091517  0  0.96384  0  0  0.101494  0  1.023503  0  0  0.103363  0  1.025187  0  0  0.099794  0.100096  0  1.022527  0
H  H26  1  0.14843319  0.46328105  0.50990342  1  0  0.091484  0  0.963889  0  0  0.101422  0  1.023605  0  0  0.103296  0  1.025282  0  0  0.099749  0.100021  0  1.02263  0
H  H27  1  0.82974991  0.64725821  0.64431308  1  0  0.098365  0  0.96243  0  0  0.107717  0  1.023298  0  0  0.110691  0  1.021803  0  0  0.100472  0.105698  0  1.024111  0
H  H28  1  0.17026197  0.35274044  0.35568527  1  0  0.098354  0  0.962408  0  0  0.107691  0  1.023297  0  0  0.110664  0  1.021806  0  0  0.100492  0.105671  0  1.024121  0
H  H29  1  0.76647218  0.54302487  0.83611397  1  0  0.081696  0  0.965332  0  0  0.094676  0  1.021908  0  0  0.097449  0  1.020949  0  0  0.095868  0.09253  0  1.022878  0
H  H30  1  0.23354015  0.45697275  0.16388443  1  0  0.081732  0  0.965332  0  0  0.094706  0  1.021911  0  0  0.097478  0  1.020948  0  0  0.095879  0.092562  0  1.022882  0
H  H31  1  0.72482073  0.32517071  0.87408543  1  0  0.091682  0  0.958741  0  0  0.100607  0  1.023724  0  0  0.104031  0  1.021672  0  0  0.100486  0.098104  0  1.025281  0
H  H32  1  0.27519268  0.67482691  0.12590962  1  0  0.091725  0  0.958659  0  0  0.100669  0  1.023632  0  0  0.104095  0  1.021575  0  0  0.100492  0.098159  0  1.025188  0
H  H33  1  0.51188301  0.82396896  0.72923324  1  0  0.084248  0  0.957241  0  0  0.091547  0  1.023965  0  0  0.09413  0  1.021406  0  0  0.117657  0.089746  0  1.025609  0
H  H34  1  0.48811185  0.17604210  0.27075863  1  0  0.08418  0  0.95738  0  0  0.091532  0  1.024055  0  0  0.094117  0  1.021495  0  0  0.117647  0.089743  0  1.02568  0
H  H35  1  0.26139624  0.81416706  0.84929446  1  0  0.099008  0  0.991799  0  0  0.108128  0  1.055742  0  0  0.109465  0  1.058721  0  0  0.101192  0.107196  0  1.053511  0
H  H36  1  0.73859816  0.18584504  0.15069659  1  0  0.098973  0  0.991793  0  0  0.10811  0  1.055695  0  0  0.109451  0  1.058663  0  0  0.101146  0.107174  0  1.053488  0
H  H37  1  0.21039020  0.10720234  0.04688954  1  0  0.115619  0  0.974778  0  0  0.122577  0  1.040061  0  0  0.125956  0  1.03884  0  0  0.106074  0.120115  0  1.041242  0
H  H38  1  0.78960741  0.89279537  0.95311094  1  0  0.115666  0  0.974764  0  0  0.122648  0  1.040016  0  0  0.126028  0  1.038792  0  0  0.106096  0.120186  0  1.041199  0
H  H39  1  0.46156372  0.10864918  0.91540083  1  0  0.088325  0  0.961684  0  0  0.097924  0  1.022025  0  0  0.100388  0  1.020023  0  0  0.117681  0.096182  0  1.023069  0
H  H40  1  0.53843356  0.89135160  0.08459991  1  0  0.088317  0  0.961701  0  0  0.097903  0  1.02206  0  0  0.100368  0  1.020058  0  0  0.117656  0.096157  0  1.023105  0
H  H41  1  0.07017288  0.85353935  0.05073781  1  0  0.083965  0  0.925228  0  0  0.101515  0  0.984852  0  0  0.102102  0  0.985611  0  0  0.097538  0.101196  0  0.984178  0
H  H42  1  0.92982396  0.14646247  0.94925906  1  0  0.083984  0  0.925206  0  0  0.101511  0  0.984859  0  0  0.102093  0  0.985621  0  0  0.097543  0.101192  0  0.984181  0
H  H43  1  0.02303074  0.00562872  0.10781045  1  0  0.09129  0  0.919409  0  0  0.109365  0  0.974342  0  0  0.110423  0  0.974661  0  0  0.100385  0.108548  0  0.97412  0
H  H44  1  0.97696505  0.99437311  0.89218673  1  0  0.09129  0  0.919376  0  0  0.109363  0  0.974314  0  0  0.110421  0  0.974633  0  0  0.100397  0.108545  0  0.974092  0
C  C45  1  0.76749943  0.89220838  0.48659978  1  0  0.677991  0  3.888074  0  0  0.625297  0  4.178873  0  0  0.661441  0  4.170748  0  0  0.219162  0.600537  0  4.183944  0
C  C46  1  0.23250164  0.10778623  0.51340179  1  0  0.677965  0  3.88799  0  0  0.625351  0  4.178662  0  0  0.661493  0  4.17054  0  0  0.219229  0.600583  0  4.183743  0
C  C47  1  0.72441758  0.82790320  0.42290559  1  0  -0.082562  0  3.763744  0  0  -0.055318  0  3.992291  0  0  -0.064815  0  4.015916  0  0  -0.022977  -0.048997  0  3.976345  0
C  C48  1  0.27558170  0.17208834  0.57709938  1  0  -0.082484  0  3.763738  0  0  -0.055206  0  3.992194  0  0  -0.064704  0  4.015822  0  0  -0.022934  -0.048887  0  3.976243  0
C  C49  1  0.58817114  0.80686514  0.46863981  1  0  -0.060962  0  3.737754  0  0  -0.088073  0  3.987587  0  0  -0.087322  0  4.008624  0  0  -0.084694  -0.08867  0  3.973465  0
C  C50  1  0.41182572  0.19312949  0.53136224  1  0  -0.061051  0  3.737668  0  0  -0.088173  0  3.987542  0  0  -0.087414  0  4.008572  0  0  -0.084744  -0.088771  0  3.973432  0
C  C51  1  0.55196669  0.74226005  0.41028335  1  0  -0.082401  0  3.770974  0  0  -0.092817  0  4.021982  0  0  -0.096669  0  4.043512  0  0  -0.09554  -0.090456  0  4.00786  0
C  C52  1  0.44803091  0.25773766  0.58971789  1  0  -0.082347  0  3.770769  0  0  -0.09276  0  4.021788  0  0  -0.096612  0  4.043316  0  0  -0.095524  -0.090397  0  4.007673  0
C  C53  1  0.65277333  0.69640045  0.30667972  1  0  -0.058365  0  3.763159  0  0  -0.074852  0  4.010355  0  0  -0.074923  0  4.032425  0  0  -0.092056  -0.07418  0  3.995266  0
C  C54  1  0.34722518  0.30359520  0.69332164  1  0  -0.058428  0  3.76321  0  0  -0.074928  0  4.010429  0  0  -0.074999  0  4.032498  0  0  -0.092089  -0.074259  0  3.995347  0
C  C55  1  0.78917085  0.71636089  0.26109534  1  0  -0.08306  0  3.792029  0  0  -0.093696  0  4.042581  0  0  -0.098132  0  4.065948  0  0  -0.096101  -0.09062  0  4.026034  0
C  C56  1  0.21083249  0.28362858  0.73891035  1  0  -0.083106  0  3.792028  0  0  -0.093728  0  4.042597  0  0  -0.098163  0  4.065965  0  0  -0.096123  -0.09065  0  4.02604  0
C  C57  1  0.82414550  0.78344467  0.31827531  1  0  -0.070388  0  3.74216  0  0  -0.094761  0  3.988054  0  0  -0.093872  0  4.009392  0  0  -0.087441  -0.09488  0  3.973277  0
C  C58  1  0.17585620  0.21654379  0.68173031  1  0  -0.07039  0  3.742079  0  0  -0.094892  0  3.987991  0  0  -0.094  0  4.009337  0  0  -0.087496  -0.094986  0  3.973177  0
C  C59  1  0.00269410  0.77489726  0.72175800  1  0  0.670472  0  3.887715  0  0  0.621221  0  4.172103  0  0  0.656923  0  4.164031  0  0  0.21831  0.597018  0  4.176678  0
C  C60  1  0.99730331  0.22510558  0.27824306  1  0  0.670582  0  3.887649  0  0  0.6213  0  4.172017  0  0  0.656999  0  4.163947  0  0  0.218341  0.597096  0  4.176597  0
C  C61  1  0.12045929  0.68446528  0.77757084  1  0  -0.073035  0  3.760847  0  0  -0.04779  0  3.989562  0  0  -0.056781  0  4.013272  0  0  -0.020563  -0.041969  0  3.973632  0
C  C62  1  0.87953706  0.31553756  0.22243205  1  0  -0.073204  0  3.761099  0  0  -0.047834  0  3.989662  0  0  -0.056824  0  4.013374  0  0  -0.020576  -0.042007  0  3.973726  0
C  C63  1  0.07760702  0.63285013  0.88778564  1  0  -0.078779  0  3.747479  0  0  -0.103212  0  3.994852  0  0  -0.102769  0  4.015927  0  0  -0.087397  -0.103416  0  3.980633  0
C  C64  1  0.92238979  0.36715168  0.11221732  1  0  -0.078833  0  3.747456  0  0  -0.103296  0  3.994788  0  0  -0.10285  0  4.015858  0  0  -0.08747  -0.103497  0  3.980567  0
C  C65  1  0.18949936  0.55021098  0.93821260  1  0  -0.088538  0  3.787739  0  0  -0.098117  0  4.034932  0  0  -0.102156  0  4.057263  0  0  -0.094179  -0.095414  0  4.019567  0
C  C66  1  0.81049851  0.44979083  0.06179005  1  0  -0.088472  0  3.787527  0  0  -0.098012  0  4.034726  0  0  -0.102059  0  4.057056  0  0  -0.094082  -0.09531  0  4.019356  0
C  C67  1  0.34461917  0.51956694  0.87944883  1  0  -0.058236  0  3.748979  0  0  -0.074496  0  3.996935  0  0  -0.074051  0  4.01595  0  0  -0.08547  -0.074553  0  3.983714  0
C  C68  1  0.65537659  0.48043488  0.12055520  1  0  -0.058227  0  3.749001  0  0  -0.074483  0  3.996934  0  0  -0.074038  0  4.015953  0  0  -0.085437  -0.074531  0  3.983706  0
C  C69  1  0.38772096  0.57200943  0.76974665  1  0  -0.081822  0  3.771801  0  0  -0.09107  0  4.019338  0  0  -0.094155  0  4.040575  0  0  -0.089791  -0.089052  0  4.004763  0
C  C70  1  0.61227748  0.42799340  0.23025715  1  0  -0.081902  0  3.771938  0  0  -0.091124  0  4.019493  0  0  -0.09421  0  4.040732  0  0  -0.089845  -0.08911  0  4.004913  0
C  C71  1  0.27618107  0.65344829  0.71901384  1  0  -0.063463  0  3.71842  0  0  -0.086424  0  3.960011  0  0  -0.085191  0  3.977933  0  0  -0.078237  -0.087007  0  3.947848  0
C  C72  1  0.72381633  0.34655455  0.28098951  1  0  -0.063465  0  3.718596  0  0  -0.086453  0  3.960165  0  0  -0.08522  0  3.978089  0  0  -0.07827  -0.087042  0  3.948003  0
C  C73  1  0.73558300  0.18363805  0.72892447  1  0  0.652454  0  3.877701  0  0  0.603711  0  4.161524  0  0  0.638096  0  4.155001  0  0  0.208339  0.580366  0  4.165514  0
C  C74  1  0.26441443  0.81636479  0.27107431  1  0  0.652488  0  3.877734  0  0  0.603662  0  4.161634  0  0  0.638047  0  4.155112  0  0  0.208311  0.580317  0  4.165625  0
C  C75  1  0.76799648  0.30897589  0.70321977  1  0  -0.077654  0  3.773864  0  0  -0.051012  0  4.003145  0  0  -0.059856  0  4.026607  0  0  -0.022081  -0.045426  0  3.9876  0
C  C76  1  0.23200410  0.69102693  0.29677883  1  0  -0.077598  0  3.773889  0  0  -0.050818  0  4.003005  0  0  -0.059664  0  4.026471  0  0  -0.022053  -0.045235  0  3.987456  0
C  C77  1  0.80400800  0.36831419  0.59491119  1  0  -0.066101  0  3.701524  0  0  -0.090781  0  3.944775  0  0  -0.090002  0  3.964053  0  0  -0.082845  -0.091174  0  3.931911  0
C  C78  1  0.19599711  0.63168553  0.40508743  1  0  -0.066173  0  3.701512  0  0  -0.090827  0  3.944723  0  0  -0.090049  0  3.964002  0  0  -0.082831  -0.091216  0  3.931854  0
C  C79  1  0.82558667  0.48991753  0.57411202  1  0  -0.069619  0  3.752587  0  0  -0.078271  0  3.999238  0  0  -0.081949  0  4.021359  0  0  -0.08763  -0.075922  0  3.984465  0
C  C80  1  0.17442475  0.51008216  0.42588550  1  0  -0.069569  0  3.752439  0  0  -0.078222  0  3.99911  0  0  -0.0819  0  4.021234  0  0  -0.087595  -0.075872  0  3.984333  0
C  C81  1  0.81334256  0.55202899  0.66076614  1  0  -0.055964  0  3.739386  0  0  -0.072791  0  3.990516  0  0  -0.072345  0  4.009952  0  0  -0.086761  -0.072884  0  3.976738  0
C  C82  1  0.18666709  0.44796763  0.33923174  1  0  -0.055956  0  3.739185  0  0  -0.072761  0  3.990331  0  0  -0.072316  0  4.009762  0  0  -0.086831  -0.072852  0  3.97656  0
C  C83  1  0.77773828  0.49292845  0.76883724  1  0  -0.089447  0  3.796213  0  0  -0.100558  0  4.046999  0  0  -0.104764  0  4.069581  0  0  -0.094968  -0.097653  0  4.031322  0
C  C84  1  0.22227136  0.50706817  0.23116064  1  0  -0.089427  0  3.796212  0  0  -0.100536  0  4.047005  0  0  -0.104736  0  4.069579  0  0  -0.094914  -0.097638  0  4.031329  0
C  C85  1  0.75465810  0.37209404  0.79032092  1  0  -0.083602  0  3.760623  0  0  -0.107227  0  4.008879  0  0  -0.106912  0  4.029175  0  0  -0.086512  -0.107117  0  3.995014  0
C  C86  1  0.24534747  0.62790465  0.20967852  1  0  -0.083732  0  3.760662  0  0  -0.107418  0  4.0089  0  0  -0.107103  0  4.029195  0  0  -0.08656  -0.107293  0  3.995022  0
C  C87  1  0.44044117  0.88533358  0.80027908  1  0  0.133156  0  3.7024  0  0  0.102357  0  3.94706  0  0  0.109952  0  3.966018  0  0  0.046124  0.09717  0  3.933965  0
C  C88  1  0.55955491  0.11467234  0.19971646  1  0  0.133193  0  3.70254  0  0  0.102321  0  3.947191  0  0  0.109912  0  3.966152  0  0  0.046057  0.097127  0  3.934111  0
C  C89  1  0.30088775  0.88105973  0.86753244  1  0  -0.172514  0  3.713501  0  0  -0.188182  0  3.955017  0  0  -0.197302  0  3.978408  0  0  -0.085099  -0.181623  0  3.938539  0
C  C90  1  0.69910728  0.11894621  0.13246189  1  0  -0.172546  0  3.713401  0  0  -0.1882  0  3.954974  0  0  -0.197314  0  3.978367  0  0  -0.085044  -0.181645  0  3.938503  0
C  C91  1  0.21353897  0.96142268  0.95808821  1  0  0.170267  0  3.705218  0  0  0.183963  0  3.943386  0  0  0.190229  0  3.963893  0  0  0.019686  0.17994  0  3.929446  0
C  C92  1  0.78645998  0.03857913  0.04190804  1  0  0.170366  0  3.705138  0  0  0.184006  0  3.943396  0  0  0.190264  0  3.963901  0  0  0.019736  0.179982  0  3.929456  0
C  C93  1  0.27154173  0.04507224  0.97601663  1  0  -0.155149  0  3.682733  0  0  -0.173076  0  3.931885  0  0  -0.18146  0  3.952577  0  0  -0.080751  -0.168451  0  3.91856  0
C  C94  1  0.72845648  0.95492649  0.02398271  1  0  -0.155233  0  3.682738  0  0  -0.173172  0  3.931895  0  0  -0.181554  0  3.952585  0  0  -0.080775  -0.168546  0  3.918568  0
C  C95  1  0.41165674  0.04524724  0.90497571  1  0  0.132864  0  3.704455  0  0  0.100664  0  3.954348  0  0  0.108071  0  3.97336  0  0  0.049396  0.095824  0  3.941327  0
C  C96  1  0.58834265  0.95475354  0.09502365  1  0  0.13287  0  3.704578  0  0  0.100669  0  3.954441  0  0  0.108074  0  3.973453  0  0  0.049417  0.095838  0  3.94141  0
C  C97  1  0.06070568  0.96017111  0.02994161  1  0  -0.151375  0  3.679668  0  0  -0.193616  0  3.9299  0  0  -0.195066  0  3.940978  0  0  -0.150117  -0.19256  0  3.922023  0
C  C98  1  0.93929283  0.03983173  0.97005304  1  0  -0.151369  0  3.679606  0  0  -0.193584  0  3.929865  0  0  -0.195023  0  3.940937  0  0  -0.150133  -0.192528  0  3.921983  0
N  N99  1  0.49575448  0.96612121  0.81859320  1  0  -0.341834  0  3.32177  0  0  -0.252473  0  3.596783  0  0  -0.274124  0  3.61242  0  0  -0.334246  -0.237662  0  3.586301  0
N  N100  1  0.50424415  0.03388367  0.18140407  1  0  -0.341796  0  3.321931  0  0  -0.252369  0  3.596865  0  0  -0.274019  0  3.612506  0  0  -0.334168  -0.237557  0  3.586381  0
O  O101  1  0.86683598  0.94189531  0.43344428  1  0  -0.643761  0  2.022715  0  0  -0.578944  0  2.274439  0  0  -0.608684  0  2.262971  0  0  -0.324481  -0.557995  0  2.281859  0
O  O102  1  0.13316253  0.05810034  0.56655708  1  0  -0.643801  0  2.022676  0  0  -0.579025  0  2.274375  0  0  -0.608778  0  2.262924  0  0  -0.324548  -0.558069  0  2.281789  0
O  O103  1  0.70040833  0.88979359  0.59116005  1  0  -0.667999  0  2.134469  0  0  -0.594781  0  2.421214  0  0  -0.624143  0  2.40517  0  0  -0.322892  -0.574355  0  2.431273  0
O  O104  1  0.29959379  0.11020102  0.40884349  1  0  -0.667955  0  2.134409  0  0  -0.59477  0  2.421144  0  0  -0.62413  0  2.405097  0  0  -0.322904  -0.574344  0  2.4312  0
O  O105  1  0.04978625  0.80596262  0.61948146  1  0  -0.655681  0  2.069678  0  0  -0.593011  0  2.326263  0  0  -0.620815  0  2.312068  0  0  -0.319499  -0.573628  0  2.335492  0
O  O106  1  0.95021345  0.19403508  0.38051992  1  0  -0.655709  0  2.069657  0  0  -0.593046  0  2.326269  0  0  -0.62085  0  2.312074  0  0  -0.31952  -0.573662  0  2.335502  0
O  O107  1  0.86072119  0.81522262  0.78259403  1  0  -0.645015  0  2.04544  0  0  -0.572  0  2.311312  0  0  -0.60029  0  2.294684  0  0  -0.323156  -0.55236  0  2.322196  0
O  O108  1  0.13927622  0.18478022  0.21740779  1  0  -0.645038  0  2.04539  0  0  -0.572036  0  2.311298  0  0  -0.600327  0  2.294671  0  0  -0.323159  -0.552398  0  2.322189  0
O  O109  1  0.77268456  0.11291098  0.64638401  1  0  -0.709463  0  2.128518  0  0  -0.62089  0  2.415524  0  0  -0.653612  0  2.39714  0  0  -0.335734  -0.59792  0  2.427724  0
O  O110  1  0.22731844  0.88708875  0.35361523  1  0  -0.709494  0  2.128441  0  0  -0.620928  0  2.415519  0  0  -0.653645  0  2.397131  0  0  -0.335751  -0.597959  0  2.427725  0
O  O111  1  0.67030863  0.14918812  0.82564201  1  0  -0.600543  0  1.942178  0  0  -0.551606  0  2.171028  0  0  -0.575352  0  2.163556  0  0  -0.30438  -0.534765  0  2.17545  0
O  O112  1  0.32968125  0.85081989  0.17435648  1  0  -0.600516  0  1.942188  0  0  -0.551558  0  2.171082  0  0  -0.575305  0  2.163611  0  0  -0.304318  -0.534723  0  2.175521  0
