# generated using pymatgen
data_NiH28C30(N4O3)2
_symmetry_space_group_name_H-M   'P 1'
_cell_length_a   7.59413483
_cell_length_b   8.86126692
_cell_length_c   11.02844987
_cell_angle_alpha   88.40736076
_cell_angle_beta   81.03708131
_cell_angle_gamma   83.23857809
_symmetry_Int_Tables_number   1
_chemical_formula_structural   NiH28C30(N4O3)2
_chemical_formula_sum   'Ni1 H28 C30 N8 O6'
_cell_volume   727.95028657
_cell_formula_units_Z   1
loop_
 _symmetry_equiv_pos_site_id
 _symmetry_equiv_pos_as_xyz
  1  'x, y, z'
loop_
 _atom_site_type_symbol
 _atom_site_label
 _atom_site_symmetry_multiplicity
 _atom_site_fract_x
 _atom_site_fract_y
 _atom_site_fract_z
 _atom_site_occupancy
 _atom_site_hle17_bader_spin_density
 _atom_site_hle17_ddec_charge
 _atom_site_hle17_ddec_spin_density
 _atom_site_hle17_ddec_sum_bond_order
 _atom_site_hle17_magmom
 _atom_site_hse06_10hf_bader_spin_density
 _atom_site_hse06_10hf_ddec_charge
 _atom_site_hse06_10hf_ddec_spin_density
 _atom_site_hse06_10hf_ddec_sum_bond_order
 _atom_site_hse06_10hf_magmom
 _atom_site_hse06_bader_spin_density
 _atom_site_hse06_ddec_charge
 _atom_site_hse06_ddec_spin_density
 _atom_site_hse06_ddec_sum_bond_order
 _atom_site_hse06_magmom
 _atom_site_pbe_bader_spin_density
 _atom_site_pbe_cm5_charge
 _atom_site_pbe_ddec_charge
 _atom_site_pbe_ddec_spin_density
 _atom_site_pbe_ddec_sum_bond_order
 _atom_site_pbe_magmom
Ni  Ni0  1  0.50001097  0.00000827  0.49999270  1  0  0.643763  0  2.199031  0  0  0.605364  0  2.658823  0  0  0.691689  0  2.573705  0  0  0.59719  0.555014  0  2.714632  0
H  H1  1  0.17236895  0.26528571  0.23823000  1  0  0.312766  0  0.933525  0  0  0.294942  0  0.993746  0  0  0.303361  0  0.987379  0  0  0.306663  0.288924  0  0.998283  0
H  H2  1  0.82762461  0.73471801  0.76177083  1  0  0.312849  0  0.933526  0  0  0.294995  0  0.993741  0  0  0.303419  0  0.987368  0  0  0.306661  0.288975  0  0.998279  0
H  H3  1  0.83998768  0.82719935  0.52590779  1  0  0.401522  0  0.897609  0  0  0.371682  0  0.964222  0  0  0.382282  0  0.948052  0  0  0.278869  0.363778  0  0.976399  0
H  H4  1  0.16002335  0.17280785  0.47411402  1  0  0.401379  0  0.89784  0  0  0.371552  0  0.964395  0  0  0.382153  0  0.948222  0  0  0.278827  0.363655  0  0.976559  0
H  H5  1  0.95035252  0.74887035  0.40460712  1  0  0.395007  0  0.90776  0  0  0.365216  0  0.974725  0  0  0.375735  0  0.959304  0  0  0.276303  0.357921  0  0.985465  0
H  H6  1  0.04964455  0.25113351  0.59540699  1  0  0.394908  0  0.907882  0  0  0.365128  0  0.974857  0  0  0.375645  0  0.959439  0  0  0.276231  0.357832  0  0.985598  0
H  H7  1  0.54798937  0.72421966  0.32424028  1  0  0.101401  0  0.970835  0  0  0.108086  0  1.039407  0  0  0.110147  0  1.037311  0  0  0.135521  0.106411  0  1.041237  0
H  H8  1  0.45200628  0.27578268  0.67574317  1  0  0.101487  0  0.970939  0  0  0.108214  0  1.039442  0  0  0.110272  0  1.037336  0  0  0.135571  0.106536  0  1.041276  0
H  H9  1  0.20737611  0.82003057  0.66045812  1  0  0.113667  0  0.947603  0  0  0.12383  0  1.004448  0  0  0.126427  0  1.002699  0  0  0.121469  0.121815  0  1.006075  0
H  H10  1  0.79264144  0.17998422  0.33954111  1  0  0.113306  0  0.947777  0  0  0.123551  0  1.00453  0  0  0.126149  0  1.00278  0  0  0.121317  0.121537  0  1.006155  0
H  H11  1  0.14298529  0.54070277  0.57167324  1  0  0.128532  0  0.964207  0  0  0.136406  0  1.026595  0  0  0.138719  0  1.026043  0  0  0.126143  0.134536  0  1.027527  0
H  H12  1  0.85703329  0.45931319  0.42833039  1  0  0.128515  0  0.964319  0  0  0.13645  0  1.026606  0  0  0.138765  0  1.026053  0  0  0.12617  0.134575  0  1.027542  0
H  H13  1  0.34468401  0.36724002  0.39501435  1  0  0.127529  0  0.934938  0  0  0.138907  0  0.995818  0  0  0.140607  0  0.99519  0  0  0.125584  0.137322  0  0.996854  0
H  H14  1  0.65529387  0.63276052  0.60498982  1  0  0.127591  0  0.934789  0  0  0.138874  0  0.995776  0  0  0.140577  0  0.995147  0  0  0.125566  0.137292  0  0.996811  0
H  H15  1  0.47479853  0.46693622  0.27706863  1  0  0.101092  0  0.934284  0  0  0.112175  0  1.000351  0  0  0.113472  0  1.001241  0  0  0.117532  0.111287  0  0.999627  0
H  H16  1  0.52518992  0.53304154  0.72293886  1  0  0.100986  0  0.934199  0  0  0.112139  0  1.000219  0  0  0.113437  0  1.001109  0  0  0.117526  0.111252  0  0.999496  0
H  H17  1  0.88877107  0.25015297  0.08593699  1  0  0.096948  0  0.962714  0  0  0.110774  0  1.018506  0  0  0.113331  0  1.017406  0  0  0.101054  0.108863  0  1.019265  0
H  H18  1  0.11121666  0.74984182  0.91407098  1  0  0.096945  0  0.962809  0  0  0.110774  0  1.018596  0  0  0.11333  0  1.017495  0  0  0.101054  0.108861  0  1.019355  0
H  H19  1  0.63381092  0.41739836  0.01887716  1  0  0.081716  0  0.964091  0  0  0.095259  0  1.024408  0  0  0.097365  0  1.024252  0  0  0.094201  0.093634  0  1.024806  0
H  H20  1  0.36617941  0.58258943  0.98111807  1  0  0.081607  0  0.964267  0  0  0.095151  0  1.024572  0  0  0.097253  0  1.024422  0  0  0.09415  0.093566  0  1.024919  0
H  H21  1  0.58889902  0.69407819  0.06318220  1  0  0.078778  0  0.979664  0  0  0.088279  0  1.047512  0  0  0.089998  0  1.048681  0  0  0.089612  0.086935  0  1.047072  0
H  H22  1  0.41110274  0.30591728  0.93680179  1  0  0.078847  0  0.979628  0  0  0.088339  0  1.047507  0  0  0.09006  0  1.048675  0  0  0.089648  0.087004  0  1.04703  0
H  H23  1  0.79649059  0.81048873  0.17804464  1  0  0.105662  0  0.961994  0  0  0.116269  0  1.022549  0  0  0.119297  0  1.020857  0  0  0.102049  0.113948  0  1.023741  0
H  H24  1  0.20350643  0.18951358  0.82193777  1  0  0.105704  0  0.962213  0  0  0.116328  0  1.022718  0  0  0.119357  0  1.021026  0  0  0.1021  0.114007  0  1.023907  0
H  H25  1  0.19514822  0.96285895  0.10856579  1  0  0.106134  0  0.934674  0  0  0.115829  0  0.993489  0  0  0.119561  0  0.991068  0  0  0.107188  0.113479  0  0.994663  0
H  H26  1  0.80484531  0.03713562  0.89142896  1  0  0.106128  0  0.934703  0  0  0.115831  0  0.993504  0  0  0.119561  0  0.991083  0  0  0.107185  0.113483  0  0.994677  0
H  H27  1  0.72675121  0.07537069  0.11891763  1  0  0.091425  0  0.963207  0  0  0.102046  0  1.024135  0  0  0.105092  0  1.022072  0  0  0.104222  0.100172  0  1.025092  0
H  H28  1  0.27326091  0.92462368  0.88107814  1  0  0.091444  0  0.963204  0  0  0.102076  0  1.024102  0  0  0.105107  0  1.022055  0  0  0.104227  0.1002  0  1.025057  0
C  C29  1  0.44469010  0.71613850  0.40279039  1  0  0.17249  0  3.598411  0  0  0.112749  0  3.86295  0  0  0.130456  0  3.874221  0  0  0.148506  0.101281  0  3.856128  0
C  C30  1  0.55530692  0.28387189  0.59720268  1  0  0.172299  0  3.59821  0  0  0.112551  0  3.862734  0  0  0.130265  0  3.873992  0  0  0.148448  0.101085  0  3.855921  0
C  C31  1  0.26715702  0.75883453  0.57793020  1  0  -0.009183  0  3.714739  0  0  -0.040006  0  3.980184  0  0  -0.036004  0  3.999545  0  0  -8.7e-05  -0.043675  0  3.968799  0
C  C32  1  0.73286151  0.24117928  0.42208257  1  0  -0.008591  0  3.715207  0  0  -0.039466  0  3.980573  0  0  -0.035465  0  3.999941  0  0  0.000196  -0.043133  0  3.969183  0
C  C33  1  0.23393699  0.62217273  0.53589139  1  0  -0.055233  0  3.650479  0  0  -0.098135  0  3.914466  0  0  -0.096713  0  3.933015  0  0  0.004926  -0.09888  0  3.902891  0
C  C34  1  0.76608346  0.37784085  0.46410489  1  0  -0.055389  0  3.650584  0  0  -0.098293  0  3.914556  0  0  -0.09688  0  3.933117  0  0  0.00485  -0.099031  0  3.902974  0
C  C35  1  0.34834904  0.47382331  0.34195659  1  0  -0.106104  0  3.642024  0  0  -0.164062  0  3.878146  0  0  -0.162816  0  3.887002  0  0  -0.037838  -0.164654  0  3.872085  0
C  C36  1  0.65164646  0.52617474  0.65804604  1  0  -0.106051  0  3.641707  0  0  -0.163931  0  3.877785  0  0  -0.162694  0  3.886641  0  0  -0.037777  -0.164519  0  3.871727  0
C  C37  1  0.18943235  0.49804730  0.27525824  1  0  0.378061  0  3.71018  0  0  0.350302  0  3.993447  0  0  0.366998  0  4.00492  0  0  0.226433  0.339253  0  3.985115  0
C  C38  1  0.81055868  0.50195641  0.72473920  1  0  0.378208  0  3.710043  0  0  0.350448  0  3.993226  0  0  0.367153  0  4.004694  0  0  0.226516  0.339391  0  3.984905  0
C  C39  1  0.98154967  0.43751191  0.17129791  1  0  0.151884  0  3.815829  0  0  0.145841  0  4.056066  0  0  0.149726  0  4.079933  0  0  0.091043  0.143303  0  4.039739  0
C  C40  1  0.01843729  0.56248970  0.82870903  1  0  0.152372  0  3.815479  0  0  0.146119  0  4.055903  0  0  0.150009  0  4.079767  0  0  0.091151  0.143576  0  4.039576  0
C  C41  1  0.86675310  0.37065256  0.10746113  1  0  -0.158222  0  3.786311  0  0  -0.176471  0  4.040619  0  0  -0.179918  0  4.062106  0  0  -0.098681  -0.174019  0  4.026119  0
C  C42  1  0.13323012  0.62934682  0.89254621  1  0  -0.158403  0  3.786494  0  0  -0.176615  0  4.040851  0  0  -0.180059  0  4.062334  0  0  -0.098729  -0.174167  0  4.026366  0
C  C43  1  0.72527294  0.46583143  0.06987178  1  0  -0.07962  0  3.80608  0  0  -0.098958  0  4.068083  0  0  -0.100358  0  4.09015  0  0  -0.105964  -0.09801  0  4.053361  0
C  C44  1  0.27471405  0.53416208  0.93012360  1  0  -0.079457  0  3.805973  0  0  -0.098776  0  4.067987  0  0  -0.100175  0  4.090054  0  0  -0.105919  -0.097859  0  4.053252  0
C  C45  1  0.70076351  0.62293028  0.09434688  1  0  -0.100782  0  3.811704  0  0  -0.120417  0  4.076481  0  0  -0.12316  0  4.099378  0  0  -0.110434  -0.118702  0  4.061298  0
C  C46  1  0.29922648  0.37706090  0.90564647  1  0  -0.100977  0  3.811446  0  0  -0.120639  0  4.076297  0  0  -0.123386  0  4.099188  0  0  -0.110603  -0.118918  0  4.061128  0
C  C47  1  0.81689009  0.68970128  0.15725003  1  0  -0.138269  0  3.744721  0  0  -0.155088  0  3.990579  0  0  -0.157493  0  4.010972  0  0  -0.095457  -0.153347  0  3.976942  0
C  C48  1  0.18309823  0.31029330  0.84274157  1  0  -0.138264  0  3.744718  0  0  -0.155102  0  3.990553  0  0  -0.157507  0  4.010943  0  0  -0.095394  -0.153364  0  3.976919  0
C  C49  1  0.95944767  0.59574196  0.19573353  1  0  0.141771  0  3.838748  0  0  0.146368  0  4.081006  0  0  0.148418  0  4.105015  0  0  0.082219  0.144912  0  4.064781  0
C  C50  1  0.04053819  0.40425849  0.80427082  1  0  0.141681  0  3.838641  0  0  0.146368  0  4.080891  0  0  0.148421  0  4.1049  0  0  0.082221  0.144909  0  4.064672  0
C  C51  1  0.40674146  0.04539986  0.26329478  1  0  0.626097  0  3.875841  0  0  0.576847  0  4.179134  0  0  0.61403  0  4.172982  0  0  0.217249  0.551568  0  4.182183  0
C  C52  1  0.59326198  0.95459920  0.73670528  1  0  0.626253  0  3.876141  0  0  0.577009  0  4.179418  0  0  0.614192  0  4.173264  0  0  0.217293  0.551751  0  4.18247  0
C  C53  1  0.32782461  0.98021335  0.06007376  1  0  -0.075378  0  3.729857  0  0  -0.099441  0  3.981464  0  0  -0.10099  0  4.002014  0  0  -0.081327  -0.098245  0  3.967504  0
C  C54  1  0.67217792  0.01978448  0.93991825  1  0  -0.075413  0  3.729838  0  0  -0.099456  0  3.981438  0  0  -0.101004  0  4.001989  0  0  -0.081321  -0.098241  0  3.967513  0
C  C55  1  0.45596186  0.02332211  0.12704299  1  0  -0.053562  0  3.751409  0  0  -0.032623  0  3.985973  0  0  -0.039003  0  4.007864  0  0  -0.012937  -0.028175  0  3.971112  0
C  C56  1  0.54404081  0.97668485  0.87295238  1  0  -0.053567  0  3.751617  0  0  -0.032648  0  3.986166  0  0  -0.039027  0  4.008051  0  0  -0.012942  -0.028279  0  3.971414  0
C  C57  1  0.62806803  0.04256641  0.06597168  1  0  -0.076622  0  3.749423  0  0  -0.099801  0  4.000595  0  0  -0.100401  0  4.021071  0  0  -0.083409  -0.099318  0  3.986814  0
C  C58  1  0.37193991  0.95743024  0.93402169  1  0  -0.076724  0  3.749682  0  0  -0.099868  0  4.00081  0  0  -0.100454  0  4.021289  0  0  -0.083419  -0.099359  0  3.98705  0
N  N59  1  0.39882980  0.81604529  0.49392866  1  0  -0.295032  0  3.381618  0  0  -0.246346  0  3.690278  0  0  -0.277165  0  3.704451  0  0  -0.366585  -0.227581  0  3.682322  0
N  N60  1  0.60119619  0.18395680  0.50606200  1  0  -0.295129  0  3.381492  0  0  -0.246466  0  3.690219  0  0  -0.27728  0  3.704381  0  0  -0.366689  -0.22771  0  3.682281  0
N  N61  1  0.34739652  0.59748755  0.42575181  1  0  -0.036759  0  3.591848  0  0  0.05439  0  3.808157  0  0  0.040143  0  3.833439  0  0  -0.237884  0.063293  0  3.791575  0
N  N62  1  0.65260451  0.40252170  0.57424455  1  0  -0.036629  0  3.591512  0  0  0.054448  0  3.807896  0  0  0.040208  0  3.83317  0  0  -0.23796  0.063351  0  3.791319  0
N  N63  1  0.12960965  0.37894833  0.22321540  1  0  -0.396879  0  3.349303  0  0  -0.337332  0  3.576244  0  0  -0.356423  0  3.589158  0  0  -0.382178  -0.324237  0  3.567115  0
N  N64  1  0.87037997  0.62105433  0.77678763  1  0  -0.397306  0  3.349374  0  0  -0.33759  0  3.576242  0  0  -0.356697  0  3.589164  0  0  -0.382251  -0.324481  0  3.567115  0
N  N65  1  0.09293564  0.63027505  0.26029715  1  0  -0.478066  0  2.965919  0  0  -0.44691  0  3.228703  0  0  -0.461902  0  3.239738  0  0  -0.346604  -0.436622  0  3.221125  0
N  N66  1  0.90706373  0.36972626  0.73969778  1  0  -0.478072  0  2.965888  0  0  -0.446948  0  3.228676  0  0  -0.461944  0  3.239708  0  0  -0.346654  -0.436655  0  3.221103  0
O  O67  1  0.53746264  0.00794250  0.32451966  1  0  -0.532594  0  2.133598  0  0  -0.495365  0  2.422728  0  0  -0.539698  0  2.41347  0  0  -0.285598  -0.465423  0  2.427749  0
O  O68  1  0.46254664  0.99206331  0.67548058  1  0  -0.532521  0  2.133449  0  0  -0.495376  0  2.4227  0  0  -0.539714  0  2.413456  0  0  -0.285543  -0.465424  0  2.427695  0
O  O69  1  0.24807745  0.09479384  0.30735836  1  0  -0.602978  0  1.974065  0  0  -0.554691  0  2.194769  0  0  -0.579291  0  2.183853  0  0  -0.303325  -0.537663  0  2.20209  0
O  O70  1  0.75192781  0.90521419  0.69263492  1  0  -0.603102  0  1.974278  0  0  -0.554783  0  2.194978  0  0  -0.579385  0  2.184058  0  0  -0.303352  -0.537751  0  2.202294  0
O  O71  1  0.83556315  0.75584196  0.46038352  1  0  -0.839068  0  1.82896  0  0  -0.803277  0  2.002056  0  0  -0.819719  0  1.970666  0  0  -0.60706  -0.791648  0  2.02507  0
O  O72  1  0.16447374  0.24410633  0.53966936  1  0  -0.838812  0  1.829215  0  0  -0.803027  0  2.002178  0  0  -0.819466  0  1.970792  0  0  -0.606962  -0.791401  0  2.025188  0
