# generated using pymatgen
data_ZnH22C32S2(NO2)4
_symmetry_space_group_name_H-M   'P 1'
_cell_length_a   14.27564211
_cell_length_b   15.67384511
_cell_length_c   16.18718223
_cell_angle_alpha   67.60341441
_cell_angle_beta   79.06823575
_cell_angle_gamma   72.61627111
_symmetry_Int_Tables_number   1
_chemical_formula_structural   ZnH22C32S2(NO2)4
_chemical_formula_sum   'Zn4 H88 C128 S8 N16 O32'
_cell_volume   3183.97291453
_cell_formula_units_Z   4
loop_
 _symmetry_equiv_pos_site_id
 _symmetry_equiv_pos_as_xyz
  1  'x, y, z'
loop_
 _atom_site_type_symbol
 _atom_site_label
 _atom_site_symmetry_multiplicity
 _atom_site_fract_x
 _atom_site_fract_y
 _atom_site_fract_z
 _atom_site_occupancy
 _atom_site_pbe_bader_charge
 _atom_site_pbe_bader_spin_density
 _atom_site_pbe_cm5_charge
 _atom_site_pbe_ddec_charge
 _atom_site_pbe_ddec_spin_density
 _atom_site_pbe_ddec_sum_bond_order
 _atom_site_pbe_magmom
Zn  Zn0  1  0.08244680  0.32550032  0.90553943  1  1.262732  0  0.695554  0.783883  0  2.364828  0
Zn  Zn1  1  0.91755406  0.67450040  0.09446038  1  1.262793  0  0.695555  0.783881  0  2.364806  0
Zn  Zn2  1  0.44283547  0.10526822  0.65053522  1  1.265784  0  0.704829  0.807971  0  2.325581  0
Zn  Zn3  1  0.55716451  0.89473038  0.34946366  1  1.265787  0  0.704823  0.807934  0  2.325485  0
H  H4  1  0.39463641  0.41673589  0.69371556  1  0.094092  0  0.107706  0.114678  0  0.997131  0
H  H5  1  0.60536536  0.58326412  0.30628251  1  0.094086  0  0.10769  0.114619  0  0.997101  0
H  H6  1  0.55378892  0.45648900  0.69480114  1  0.094239  0  0.110473  0.118059  0  0.987868  0
H  H7  1  0.44620963  0.54351245  0.30519878  1  0.094289  0  0.110483  0.118058  0  0.987868  0
H  H8  1  0.45591775  0.47683741  0.95715080  1  0.09339  0  0.105848  0.110617  0  1.03912  0
H  H9  1  0.54407884  0.52316620  0.04284803  1  0.093328  0  0.10586  0.110635  0  1.039141  0
H  H10  1  0.30332454  0.43091878  0.95730024  1  0.105521  0  0.10909  0.115867  0  1.00816  0
H  H11  1  0.69667062  0.56908484  0.04269758  1  0.105641  0  0.109091  0.115881  0  1.008158  0
H  H12  1  0.55263783  0.63308520  0.91147546  1  0.083768  0  0.105128  0.109173  0  1.021351  0
H  H13  1  0.44736430  0.36691339  0.08852184  1  0.083692  0  0.105116  0.109148  0  1.021415  0
H  H14  1  0.51303316  0.81074405  0.84342381  1  0.069837  0  0.101255  0.105058  0  1.034982  0
H  H15  1  0.48696950  0.18925523  0.15657439  1  0.069877  0  0.101315  0.105174  0  1.035012  0
H  H16  1  0.61751049  0.79131991  0.58307716  1  0.137685  0  0.105831  0.112356  0  1.030689  0
H  H17  1  0.38249181  0.20868080  0.41692056  1  0.137743  0  0.105829  0.112326  0  1.030696  0
H  H18  1  0.65690810  0.61357642  0.64888432  1  0.123733  0  0.109695  0.118741  0  0.999837  0
H  H19  1  0.34309332  0.38642501  0.35111143  1  0.123555  0  0.10968  0.118732  0  0.999962  0
H  H20  1  0.21925510  0.05134378  0.53973374  1  0.108286  0  0.109784  0.116655  0  1.011761  0
H  H21  1  0.78074342  0.94865199  0.46027075  1  0.108292  0  0.109769  0.116623  0  1.011802  0
H  H22  1  0.06105512  0.05072142  0.49827793  1  0.126412  0  0.106155  0.117146  0  1.04057  0
H  H23  1  0.93894414  0.94927718  0.50172107  1  0.126448  0  0.106178  0.11716  0  1.04059  0
H  H24  1  0.93940130  0.34064062  0.49190365  1  0.122192  0  0.11424  0.125991  0  0.981049  0
H  H25  1  0.06059848  0.65935585  0.50809852  1  0.122155  0  0.114256  0.125991  0  0.981038  0
H  H26  1  0.10273516  0.34036296  0.53116379  1  0.097391  0  0.110996  0.118477  0  0.985892  0
H  H27  1  0.89726336  0.65963281  0.46884007  1  0.097611  0  0.110968  0.118403  0  0.98589  0
H  H28  1  0.95630492  0.07991540  0.35188620  1  0.088965  0  0.104643  0.108717  0  1.012814  0
H  H29  1  0.04369988  0.92008386  0.64811288  1  0.088995  0  0.104671  0.108738  0  1.012805  0
H  H30  1  0.01040532  0.12678705  0.18687073  1  0.101268  0  0.102566  0.109002  0  1.029191  0
H  H31  1  0.98960108  0.87321149  0.81312960  1  0.101189  0  0.102573  0.108978  0  1.029268  0
H  H32  1  0.90218662  0.42207251  0.15834759  1  0.128558  0  0.109806  0.116101  0  1.008783  0
H  H33  1  0.09780978  0.57792612  0.84165248  1  0.128729  0  0.109788  0.116102  0  1.008799  0
H  H34  1  0.84811195  0.37769510  0.32298190  1  0.134791  0  0.110731  0.121273  0  0.993276  0
H  H35  1  0.15188194  0.62230213  0.67701848  1  0.134751  0  0.110758  0.121274  0  0.993303  0
H  H36  1  0.94110521  0.51873858  0.91851267  1  0.233952  0  0.142119  0.12923  0  1.045862  0
H  H37  1  0.05889386  0.48126074  0.08148980  1  0.233978  0  0.142124  0.129233  0  1.04588  0
H  H38  1  0.99479386  0.41278967  0.70610501  1  0.110933  0  0.123144  0.118111  0  0.991156  0
H  H39  1  0.00520164  0.58721253  0.29389513  1  0.110821  0  0.123109  0.118078  0  0.991139  0
H  H40  1  0.86723673  0.59328912  0.65307876  1  0.172749  0  0.125258  0.127546  0  1.015624  0
H  H41  1  0.13276145  0.40671375  0.34692255  1  0.173408  0  0.125277  0.127585  0  1.015623  0
H  H42  1  0.80667346  0.62427424  0.93457117  1  0.120108  0  0.11698  0.128522  0  1.009794  0
H  H43  1  0.19332651  0.37572720  0.06543038  1  0.120106  0  0.116948  0.128449  0  1.009803  0
H  H44  1  0.73357474  0.78397934  0.94208057  1  0.111081  0  0.111081  0.115581  0  1.00988  0
H  H45  1  0.26642558  0.21602352  0.05792102  1  0.111137  0  0.111055  0.115572  0  1.009839  0
H  H46  1  0.77511105  0.90682799  0.65301254  1  0.11469  0  0.114421  0.125241  0  0.989103  0
H  H47  1  0.22489017  0.09317415  0.34698855  1  0.114628  0  0.114419  0.125259  0  0.989111  0
H  H48  1  0.85381886  0.74495339  0.64578867  1  0.097399  0  0.102931  0.106186  0  1.051039  0
H  H49  1  0.14618181  0.25504804  0.35421338  1  0.097335  0  0.102961  0.106238  0  1.051084  0
H  H50  1  0.79202921  0.95582041  0.95566840  1  0.10618  0  0.115062  0.124672  0  0.973  0
H  H51  1  0.20796916  0.04417891  0.04433047  1  0.106179  0  0.115086  0.124674  0  0.973026  0
H  H52  1  0.92429748  0.02491494  0.96301859  1  0.108576  0  0.109763  0.121679  0  1.028589  0
H  H53  1  0.07569909  0.97508582  0.03698315  1  0.108068  0  0.109735  0.121628  0  1.028628  0
H  H54  1  0.95751946  0.14123388  0.67355910  1  0.094708  0  0.103315  0.109632  0  1.044305  0
H  H55  1  0.04247193  0.85877617  0.32644191  1  0.094727  0  0.103304  0.109648  0  1.044222  0
H  H56  1  0.82598840  0.07100511  0.66616784  1  0.125207  0  0.109302  0.122156  0  1.018947  0
H  H57  1  0.17400479  0.92900351  0.33383156  1  0.125301  0  0.109369  0.122262  0  1.018862  0
H  H58  1  0.96300184  0.17785299  0.93547715  1  0.206593  0  0.138259  0.111534  0  1.039441  0
H  H59  1  0.03699724  0.82214917  0.06452366  1  0.206602  0  0.138265  0.111564  0  1.039415  0
H  H60  1  0.11459493  0.12364195  0.70111753  1  0.138487  0  0.120951  0.118568  0  1.049926  0
H  H61  1  0.88540057  0.87635740  0.29888427  1  0.138475  0  0.120953  0.118577  0  1.049907  0
H  H62  1  0.19271049  0.24853530  0.73676912  1  0.173651  0  0.12644  0.133866  0  1.008493  0
H  H63  1  0.80728894  0.75146259  0.26323196  1  0.173636  0  0.126426  0.133866  0  1.008404  0
H  H64  1  0.57893982  0.07541171  0.48550765  1  0.240532  0  0.142143  0.127213  0  1.048535  0
H  H65  1  0.42106104  0.92458902  0.51449216  1  0.240529  0  0.142157  0.12722  0  1.048543  0
H  H66  1  0.48736876  0.31832251  0.56056897  1  0.087751  0  0.125166  0.119543  0  0.988498  0
H  H67  1  0.51263069  0.68167823  0.43942983  1  0.087736  0  0.125147  0.119528  0  0.988539  0
H  H68  1  0.59863966  0.36352788  0.39699863  1  0.125366  0  0.125733  0.127504  0  1.010283  0
H  H69  1  0.40136210  0.63647213  0.60300069  1  0.1254  0  0.12574  0.127521  0  1.010277  0
H  H70  1  0.63765394  0.35994106  0.26207265  1  0.099833  0  0.105106  0.11017  0  1.031319  0
H  H71  1  0.36234801  0.64005823  0.73792566  1  0.099796  0  0.105117  0.110178  0  1.031381  0
H  H72  1  0.71335494  0.34145743  0.11676245  1  0.138316  0  0.115976  0.129054  0  0.982951  0
H  H73  1  0.28664611  0.65853974  0.88323678  1  0.13829  0  0.115955  0.129026  0  0.983029  0
H  H74  1  0.75531592  0.03647061  0.23905721  1  0.116392  0  0.11004  0.113187  0  1.012117  0
H  H75  1  0.24468725  0.96352654  0.76094602  1  0.116438  0  0.110059  0.113258  0  1.012087  0
H  H76  1  0.67777271  0.05376002  0.38143290  1  0.091765  0  0.114552  0.125328  0  1.026449  0
H  H77  1  0.32223136  0.94623925  0.61856939  1  0.091949  0  0.114542  0.125335  0  1.02643  0
H  H78  1  0.62932111  0.08106864  0.12575611  1  0.131177  0  0.109724  0.113722  0  1.022627  0
H  H79  1  0.37067797  0.91893067  0.87424513  1  0.131185  0  0.109755  0.113758  0  1.022644  0
H  H80  1  0.50717570  0.07655957  0.04034692  1  0.101779  0  0.111638  0.129563  0  1.031704  0
H  H81  1  0.49282320  0.92344046  0.95965346  1  0.101779  0  0.111615  0.129537  0  1.031755  0
H  H82  1  0.62377326  0.27029705  0.79929001  1  0.099117  0  0.109473  0.117376  0  1.005546  0
H  H83  1  0.37622974  0.72970081  0.20071051  1  0.099129  0  0.109495  0.117428  0  1.005489  0
H  H84  1  0.74664532  0.27499233  0.88566349  1  0.124324  0  0.112905  0.125125  0  1.006298  0
H  H85  1  0.25335446  0.72500698  0.11433887  1  0.124329  0  0.112927  0.125163  0  1.006236  0
H  H86  1  0.37551103  0.12510532  0.96992429  1  0.144944  0  0.125813  0.134207  0  1.043499  0
H  H87  1  0.62448754  0.87489898  0.03007149  1  0.14498  0  0.125787  0.134181  0  1.04351  0
H  H88  1  0.30150667  0.10884474  0.83173828  1  0.12698  0  0.119916  0.110915  0  1.018408  0
H  H89  1  0.69849405  0.89116239  0.16825550  1  0.126906  0  0.119976  0.11094  0  1.018329  0
H  H90  1  0.56915389  0.18873563  0.73351601  1  0.168337  0  0.142623  0.10996  0  0.997671  0
H  H91  1  0.43085216  0.81126149  0.26648304  1  0.168411  0  0.142592  0.109933  0  0.997687  0
C  C92  1  0.25086546  0.38753732  0.82695426  1  1.580865  0  0.192088  0.54796  0  4.257905  0
C  C93  1  0.74913328  0.61246343  0.17304342  1  1.580958  0  0.19206  0.547882  0  4.257921  0
C  C94  1  0.34131247  0.41916746  0.82604727  1  -0.014907  0  -0.007406  -0.005723  0  3.932274  0
C  C95  1  0.65868771  0.58083327  0.17394894  1  -0.015068  0  -0.007391  -0.005631  0  3.932401  0
C  C96  1  0.41049760  0.42914762  0.75094640  1  -0.04634  0  -0.084325  -0.103501  0  3.973354  0
C  C97  1  0.58950275  0.57085240  0.24905066  1  -0.045831  0  -0.084295  -0.103445  0  3.973357  0
C  C98  1  0.49765211  0.45194701  0.75127091  1  -0.083363  0  -0.088095  -0.114675  0  4.025349  0
C  C99  1  0.50234716  0.54805444  0.24872766  1  -0.083841  0  -0.088078  -0.114635  0  4.025362  0
C  C100  1  0.51414300  0.46654808  0.82690870  1  -0.197567  0  -0.022987  -0.084429  0  3.997365  0
C  C101  1  0.48585680  0.53345408  0.17308952  1  -0.197232  0  -0.022986  -0.0844  0  3.997277  0
C  C102  1  0.44369484  0.46192444  0.90016495  1  -0.002134  0  -0.082378  -0.090189  0  3.975394  0
C  C103  1  0.55630390  0.53807915  0.09983231  1  -0.002507  0  -0.082434  -0.090312  0  3.975435  0
C  C104  1  0.35791704  0.43709951  0.89980508  1  -0.025672  0  -0.077234  -0.081716  0  3.925728  0
C  C105  1  0.64208116  0.56290337  0.10019252  1  -0.0257  0  -0.077186  -0.081684  0  3.92575  0
C  C106  1  0.60552952  0.61399361  0.78384736  1  -0.265741  0  -0.025839  -0.091178  0  4.01397  0
C  C107  1  0.39447494  0.38600424  0.21614860  1  -0.265717  0  -0.025929  -0.091326  0  4.01395  0
C  C108  1  0.56585435  0.66807054  0.83955502  1  -0.065443  0  -0.084871  -0.090841  0  3.984882  0
C  C109  1  0.43414939  0.33192731  0.16044166  1  -0.0653  0  -0.084785  -0.090709  0  3.98484  0
C  C110  1  0.54384439  0.76690340  0.80169059  1  0.094075  0  -0.081144  -0.078619  0  3.9473  0
C  C111  1  0.45615989  0.23309516  0.19830637  1  0.093893  0  -0.081273  -0.078847  0  3.947605  0
C  C112  1  0.56140604  0.81104383  0.70916068  1  -0.037721  0  -0.009795  -0.018391  0  3.943834  0
C  C113  1  0.43859878  0.18895544  0.29083594  1  -0.037764  0  -0.009847  -0.018397  0  3.943902  0
C  C114  1  0.60311730  0.75557990  0.65466117  1  -0.052033  0  -0.082645  -0.089753  0  3.954121  0
C  C115  1  0.39688697  0.24441867  0.34533579  1  -0.052135  0  -0.082585  -0.089634  0  3.954087  0
C  C116  1  0.62479731  0.65669098  0.69128464  1  -0.025102  0  -0.085989  -0.099675  0  3.989949  0
C  C117  1  0.37520465  0.34330831  0.30871243  1  -0.02456  0  -0.085883  -0.099576  0  3.990029  0
C  C118  1  0.53534571  0.91785218  0.66570496  1  1.58628  0  0.196416  0.552622  0  4.247494  0
C  C119  1  0.46465660  0.08214853  0.33429277  1  1.586379  0  0.196456  0.55263  0  4.24742  0
C  C120  1  0.26422909  0.19634227  0.56816112  1  1.576243  0  0.196566  0.554017  0  4.253559  0
C  C121  1  0.73576782  0.80365422  0.43184398  1  1.575958  0  0.196677  0.554156  0  4.253475  0
C  C122  1  0.17001706  0.19596849  0.53855685  1  -0.004262  0  -0.008225  -0.020648  0  3.944114  0
C  C123  1  0.82997967  0.80402872  0.46144740  1  -0.00444  0  -0.008265  -0.020753  0  3.944067  0
C  C124  1  0.15813204  0.11452697  0.52923587  1  -0.058934  0  -0.077  -0.082467  0  3.925606  0
C  C125  1  0.84186612  0.88547022  0.47076753  1  -0.058891  0  -0.076946  -0.082363  0  3.925555  0
C  C126  1  0.06908236  0.11410934  0.50618805  1  -0.004506  0  -0.083307  -0.099716  0  3.976941  0
C  C127  1  0.93091493  0.88588857  0.49381276  1  -0.004371  0  -0.083345  -0.09977  0  3.976999  0
C  C128  1  0.99102538  0.19566846  0.49399101  1  -0.272368  0  -0.024072  -0.089484  0  4.001538  0
C  C129  1  0.00897298  0.80433087  0.50600972  1  -0.272468  0  -0.02406  -0.089433  0  4.001346  0
C  C130  1  0.00151343  0.27811695  0.50196741  1  -0.060343  0  -0.081846  -0.101104  0  4.000467  0
C  C131  1  0.99848528  0.72188095  0.49803379  1  -0.060412  0  -0.081886  -0.101183  0  4.000534  0
C  C132  1  0.09160192  0.27788868  0.52366110  1  -0.021599  0  -0.081227  -0.10645  0  3.98493  0
C  C133  1  0.90839553  0.72210852  0.47634303  1  -0.021815  0  -0.081222  -0.106337  0  3.985062  0
C  C134  1  0.90127550  0.22638472  0.34587264  1  -0.223461  0  -0.023331  -0.086685  0  4.006039  0
C  C135  1  0.09872484  0.77361246  0.65412733  1  -0.223501  0  -0.023312  -0.086744  0  4.00613  0
C  C136  1  0.94511857  0.15460508  0.30920078  1  -0.013713  0  -0.083803  -0.090816  0  3.976286  0
C  C137  1  0.05488444  0.84539278  0.69079973  1  -0.013603  0  -0.083826  -0.090829  0  3.976377  0
C  C138  1  0.97528834  0.18047797  0.21788729  1  0.056665  0  -0.078696  -0.080064  0  3.933789  0
C  C139  1  0.02471466  0.81951989  0.78211384  1  0.056822  0  -0.07868  -0.080011  0  3.933859  0
C  C140  1  0.96224639  0.27685953  0.16469671  1  -0.119451  0  -0.005889  -0.010039  0  3.935563  0
C  C141  1  0.03775446  0.72313835  0.83530477  1  -0.119328  0  -0.005923  -0.010059  0  3.935512  0
C  C142  1  0.91395877  0.34770468  0.20198836  1  -0.037743  0  -0.077642  -0.083926  0  3.938605  0
C  C143  1  0.08603977  0.65229393  0.79801260  1  -0.038098  0  -0.07763  -0.083972  0  3.938713  0
C  C144  1  0.88385485  0.32311420  0.29302613  1  -0.027823  0  -0.084106  -0.096777  0  3.980676  0
C  C145  1  0.11614119  0.67688302  0.70697390  1  -0.027876  0  -0.084163  -0.096741  0  3.980805  0
C  C146  1  0.00350658  0.30713361  0.06869221  1  1.592607  0  0.194989  0.553397  0  4.233075  0
C  C147  1  0.99649678  0.69286567  0.93130896  1  1.592603  0  0.195027  0.553429  0  4.23295  0
C  C148  1  0.93587404  0.51256839  0.85514340  1  0.995398  0  0.156647  0.11445  0  3.85757  0
C  C149  1  0.06412539  0.48743235  0.14485726  1  0.995391  0  0.156602  0.114437  0  3.857634  0
C  C150  1  0.96393079  0.46190592  0.74230420  1  0.426811  0  0.006659  -0.011524  0  3.975833  0
C  C151  1  0.03606775  0.53809554  0.25769634  1  0.426853  0  0.006665  -0.011523  0  3.975791  0
C  C152  1  0.90228520  0.55134321  0.71467179  1  0.252972  0  0.002734  -0.098607  0  3.908603  0
C  C153  1  0.09771263  0.44865825  0.28532886  1  0.252461  0  0.002716  -0.098654  0  3.908661  0
C  C154  1  0.83509049  0.67477871  0.78954010  1  0.283282  0  0.110459  0.188717  0  3.985496  0
C  C155  1  0.16491019  0.32522273  0.21046134  1  0.283278  0  0.110554  0.188806  0  3.985506  0
C  C156  1  0.79992336  0.68553675  0.87275129  1  0.015005  0  -0.078472  -0.152452  0  3.940736  0
C  C157  1  0.20007929  0.31446538  0.12724957  1  0.014888  0  -0.078491  -0.152407  0  3.940805  0
C  C158  1  0.75899720  0.77603310  0.87705427  1  0.021204  0  -0.072423  -0.055218  0  3.966959  0
C  C159  1  0.24100259  0.22396906  0.12294705  1  0.021336  0  -0.072387  -0.0552  0  3.966964  0
C  C160  1  0.75142329  0.85476206  0.79768019  1  -0.173954  0  -0.023983  -0.097674  0  4.000058  0
C  C161  1  0.24857810  0.14523937  0.20232113  1  -0.173954  0  -0.024006  -0.097685  0  4.000022  0
C  C162  1  0.78376586  0.84449220  0.71412683  1  0.020169  0  -0.073737  -0.064341  0  3.968406  0
C  C163  1  0.21623607  0.15550994  0.28587414  1  0.019998  0  -0.073763  -0.064452  0  3.968565  0
C  C164  1  0.82620572  0.75383484  0.71017527  1  -0.054179  0  -0.084231  -0.150381  0  3.942498  0
C  C165  1  0.17379567  0.24616659  0.28982666  1  -0.05397  0  -0.084274  -0.150402  0  3.942595  0
C  C166  1  0.80170815  0.00982358  0.81064291  1  -0.267332  0  -0.023555  -0.100781  0  3.999162  0
C  C167  1  0.19828843  0.99018003  0.18935654  1  -0.267172  0  -0.023542  -0.100824  0  3.999228  0
C  C168  1  0.82915436  0.99562494  0.89419666  1  0.035976  0  -0.068926  -0.049946  0  3.957608  0
C  C169  1  0.17084275  0.00437653  0.10580349  1  0.036087  0  -0.069002  -0.049993  0  3.957628  0
C  C170  1  0.90369187  0.03403387  0.89823368  1  0.009014  0  -0.079604  -0.148026  0  3.931815  0
C  C171  1  0.09630435  0.96596832  0.10176759  1  0.009474  0  -0.079585  -0.148002  0  3.931778  0
C  C172  1  0.94932111  0.08631618  0.81851855  1  0.343822  0  0.108168  0.190018  0  3.978697  0
C  C173  1  0.05067457  0.91368814  0.18148326  1  0.344465  0  0.108217  0.190047  0  3.978651  0
C  C174  1  0.92300367  0.09843354  0.73497000  1  -0.096732  0  -0.086998  -0.156607  0  3.944702  0
C  C175  1  0.07699130  0.90157363  0.26503088  1  -0.097286  0  -0.086997  -0.156672  0  3.944619  0
C  C176  1  0.84895832  0.05986855  0.73075559  1  0.07352  0  -0.077695  -0.069737  0  3.973802  0
C  C177  1  0.15103594  0.94013863  0.26924478  1  0.073084  0  -0.077724  -0.069754  0  3.973839  0
C  C178  1  0.01676251  0.17803305  0.87820460  1  0.943198  0  0.154791  0.120867  0  3.836061  0
C  C179  1  0.98323604  0.82196840  0.12179532  1  0.943678  0  0.154801  0.12082  0  3.836019  0
C  C180  1  0.09528385  0.15405200  0.75361559  1  0.222894  0  0.000516  -0.100449  0  3.917592  0
C  C181  1  0.90471434  0.84594804  0.24638429  1  0.222906  0  0.00052  -0.100519  0  3.917671  0
C  C182  1  0.13455466  0.21343371  0.77285484  1  0.431546  0  0.003645  -0.037181  0  3.99088  0
C  C183  1  0.86544442  0.78656560  0.22714577  1  0.431518  0  0.003641  -0.03718  0  3.990736  0
C  C184  1  0.57160026  0.14717582  0.48301553  1  0.97238  0  0.158602  0.117595  0  3.85104  0
C  C185  1  0.42840008  0.85282420  0.51698401  1  0.972338  0  0.158528  0.117438  0  3.850974  0
C  C186  1  0.52472482  0.27460006  0.52017471  1  0.442355  0  0.00834  -0.015869  0  3.978711  0
C  C187  1  0.47527408  0.72539997  0.47982506  1  0.442718  0  0.008367  -0.015863  0  3.978811  0
C  C188  1  0.57736698  0.29847711  0.43838242  1  0.318328  0  0.006378  -0.08714  0  3.910145  0
C  C189  1  0.42263496  0.70152218  0.56161713  1  0.317934  0  0.006391  -0.087116  0  3.910126  0
C  C190  1  0.65371425  0.20816054  0.33216875  1  0.310458  0  0.110592  0.189478  0  3.9818  0
C  C191  1  0.34628858  0.79183803  0.66783091  1  0.310457  0  0.110565  0.189539  0  3.981834  0
C  C192  1  0.66369091  0.28904260  0.25745370  1  0.032685  0  -0.084631  -0.154353  0  3.940871  0
C  C193  1  0.33631050  0.71095599  0.74254557  1  0.032757  0  -0.084652  -0.154397  0  3.940931  0
C  C194  1  0.70558236  0.27918565  0.17557006  1  0.006027  0  -0.071117  -0.061706  0  3.958166  0
C  C195  1  0.29441850  0.72081223  0.82443079  1  0.006016  0  -0.071117  -0.061741  0  3.958261  0
C  C196  1  0.73813222  0.18820790  0.16947427  1  -0.251607  0  -0.02348  -0.096389  0  3.996443  0
C  C197  1  0.26186809  0.81178927  0.83052879  1  -0.251556  0  -0.023434  -0.096261  0  3.996404  0
C  C198  1  0.72924133  0.10727183  0.24391195  1  -0.086979  0  -0.073875  -0.058101  0  3.976667  0
C  C199  1  0.27076130  0.89272461  0.75609100  1  -0.086977  0  -0.07391  -0.058209  0  3.976744  0
C  C200  1  0.68671019  0.11739345  0.32512547  1  0.094085  0  -0.082205  -0.158241  0  3.947638  0
C  C201  1  0.31329352  0.88260440  0.67487617  1  0.093895  0  -0.082171  -0.158259  0  3.947676  0
C  C202  1  0.69689057  0.17696571  0.00999708  1  -0.252293  0  -0.022677  -0.087053  0  3.983487  0
C  C203  1  0.30310994  0.82303359  0.99000331  1  -0.252268  0  -0.022672  -0.086965  0  3.983502  0
C  C204  1  0.62914139  0.12206425  0.05411645  1  -0.018383  0  -0.079406  -0.079  0  3.989996  0
C  C205  1  0.37085859  0.87793719  0.94588325  1  -0.018417  0  -0.079383  -0.07898  0  3.990035  0
C  C206  1  0.55936735  0.12000055  0.00598570  1  0.046793  0  -0.083806  -0.154097  0  3.928022  0
C  C207  1  0.44063299  0.87999947  0.99401384  1  0.046771  0  -0.083843  -0.154135  0  3.92807  0
C  C208  1  0.55837312  0.17228634  0.91393350  1  0.246799  0  0.105961  0.18622  0  3.988303  0
C  C209  1  0.44162865  0.82771367  0.08606581  1  0.246764  0  0.105997  0.18623  0  3.988463  0
C  C210  1  0.62595006  0.22760826  0.87027040  1  0.025118  0  -0.085845  -0.159317  0  3.959201  0
C  C211  1  0.37405152  0.77239246  0.12972929  1  0.025141  0  -0.085906  -0.159437  0  3.959339  0
C  C212  1  0.69527803  0.23037527  0.91858441  1  0.039304  0  -0.078475  -0.07007  0  3.97907  0
C  C213  1  0.30472230  0.76962475  0.08141575  1  0.0393  0  -0.078487  -0.07012  0  3.979076  0
C  C214  1  0.40293393  0.13745914  0.90031055  1  0.296099  0  0.009825  -0.086717  0  3.871361  0
C  C215  1  0.59706552  0.86254444  0.09968659  1  0.295727  0  0.009919  -0.086598  0  3.87126  0
C  C216  1  0.36777798  0.12898876  0.83162166  1  0.405349  0  0.008305  -0.007871  0  3.962104  0
C  C217  1  0.63222256  0.87101624  0.16837355  1  0.405543  0  0.008168  -0.008009  0  3.962133  0
C  C218  1  0.50388918  0.17371329  0.77672575  1  0.963646  0  0.151967  0.109118  0  3.901204  0
C  C219  1  0.49611402  0.82628671  0.22327210  1  0.963658  0  0.152007  0.10914  0  3.901204  0
S  S220  1  0.62826322  0.48842353  0.83185431  1  2.481699  0  0.467084  0.960236  0  5.764141  0
S  S221  1  0.37173587  0.51157579  0.16814383  1  2.481669  0  0.467118  0.960188  0  5.763665  0
S  S222  1  0.87710508  0.19591669  0.46373317  1  2.4702  0  0.468861  0.961735  0  5.761735  0
S  S223  1  0.12289435  0.80408120  0.53626730  1  2.470204  0  0.468831  0.961716  0  5.761696  0
S  S224  1  0.70072400  0.97040400  0.80222307  1  2.487429  0  0.475122  0.970384  0  5.746716  0
S  S225  1  0.29927490  0.02959604  0.19777670  1  2.487363  0  0.475158  0.970476  0  5.746579  0
S  S226  1  0.79389073  0.17349667  0.06683912  1  2.476979  0  0.472119  0.960974  0  5.748571  0
S  S227  1  0.20610995  0.82650192  0.93316335  1  2.477613  0  0.472101  0.960884  0  5.748557  0
N  N228  1  0.98432763  0.43896881  0.82966178  1  -1.252016  0  -0.348636  -0.272141  0  3.576763  0
N  N229  1  0.01566966  0.56103195  0.17033922  1  -1.252056  0  -0.348612  -0.272089  0  3.576752  0
N  N230  1  0.88479299  0.58293504  0.78700099  1  -1.272575  0  -0.223427  0.005649  0  3.788968  0
N  N231  1  0.11520627  0.41706641  0.21299943  1  -1.27267  0  -0.223424  0.005599  0  3.789123  0
N  N232  1  0.02006564  0.13275889  0.82009985  1  -1.241986  0  -0.220945  0.01524  0  3.776626  0
N  N233  1  0.97993291  0.86724256  0.17990007  1  -1.242403  0  -0.220958  0.01535  0  3.776554  0
N  N234  1  0.08510918  0.22716640  0.85083069  1  -1.23391  0  -0.351838  -0.27856  0  3.577946  0
N  N235  1  0.91489061  0.77283292  0.14916981  1  -1.233907  0  -0.351864  -0.278576  0  3.577874  0
N  N236  1  0.52204936  0.18011342  0.54713261  1  -1.229097  0  -0.348589  -0.268136  0  3.592727  0
N  N237  1  0.47794901  0.81988590  0.45286627  1  -1.229138  0  -0.348577  -0.268041  0  3.592689  0
N  N238  1  0.60672888  0.21705046  0.41496899  1  -1.284736  0  -0.219513  0.005128  0  3.778617  0
N  N239  1  0.39327269  0.78294741  0.58503175  1  -1.284677  0  -0.219462  0.005175  0  3.778469  0
N  N240  1  0.48970643  0.16604731  0.86478408  1  -1.264609  0  -0.220742  0.008292  0  3.7899  0
N  N241  1  0.51029623  0.83395198  0.13521412  1  -1.264577  0  -0.22077  0.008238  0  3.789876  0
N  N242  1  0.43146073  0.15134375  0.75503444  1  -1.20882  0  -0.349643  -0.279398  0  3.553285  0
N  N243  1  0.56854247  0.84865625  0.24496341  1  -1.208731  0  -0.349578  -0.279265  0  3.553243  0
O  O244  1  0.22522194  0.39236251  0.75555944  1  -1.153546  0  -0.331048  -0.545312  0  2.079481  0
O  O245  1  0.77477876  0.60763609  0.24443871  1  -1.153505  0  -0.331113  -0.545395  0  2.079406  0
O  O246  1  0.20647755  0.35593658  0.90649743  1  -1.172321  0  -0.336236  -0.561567  0  2.334979  0
O  O247  1  0.79352510  0.64405987  0.09350242  1  -1.17247  0  -0.336222  -0.561503  0  2.334975  0
O  O248  1  0.70177968  0.44675419  0.77337001  1  -1.305004  0  -0.320198  -0.520975  0  2.1341  0
O  O249  1  0.29821797  0.55324230  0.22662941  1  -1.305163  0  -0.320259  -0.520982  0  2.133897  0
O  O250  1  0.64278711  0.46060729  0.92593606  1  -1.294807  0  -0.317848  -0.519856  0  2.160323  0
O  O251  1  0.35721449  0.53939343  0.07405992  1  -1.294857  0  -0.317863  -0.519834  0  2.160124  0
O  O252  1  0.56372306  0.95336155  0.58497937  1  -1.178801  0  -0.315747  -0.53783  0  2.169875  0
O  O253  1  0.43627657  0.04663848  0.41501843  1  -1.179103  0  -0.315745  -0.53782  0  2.169746  0
O  O254  1  0.48263561  0.96542896  0.71605186  1  -1.163815  0  -0.334972  -0.552985  0  2.314783  0
O  O255  1  0.51736776  0.03457032  0.28394745  1  -1.163589  0  -0.335015  -0.553009  0  2.31478  0
O  O256  1  0.31313373  0.11265928  0.61626489  1  -1.170057  0  -0.335485  -0.559819  0  2.30248  0
O  O257  1  0.68686334  0.88733650  0.38374230  1  -1.169907  0  -0.335469  -0.559795  0  2.302521  0
O  O258  1  0.28698694  0.27307786  0.54746928  1  -1.160132  0  -0.33056  -0.543334  0  2.072773  0
O  O259  1  0.71301211  0.72691577  0.45253467  1  -1.159859  0  -0.330627  -0.543424  0  2.072662  0
O  O260  1  0.86553585  0.09883509  0.50232583  1  -1.305532  0  -0.315642  -0.519814  0  2.168179  0
O  O261  1  0.13446430  0.90116280  0.49767514  1  -1.305461  0  -0.315597  -0.519791  0  2.168233  0
O  O262  1  0.80123290  0.27250291  0.48352970  1  -1.300088  0  -0.322939  -0.523299  0  2.137432  0
O  O263  1  0.19876778  0.72749568  0.51647092  1  -1.300132  0  -0.322959  -0.523287  0  2.137334  0
O  O264  1  0.04587602  0.24261391  0.03331378  1  -1.168939  0  -0.332657  -0.549333  0  2.271962  0
O  O265  1  0.95412557  0.75738680  0.96668530  1  -1.16891  0  -0.332652  -0.549376  0  2.271935  0
O  O266  1  0.99841525  0.39434798  0.02721430  1  -1.181532  0  -0.309817  -0.541188  0  2.208691  0
O  O267  1  0.00158793  0.60565201  0.97278664  1  -1.181523  0  -0.309837  -0.541166  0  2.208643  0
O  O268  1  0.66304630  0.03217007  0.71643221  1  -1.300607  0  -0.303089  -0.517996  0  2.223931  0
O  O269  1  0.33695260  0.96782996  0.28356817  1  -1.300595  0  -0.303079  -0.517995  0  2.223869  0
O  O270  1  0.63707418  0.96259244  0.88517660  1  -1.322557  0  -0.313078  -0.536604  0  2.232061  0
O  O271  1  0.36292437  0.03740901  0.11482270  1  -1.32255  0  -0.31309  -0.536631  0  2.232052  0
O  O272  1  0.83428902  0.25421636  0.01274506  1  -1.289852  0  -0.299422  -0.494641  0  2.188829  0
O  O273  1  0.16571254  0.74578151  0.98725754  1  -1.289716  0  -0.299484  -0.494708  0  2.1888  0
O  O274  1  0.85810125  0.07741266  0.08866837  1  -1.309797  0  -0.321908  -0.538727  0  2.188065  0
O  O275  1  0.14189712  0.92258382  0.91133217  1  -1.310588  0  -0.321883  -0.538668  0  2.188029  0
