# generated using pymatgen
data_SmH15C28(N2O3)2
_symmetry_space_group_name_H-M   'P 1'
_cell_length_a   11.26682481
_cell_length_b   13.35806177
_cell_length_c   20.16735661
_cell_angle_alpha   94.83944872
_cell_angle_beta   90.00060253
_cell_angle_gamma   114.94032326
_symmetry_Int_Tables_number   1
_chemical_formula_structural   SmH15C28(N2O3)2
_chemical_formula_sum   'Sm4 H60 C112 N16 O24'
_cell_volume   2740.26277530
_cell_formula_units_Z   4
loop_
 _symmetry_equiv_pos_site_id
 _symmetry_equiv_pos_as_xyz
  1  'x, y, z'
loop_
 _atom_site_type_symbol
 _atom_site_label
 _atom_site_symmetry_multiplicity
 _atom_site_fract_x
 _atom_site_fract_y
 _atom_site_fract_z
 _atom_site_occupancy
 _atom_site_pbe_bader_charge
 _atom_site_pbe_bader_spin_density
 _atom_site_pbe_cm5_charge
 _atom_site_pbe_ddec_charge
 _atom_site_pbe_ddec_spin_density
 _atom_site_pbe_ddec_sum_bond_order
 _atom_site_pbe_magmom
Sm  Sm0  1  0.91289874  0.15318646  0.29350104  1  2.179938  0  1.519662  1.971306  0  2.257356  0
Sm  Sm1  1  0.75972292  0.84677071  0.20650448  1  2.180911  0  1.519882  1.971397  0  2.257589  0
Sm  Sm2  1  0.08710068  0.84681334  0.70649881  1  2.179872  0  1.51965  1.971274  0  2.257393  0
Sm  Sm3  1  0.24027691  0.15322991  0.79349590  1  2.180848  0  1.519883  1.971424  0  2.257545  0
H  H4  1  0.20735264  0.22398522  0.21580049  1  0.118998  0  0.118854  0.087465  0  1.018903  0
H  H5  1  0.98334181  0.77599512  0.28420688  1  0.118346  0  0.119034  0.088031  0  1.018867  0
H  H6  1  0.79264767  0.77601458  0.78419935  1  0.118991  0  0.118853  0.087467  0  1.018913  0
H  H7  1  0.01665938  0.22400468  0.71579297  1  0.118359  0  0.119041  0.088053  0  1.018825  0
H  H8  1  0.34933817  0.33372576  0.12815413  1  0.077338  0  0.106861  0.111141  0  1.000346  0
H  H9  1  0.01556727  0.66625281  0.37184825  1  0.072385  0  0.106798  0.111583  0  1.000764  0
H  H10  1  0.65066125  0.66627404  0.87184571  1  0.077339  0  0.106896  0.111194  0  1.000282  0
H  H11  1  0.98443344  0.33374782  0.62815164  1  0.072392  0  0.106796  0.11159  0  1.000736  0
H  H12  1  0.28752328  0.47052308  0.07569192  1  0.09817  0  0.10846  0.111193  0  1.01914  0
H  H13  1  0.81696650  0.52948339  0.42432259  1  0.107308  0  0.108776  0.111072  0  1.019359  0
H  H14  1  0.71247661  0.52947589  0.92430788  1  0.098188  0  0.108454  0.111193  0  1.019108  0
H  H15  1  0.18303291  0.47051641  0.57567725  1  0.107302  0  0.108759  0.111035  0  1.019452  0
H  H16  1  0.73470840  0.51844635  0.18554169  1  0.112234  0  0.110225  0.115439  0  1.01699  0
H  H17  1  0.21620626  0.48158781  0.31445407  1  0.12295  0  0.110335  0.116554  0  1.016227  0
H  H18  1  0.26529102  0.48155345  0.81445816  1  0.112231  0  0.11022  0.115442  0  1.016992  0
H  H19  1  0.78379357  0.51841282  0.68554582  1  0.122941  0  0.110334  0.116574  0  1.016222  0
H  H20  1  0.60137383  0.38409568  0.26604593  1  0.081596  0  0.106896  0.111238  0  1.005578  0
H  H21  1  0.21725751  0.61594326  0.23392640  1  0.09871  0  0.107046  0.111364  0  1.005456  0
H  H22  1  0.39862559  0.61590412  0.73395391  1  0.081605  0  0.106905  0.111246  0  1.005565  0
H  H23  1  0.78274321  0.38405737  0.76607399  1  0.0987  0  0.107035  0.111351  0  1.005466  0
H  H24  1  0.68691876  0.25533721  0.30827200  1  0.118269  0  0.124782  0.094368  0  1.023327  0
H  H25  1  0.43159749  0.74467881  0.19170886  1  0.115749  0  0.124426  0.093861  0  1.024085  0
H  H26  1  0.31308113  0.74466176  0.69172829  1  0.118285  0  0.124767  0.09434  0  1.023266  0
H  H27  1  0.56840192  0.25532099  0.80829098  1  0.115787  0  0.124424  0.093873  0  1.024089  0
H  H28  1  0.22624506  0.69446079  0.96085081  1  0.086516  0  0.103164  0.106703  0  1.010686  0
H  H29  1  0.53172285  0.30552489  0.53915091  1  0.056305  0  0.103019  0.106618  0  1.010426  0
H  H30  1  0.77375477  0.30553983  0.03914909  1  0.086514  0  0.103164  0.106699  0  1.010682  0
H  H31  1  0.46827746  0.69447491  0.46084943  1  0.056315  0  0.103028  0.106625  0  1.010416  0
H  H32  1  0.25474717  0.83396692  0.87941959  1  0.06638  0  0.110208  0.11458  0  0.986404  0
H  H33  1  0.42068453  0.16603812  0.62056412  1  0.094853  0  0.11058  0.114356  0  0.986738  0
H  H34  1  0.74525225  0.16603288  0.12058075  1  0.066376  0  0.110208  0.114589  0  0.986383  0
H  H35  1  0.57931577  0.83396168  0.37943623  1  0.09486  0  0.110562  0.114352  0  0.986716  0
H  H36  1  0.96310790  0.91467536  0.97824550  1  0.09123  0  0.108381  0.112435  0  1.011918  0
H  H37  1  0.04841001  0.08532157  0.52171196  1  0.082545  0  0.108637  0.112707  0  1.012128  0
H  H38  1  0.03689110  0.08532361  0.02175479  1  0.091261  0  0.108389  0.112438  0  1.011938  0
H  H39  1  0.95159119  0.91467823  0.47828788  1  0.082526  0  0.108651  0.11271  0  1.012129  0
H  H40  1  0.93049523  0.77572013  0.05619077  1  0.099416  0  0.109354  0.112866  0  1.0315  0
H  H41  1  0.15475877  0.22428169  0.44375550  1  0.097978  0  0.109201  0.112236  0  1.031986  0
H  H42  1  0.06950507  0.22427966  0.94380957  1  0.099426  0  0.109357  0.112857  0  1.031508  0
H  H43  1  0.84524242  0.77571811  0.55624435  1  0.097966  0  0.109198  0.1122  0  1.031992  0
H  H44  1  0.82818441  0.47388192  0.58278360  1  0.072201  0  0.10086  0.097764  0  1.033555  0
H  H45  1  0.35427942  0.52608445  0.91721185  1  0.049764  0  0.100842  0.097352  0  1.034297  0
H  H46  1  0.17181589  0.52611787  0.41721674  1  0.072066  0  0.100863  0.097768  0  1.033549  0
H  H47  1  0.64571999  0.47391535  0.08278800  1  0.049768  0  0.100845  0.097341  0  1.034288  0
H  H48  1  0.80654621  0.31762505  0.49810000  1  0.100831  0  0.113357  0.122039  0  0.984397  0
H  H49  1  0.48885830  0.68238013  0.00189913  1  0.094428  0  0.113329  0.122106  0  0.983688  0
H  H50  1  0.19345410  0.68237475  0.50189985  1  0.100837  0  0.113354  0.122037  0  0.984393  0
H  H51  1  0.51114112  0.31761967  0.99810071  1  0.094434  0  0.113334  0.122122  0  0.983682  0
H  H52  1  0.28337425  0.11784572  0.33654955  1  0.06497  0  0.105749  0.111477  0  1.006546  0
H  H53  1  0.16550980  0.88215988  0.16346399  1  0.077551  0  0.105455  0.110891  0  1.007473  0
H  H54  1  0.71662517  0.88215408  0.66345030  1  0.064974  0  0.105751  0.111463  0  1.006541  0
H  H55  1  0.83448962  0.11783992  0.83653586  1  0.077555  0  0.105457  0.110895  0  1.007467  0
H  H56  1  0.50584038  0.11553556  0.33752738  1  0.088781  0  0.11116  0.11777  0  0.995042  0
H  H57  1  0.39025602  0.88443686  0.16245340  1  0.10224  0  0.11112  0.117869  0  0.994384  0
H  H58  1  0.49415946  0.88446506  0.66247301  1  0.088789  0  0.111184  0.11778  0  0.995079  0
H  H59  1  0.60974428  0.11556293  0.83754644  1  0.102246  0  0.111139  0.117876  0  0.994342  0
H  H60  1  0.88134357  0.63172771  0.10677223  1  0.550909  0  0.314823  0.296449  0  0.970144  0
H  H61  1  0.24957099  0.36823497  0.39322605  1  0.544094  0  0.31465  0.296299  0  0.968903  0
H  H62  1  0.11865673  0.36827209  0.89322811  1  0.551351  0  0.314826  0.296402  0  0.970136  0
H  H63  1  0.75042931  0.63176483  0.60677379  1  0.544085  0  0.314661  0.296296  0  0.968918  0
C  C64  1  0.18350914  0.28380028  0.19185655  1  0.504376  0  0.053023  0.106915  0  3.96653  0
C  C65  1  0.89967734  0.71619010  0.30814958  1  0.517904  0  0.052818  0.106885  0  3.965384  0
C  C66  1  0.81649069  0.71620035  0.80814334  1  0.504375  0  0.053015  0.106877  0  3.966525  0
C  C67  1  0.10032338  0.28381053  0.69185031  1  0.517914  0  0.05282  0.106895  0  3.965317  0
C  C68  1  0.26291245  0.34573254  0.14292885  1  -0.062869  0  -0.084099  -0.126318  0  3.986414  0
C  C69  1  0.91711589  0.65425967  0.35708461  1  -0.01282  0  -0.084297  -0.128528  0  3.988253  0
C  C70  1  0.73708744  0.65426643  0.85707145  1  -0.06286  0  -0.084109  -0.126337  0  3.986411  0
C  C71  1  0.08288483  0.34574095  0.64291529  1  -0.012808  0  -0.084324  -0.128597  0  3.988309  0
C  C72  1  0.22908270  0.42060107  0.11385405  1  -0.017798  0  -0.060874  -0.052726  0  3.914085  0
C  C73  1  0.80843257  0.57941780  0.38617385  1  -0.055396  0  -0.060857  -0.050399  0  3.913524  0
C  C74  1  0.77091761  0.57939872  0.88614530  1  -0.017822  0  -0.060929  -0.052825  0  3.914197  0
C  C75  1  0.19156904  0.42058283  0.61382604  1  -0.0554  0  -0.060809  -0.050327  0  3.913617  0
C  C76  1  0.11671020  0.43356499  0.13477357  1  0.052397  0  0.004554  -0.00851  0  3.985537  0
C  C77  1  0.68312016  0.56646202  0.36522482  1  -0.007792  0  0.004593  -0.009291  0  3.986772  0
C  C78  1  0.88328963  0.56643564  0.86522632  1  0.05238  0  0.004591  -0.008384  0  3.985605  0
C  C79  1  0.31688056  0.43353861  0.63477507  1  -0.007788  0  0.0046  -0.009255  0  3.986671  0
C  C80  1  0.07553183  0.51167402  0.10981178  1  0.466103  0  0.086441  0.087312  0  4.102333  0
C  C81  1  0.56380144  0.48834187  0.39016470  1  0.478409  0  0.086823  0.087759  0  4.102805  0
C  C82  1  0.92446848  0.48832578  0.89018757  1  0.466109  0  0.086447  0.087279  0  4.102332  0
C  C83  1  0.43619928  0.51165876  0.60983469  1  0.478449  0  0.086829  0.087809  0  4.102744  0
C  C84  1  0.96430672  0.52222395  0.13409072  1  0.345082  0  0.092025  0.083161  0  4.056997  0
C  C85  1  0.44198211  0.47778020  0.36589628  1  0.384559  0  0.092421  0.083263  0  4.055411  0
C  C86  1  0.03569270  0.47777585  0.86590863  1  0.345079  0  0.092028  0.083167  0  4.057005  0
C  C87  1  0.55801820  0.52221960  0.63410406  1  0.384417  0  0.092382  0.083135  0  4.055486  0
C  C88  1  0.88305542  0.45470665  0.18160971  1  0.061141  0  -0.002179  -0.020794  0  4.028376  0
C  C89  1  0.42825141  0.54526990  0.31835764  1  0.077316  0  -0.002394  -0.018984  0  4.027408  0
C  C90  1  0.11694400  0.54529315  0.81838964  1  0.06117  0  -0.00217  -0.020782  0  4.028564  0
C  C91  1  0.57174889  0.45472990  0.68164220  1  0.0773  0  -0.002418  -0.018983  0  4.027394  0
C  C92  1  0.76577619  0.45808372  0.20353397  1  -0.037837  0  -0.070485  -0.073437  0  3.934934  0
C  C93  1  0.30762857  0.54193172  0.29644674  1  -0.084734  0  -0.070447  -0.076272  0  3.936536  0
C  C94  1  0.23422281  0.54191525  0.79646633  1  -0.037849  0  -0.070521  -0.073527  0  3.934998  0
C  C95  1  0.69237215  0.45806891  0.70355315  1  -0.084729  0  -0.070441  -0.076286  0  3.936503  0
C  C96  1  0.69311591  0.38521655  0.24826391  1  -0.071948  0  -0.084354  -0.122822  0  3.986246  0
C  C97  1  0.30787397  0.61480142  0.25170185  1  0.003131  0  -0.084507  -0.122009  0  3.986732  0
C  C98  1  0.30688350  0.61478325  0.75173644  1  -0.072117  0  -0.084332  -0.122774  0  3.986182  0
C  C99  1  0.69212633  0.38519838  0.74829849  1  0.003126  0  -0.084513  -0.122005  0  3.986771  0
C  C100  1  0.73999011  0.31232032  0.27200272  1  0.539814  0  0.057948  0.119261  0  3.941943  0
C  C101  1  0.42766750  0.68767210  0.22796261  1  0.461343  0  0.058262  0.119274  0  3.943191  0
C  C102  1  0.26000930  0.68767948  0.72799713  1  0.539989  0  0.057956  0.119296  0  3.941846  0
C  C103  1  0.57233322  0.31232852  0.77203728  1  0.461321  0  0.058285  0.119254  0  3.943269  0
C  C104  1  0.92246333  0.37605840  0.20683972  1  0.478466  0  0.122064  0.13226  0  3.983271  0
C  C105  1  0.54632844  0.62388534  0.29312132  1  0.466877  0  0.12132  0.131206  0  3.984094  0
C  C106  1  0.07753609  0.62394140  0.79316013  1  0.478388  0  0.122076  0.132324  0  3.983305  0
C  C107  1  0.45367181  0.37611611  0.70687861  1  0.467067  0  0.121313  0.131193  0  3.984094  0
C  C108  1  0.04058569  0.36666235  0.18431686  1  0.466752  0  0.119777  0.122907  0  3.984135  0
C  C109  1  0.67386043  0.63334346  0.31567119  1  0.492644  0  0.119775  0.123037  0  3.981598  0
C  C110  1  0.95941331  0.63333662  0.81568344  1  0.466775  0  0.119761  0.122881  0  3.98414  0
C  C111  1  0.32613988  0.36665634  0.68432915  1  0.492648  0  0.119786  0.123029  0  3.981614  0
C  C112  1  0.05635008  0.63920641  0.05819024  1  0.954587  0  0.222047  0.302441  0  4.013192  0
C  C113  1  0.41712227  0.36075872  0.44177948  1  0.953083  0  0.222005  0.302221  0  4.013564  0
C  C114  1  0.94365023  0.36079339  0.94181010  1  0.954607  0  0.22209  0.302541  0  4.01324  0
C  C115  1  0.58287845  0.63924191  0.55822091  1  0.953067  0  0.222004  0.302251  0  4.013573  0
C  C116  1  0.07610614  0.72438968  0.01339055  1  0.042099  0  -0.006277  0.010843  0  4.033282  0
C  C117  1  0.35168780  0.27558066  0.48656544  1  -0.034886  0  -0.006721  0.010731  0  4.033883  0
C  C118  1  0.92389328  0.27561012  0.98660979  1  0.042072  0  -0.006266  0.010769  0  4.033399  0
C  C119  1  0.64831380  0.72441997  0.51343494  1  -0.034896  0  -0.006751  0.010652  0  4.033987  0
C  C120  1  0.16908748  0.74311552  0.96377400  1  -0.034771  0  -0.085572  -0.112535  0  3.978421  0
C  C121  1  0.42591236  0.25688564  0.53621273  1  0.002167  0  -0.085391  -0.112312  0  3.978492  0
C  C122  1  0.83091283  0.25688427  0.03622585  1  -0.034888  0  -0.085568  -0.112485  0  3.978459  0
C  C123  1  0.57408836  0.74311498  0.46378766  1  0.002342  0  -0.085375  -0.112274  0  3.978483  0
C  C124  1  0.18468754  0.82046738  0.91873024  1  -0.03305  0  -0.081221  -0.097238  0  3.972015  0
C  C125  1  0.36413037  0.17955977  0.58125530  1  -0.094908  0  -0.081448  -0.0963  0  3.974117  0
C  C126  1  0.81531277  0.17953242  0.08126960  1  -0.032936  0  -0.081257  -0.097309  0  3.972057  0
C  C127  1  0.63586993  0.82044003  0.41874454  1  -0.095023  0  -0.081428  -0.096286  0  3.974082  0
C  C128  1  0.11087488  0.88307544  0.92369479  1  0.022627  0  -0.008771  -0.018508  0  3.949708  0
C  C129  1  0.22774120  0.11695753  0.57626616  1  0.027294  0  -0.009046  -0.020787  0  3.95299  0
C  C130  1  0.88912365  0.11692436  0.07630555  1  0.022241  0  -0.008727  -0.018453  0  3.949685  0
C  C131  1  0.77225863  0.88304310  0.42373422  1  0.027189  0  -0.009068  -0.020819  0  3.952992  0
C  C132  1  0.02056376  0.86641757  0.97389590  1  -0.039362  0  -0.0787  -0.086731  0  3.962349  0
C  C133  1  0.15411483  0.13357369  0.52604195  1  -0.024562  0  -0.079219  -0.087034  0  3.963375  0
C  C134  1  0.97943566  0.13358223  0.02610395  1  -0.039018  0  -0.078724  -0.08678  0  3.962412  0
C  C135  1  0.84588589  0.86642694  0.47395794  1  -0.024511  0  -0.079225  -0.087032  0  3.963322  0
C  C136  1  0.00204481  0.78695130  0.01789685  1  -0.093568  0  -0.086153  -0.116864  0  3.952485  0
C  C137  1  0.21508661  0.21303898  0.48203831  1  -0.016202  0  -0.085157  -0.115246  0  3.951727  0
C  C138  1  0.99795419  0.21304767  0.98210345  1  -0.093563  0  -0.086164  -0.116821  0  3.952558  0
C  C139  1  0.78491411  0.78696165  0.51796208  1  -0.016181  0  -0.085135  -0.115174  0  3.951696  0
C  C140  1  0.13105317  0.96830087  0.87657932  1  1.536923  0  0.216916  0.620941  0  4.163839  0
C  C141  1  0.16277658  0.03174812  0.62339528  1  1.541748  0  0.217336  0.622855  0  4.162448  0
C  C142  1  0.86894583  0.03169810  0.12342048  1  1.536929  0  0.216916  0.620991  0  4.163754  0
C  C143  1  0.83722284  0.96825168  0.37660457  1  1.541749  0  0.217354  0.622879  0  4.162393  0
C  C144  1  0.90277443  0.48480787  0.54623702  1  -0.07497  0  -0.083314  -0.103893  0  3.985398  0
C  C145  1  0.41796133  0.51519499  0.95375985  1  0.01644  0  -0.083314  -0.102836  0  3.985736  0
C  C146  1  0.09722587  0.51519193  0.45376332  1  -0.074789  0  -0.083299  -0.103862  0  3.985451  0
C  C147  1  0.58203850  0.48480564  0.04624004  1  0.016447  0  -0.083263  -0.10273  0  3.985582  0
C  C148  1  0.89093366  0.39776590  0.49980410  1  0.029125  0  -0.07651  -0.091085  0  3.96308  0
C  C149  1  0.49310393  0.60223635  0.00021099  1  -0.012202  0  -0.076028  -0.09117  0  3.960287  0
C  C150  1  0.10906623  0.60223307  0.50019619  1  0.029017  0  -0.076512  -0.091098  0  3.963152  0
C  C151  1  0.50689678  0.39776428  0.99978890  1  -0.012246  0  -0.076049  -0.091228  0  3.96022  0
C  C152  1  0.98825184  0.41267107  0.45333519  1  -0.075766  0  -0.010463  -0.019513  0  3.962285  0
C  C153  1  0.57553261  0.58732520  0.04667514  1  -0.082553  0  -0.010828  -0.019743  0  3.961218  0
C  C154  1  0.01174846  0.58732873  0.54666515  1  -0.075744  0  -0.010467  -0.019518  0  3.96231  0
C  C155  1  0.42446811  0.41267543  0.95332475  1  -0.082543  0  -0.010827  -0.019739  0  3.961215  0
C  C156  1  0.96967224  0.31992800  0.40183073  1  1.559762  0  0.194528  0.570866  0  4.221834  0
C  C157  1  0.64982085  0.68004865  0.09815390  1  1.527662  0  0.194176  0.569152  0  4.222662  0
C  C158  1  0.03032848  0.68007263  0.59816966  1  1.559765  0  0.194457  0.570778  0  4.222022  0
C  C159  1  0.35017946  0.31995114  0.90184595  1  1.527758  0  0.194173  0.569155  0  4.222674  0
C  C160  1  0.21343119  0.00002225  0.25001048  1  -0.085838  0  -0.017072  -0.040386  0  3.989308  0
C  C161  1  0.78656823  0.99997755  0.74998937  1  -0.085853  0  -0.017118  -0.040478  0  3.989401  0
C  C162  1  0.30836046  0.06718932  0.29888151  1  0.076319  0  -0.085041  -0.097673  0  3.983419  0
C  C163  1  0.24117173  0.93281716  0.20111947  1  -0.048098  0  -0.084815  -0.096206  0  3.982407  0
C  C164  1  0.69163937  0.93281131  0.70111838  1  0.076329  0  -0.085019  -0.09759  0  3.983433  0
C  C165  1  0.75882769  0.06718264  0.79888087  1  -0.048098  0  -0.084814  -0.096196  0  3.982368  0
C  C166  1  0.43110049  0.06628401  0.29917947  1  -0.075455  0  -0.083529  -0.098924  0  3.985149  0
C  C167  1  0.36477331  0.93370077  0.20080220  1  -0.043351  0  -0.083326  -0.099824  0  3.985074  0
C  C168  1  0.56889934  0.93371662  0.70082042  1  -0.075467  0  -0.08352  -0.098923  0  3.985233  0
C  C169  1  0.63522741  0.06629985  0.79919769  1  -0.043376  0  -0.083369  -0.099856  0  3.985045  0
C  C170  1  0.45967469  0.00000138  0.24998575  1  -0.02446  0  -0.014729  -0.035607  0  3.973756  0
C  C171  1  0.54032691  0.99999925  0.75001414  1  -0.024451  0  -0.014738  -0.035585  0  3.97374  0
C  C172  1  0.08167671  0.00004451  0.25002471  1  1.560777  0  0.237285  0.647844  0  4.154806  0
C  C173  1  0.91832271  0.99995529  0.74997464  1  1.560774  0  0.237287  0.647833  0  4.154893  0
C  C174  1  0.59201508  0.99998228  0.25001297  1  1.591386  0  0.233844  0.637847  0  4.157873  0
C  C175  1  0.40798434  0.00001752  0.74998687  1  1.591412  0  0.233842  0.637827  0  4.157891  0
N  N176  1  0.07491728  0.29254374  0.21180866  1  -1.208435  0  -0.360826  -0.369138  0  3.49607  0
N  N177  1  0.78233583  0.70744457  0.28818578  1  -1.230283  0  -0.361161  -0.369744  0  3.49353  0
N  N178  1  0.92508344  0.70745689  0.78819074  1  -1.20841  0  -0.360808  -0.369112  0  3.495987  0
N  N179  1  0.21766448  0.29255523  0.71181357  1  -1.230295  0  -0.361165  -0.369749  0  3.493516  0
N  N180  1  0.85050387  0.30737473  0.25189291  1  -1.251132  0  -0.370058  -0.3674  0  3.498765  0
N  N181  1  0.54309887  0.69258824  0.24807641  1  -1.247614  0  -0.369608  -0.366763  0  3.499367  0
N  N182  1  0.14949555  0.69262507  0.74810693  1  -1.251125  0  -0.37007  -0.36746  0  3.498741  0
N  N183  1  0.45690227  0.30741322  0.75192353  1  -1.247736  0  -0.369603  -0.366732  0  3.499408  0
N  N184  1  0.13154894  0.58458461  0.06278195  1  -1.126497  0  -0.339596  -0.396431  0  3.170736  0
N  N185  1  0.54692909  0.41541126  0.43718858  1  -1.108826  0  -0.33941  -0.396215  0  3.171609  0
N  N186  1  0.86845136  0.41541519  0.93721789  1  -1.126482  0  -0.339573  -0.396418  0  3.170729  0
N  N187  1  0.45307121  0.58458854  0.56281126  1  -1.108716  0  -0.339421  -0.396261  0  3.171609  0
N  N188  1  0.95385828  0.60394552  0.10099673  1  -1.286601  0  -0.369734  -0.293667  0  3.564866  0
N  N189  1  0.34986397  0.39603207  0.39898652  1  -1.287944  0  -0.369992  -0.294325  0  3.562175  0
N  N190  1  0.04614202  0.39605428  0.89900361  1  -1.287034  0  -0.369797  -0.293716  0  3.564952  0
N  N191  1  0.65013764  0.60396856  0.60101337  1  -1.287946  0  -0.369977  -0.294261  0  3.562158  0
O  O192  1  0.14626289  0.94455569  0.81465526  1  -1.217312  0  -0.442707  -0.748816  0  2.454894  0
O  O193  1  0.20165484  0.05557494  0.68533095  1  -1.215056  0  -0.443083  -0.74913  0  2.454464  0
O  O194  1  0.85373652  0.05544411  0.18534508  1  -1.217317  0  -0.442726  -0.748858  0  2.454853  0
O  O195  1  0.79834458  0.94442485  0.31466890  1  -1.215069  0  -0.443094  -0.749146  0  2.454463  0
O  O196  1  0.13816653  0.06269646  0.89721841  1  -1.160543  0  -0.34778  -0.579848  0  2.160415  0
O  O197  1  0.07562381  0.93729395  0.60277057  1  -1.167232  0  -0.347926  -0.580636  0  2.159583  0
O  O198  1  0.86183200  0.93730334  0.10278193  1  -1.160549  0  -0.347748  -0.579818  0  2.160427  0
O  O199  1  0.92437650  0.06270585  0.39722928  1  -1.16722  0  -0.34791  -0.580608  0  2.15954  0
O  O200  1  0.06805203  0.31966998  0.36882883  1  -1.208048  0  -0.373717  -0.659862  0  2.213571  0
O  O201  1  0.74842758  0.68023883  0.13113432  1  -1.206699  0  -0.373903  -0.659587  0  2.21431  0
O  O202  1  0.93194827  0.68032982  0.63117101  1  -1.208012  0  -0.373659  -0.659767  0  2.213649  0
O  O203  1  0.25157273  0.31976097  0.86886552  1  -1.206702  0  -0.373893  -0.659555  0  2.214308  0
O  O204  1  0.85482899  0.24449878  0.39012012  1  -1.168368  0  -0.370558  -0.591138  0  2.215989  0
O  O205  1  0.61049093  0.75553962  0.10987142  1  -1.151219  0  -0.370068  -0.590134  0  2.215346  0
O  O206  1  0.14517043  0.75550102  0.60987972  1  -1.168379  0  -0.370549  -0.591121  0  2.216063  0
O  O207  1  0.38950849  0.24446018  0.89012892  1  -1.151316  0  -0.370076  -0.590154  0  2.215394  0
O  O208  1  0.07389247  0.08713808  0.27603730  1  -1.199057  0  -0.403129  -0.661969  0  2.335544  0
O  O209  1  0.98675634  0.91298227  0.22401510  1  -1.203059  0  -0.402579  -0.661801  0  2.336569  0
O  O210  1  0.92610694  0.91286172  0.72396254  1  -1.199038  0  -0.403126  -0.661972  0  2.335567  0
O  O211  1  0.01324396  0.08701753  0.77598425  1  -1.203042  0  -0.402573  -0.66178  0  2.336631  0
O  O212  1  0.60337362  0.92065571  0.21537010  1  -1.184498  0  -0.39633  -0.640009  0  2.340571  0
O  O213  1  0.68266475  0.07931989  0.28465812  1  -1.188562  0  -0.396644  -0.64047  0  2.33952  0
O  O214  1  0.39662621  0.07934491  0.78462979  1  -1.184494  0  -0.396292  -0.639985  0  2.340545  0
O  O215  1  0.31733467  0.92067991  0.71534173  1  -1.188582  0  -0.39665  -0.640459  0  2.339533  0
