# generated using pymatgen
data_Zn4H14C34O13F4
_symmetry_space_group_name_H-M   'P 1'
_cell_length_a   18.52788137
_cell_length_b   18.52799836
_cell_length_c   22.34699056
_cell_angle_alpha   114.44024112
_cell_angle_beta   114.43886906
_cell_angle_gamma   90.05744550
_symmetry_Int_Tables_number   1
_chemical_formula_structural   Zn4H14C34O13F4
_chemical_formula_sum   'Zn8 H28 C68 O26 F8'
_cell_volume   6219.52200841
_cell_formula_units_Z   2
loop_
 _symmetry_equiv_pos_site_id
 _symmetry_equiv_pos_as_xyz
  1  'x, y, z'
loop_
 _atom_site_type_symbol
 _atom_site_label
 _atom_site_symmetry_multiplicity
 _atom_site_fract_x
 _atom_site_fract_y
 _atom_site_fract_z
 _atom_site_occupancy
 _atom_site_pbe_bader_charge
 _atom_site_pbe_bader_spin_density
 _atom_site_pbe_cm5_charge
 _atom_site_pbe_ddec_charge
 _atom_site_pbe_ddec_spin_density
 _atom_site_pbe_ddec_sum_bond_order
 _atom_site_pbe_magmom
Zn  Zn0  1  0.44661977  0.02979823  0.56347896  1  1.304962  0  0.673046  0.961196  0  2.391435  0
Zn  Zn1  1  0.02980009  0.44662140  0.56348131  1  1.304919  0  0.673031  0.961162  0  2.391539  0
Zn  Zn2  1  0.46891701  0.88160859  0.43814019  1  1.314654  0  0.672813  0.961423  0  2.364781  0
Zn  Zn3  1  0.88161091  0.46891310  0.43813990  1  1.314684  0  0.67282  0.961419  0  2.364743  0
Zn  Zn4  1  0.61843513  0.03195382  0.56280361  1  1.312812  0  0.670856  0.95862  0  2.385156  0
Zn  Zn5  1  0.03195428  0.61843382  0.56280552  1  1.31298  0  0.670805  0.958526  0  2.385269  0
Zn  Zn6  1  0.46970687  0.05676223  0.43828223  1  1.312571  0  0.674761  0.964539  0  2.351582  0
Zn  Zn7  1  0.05676557  0.46970265  0.43828167  1  1.312464  0  0.674786  0.96454  0  2.351542  0
H  H8  1  0.80383856  0.18022232  0.57874444  1  0.080593  0  0.107449  0.115023  0  0.994141  0
H  H9  1  0.18021473  0.80384023  0.57873941  1  0.080503  0  0.107446  0.114956  0  0.994195  0
H  H10  1  0.89872591  0.27511252  0.57867406  1  0.112116  0  0.108488  0.116498  0  0.99118  0
H  H11  1  0.27510571  0.89872645  0.57866802  1  0.112001  0  0.108455  0.11645  0  0.991266  0
H  H12  1  0.64837141  0.37193957  0.42335172  1  0.063351  0  0.100207  0.117317  0  0.981991  0
H  H13  1  0.37194975  0.64836818  0.42335783  1  0.063051  0  0.100188  0.117214  0  0.982031  0
H  H14  1  0.65579157  0.29005204  0.34929785  1  0.058291  0  0.09913  0.110231  0  0.97901  0
H  H15  1  0.29006215  0.65578037  0.34930135  1  0.057774  0  0.09909  0.1101  0  0.978923  0
H  H16  1  0.55205723  0.27561076  0.42367383  1  0.052948  0  0.097418  0.107411  0  0.983971  0
H  H17  1  0.27562101  0.55205472  0.42368246  1  0.053245  0  0.097439  0.107446  0  0.983981  0
H  H18  1  0.55928659  0.19386627  0.34941516  1  0.070238  0  0.100057  0.111972  0  0.977557  0
H  H19  1  0.19387855  0.55927733  0.34942097  1  0.070324  0  0.100067  0.111962  0  0.977577  0
H  H20  1  0.80365511  0.89855706  0.57900499  1  0.11978  0  0.114203  0.120584  0  0.983226  0
H  H21  1  0.89855731  0.80365385  0.57900529  1  0.119768  0  0.114221  0.120594  0  0.983218  0
H  H22  1  0.65634125  0.55863068  0.34966769  1  0.089048  0  0.107277  0.071831  0  0.953312  0
H  H23  1  0.55863578  0.65633615  0.34966798  1  0.089014  0  0.107315  0.071868  0  0.953369  0
H  H24  1  0.28268472  0.38031545  0.43648357  1  0.076525  0  0.106558  0.069958  0  0.956474  0
H  H25  1  0.38031925  0.28267821  0.43648145  1  0.08795  0  0.106524  0.070009  0  0.956377  0
H  H26  1  0.71444078  0.38307835  0.04619164  1  0.088116  0  0.113551  0.120681  0  0.971467  0
H  H27  1  0.38259704  0.71356755  0.04616195  1  0.089325  0  0.113787  0.121303  0  0.971267  0
H  H28  1  0.89801444  0.26878851  0.04520674  1  0.059701  0  0.115583  0.124985  0  0.968961  0
H  H29  1  0.26975597  0.89803920  0.04522155  1  0.056179  0  0.115634  0.125289  0  0.969075  0
H  H30  1  0.78613875  0.11756941  0.95483567  1  0.092739  0  0.110385  0.10162  0  0.97885  0
H  H31  1  0.11800856  0.78699938  0.95486326  1  0.098298  0  0.110287  0.101224  0  0.978635  0
H  H32  1  0.70824081  0.16740081  0.04702137  1  0.072205  0  0.108866  0.09899  0  0.980319  0
H  H33  1  0.16690649  0.70905552  0.04704113  1  0.074005  0  0.108934  0.099447  0  0.98008  0
H  H34  1  0.60296151  0.23150652  0.95596668  1  0.0874  0  0.109909  0.101727  0  0.978792  0
H  H35  1  0.23051900  0.60293545  0.95595276  1  0.079505  0  0.109695  0.101628  0  0.979141  0
C  C36  1  0.40102933  0.90048093  0.30151753  1  1.536648  0  0.231529  0.682498  0  4.235898  0
C  C37  1  0.90048542  0.40102859  0.30151673  1  1.53676  0  0.231361  0.682186  0  4.235699  0
C  C38  1  0.25513191  0.31582948  0.41147193  1  0.504709  0  0.031359  0.11625  0  3.868992  0
C  C39  1  0.31583324  0.25512660  0.41147128  1  0.581723  0  0.031281  0.116034  0  3.868918  0
C  C40  1  0.72961539  0.32359681  0.02557483  1  -0.026648  0  -0.069953  -0.154027  0  3.61663  0
C  C41  1  0.32332308  0.72913856  0.02556278  1  -0.008547  0  -0.070106  -0.154995  0  3.617676  0
C  C42  1  0.77392176  0.29568249  0.97648129  1  0.607172  0  0.113358  0.273492  0  3.727305  0
C  C43  1  0.29593022  0.77347752  0.97647727  1  0.59442  0  0.11317  0.275129  0  3.724141  0
C  C44  1  0.64038354  0.13909876  0.77928367  1  -0.050221  0  -0.049573  -0.2008  0  3.992499  0
C  C45  1  0.13910468  0.64038776  0.77928480  1  -0.050113  0  -0.049541  -0.200893  0  3.992471  0
C  C46  1  0.86100880  0.36150238  0.22202156  1  -0.010146  0  -0.052159  -0.204828  0  3.99519  0
C  C47  1  0.36150239  0.86100115  0.22202147  1  -0.010064  0  -0.052291  -0.205209  0  3.995173  0
C  C48  1  0.66862312  0.23995035  0.97653165  1  -0.023386  0  -0.066597  -0.065486  0  3.636545  0
C  C49  1  0.23940005  0.66861090  0.97652594  1  -0.018545  0  -0.066349  -0.065424  0  3.636562  0
C  C50  1  0.71110164  0.21128150  0.92436247  1  0.173314  0  0.003508  0.050335  0  3.812026  0
C  C51  1  0.21123928  0.71111406  0.92436328  1  0.168726  0  0.003515  0.049404  0  3.811878  0
C  C52  1  0.72641785  0.20373606  0.02566442  1  -0.02177  0  -0.063594  -0.072088  0  3.614925  0
C  C53  1  0.20344403  0.72687272  0.02566824  1  -0.015765  0  -0.063433  -0.072626  0  3.615074  0
C  C54  1  0.78901657  0.28822462  0.07666241  1  0.158985  0  0.011123  0.137891  0  3.793484  0
C  C55  1  0.28823070  0.78900915  0.07666361  1  0.160394  0  0.011172  0.138384  0  3.793659  0
C  C56  1  0.77067305  0.17676558  0.97613288  1  -0.017217  0  -0.062395  -0.058084  0  3.627568  0
C  C57  1  0.17700293  0.77115309  0.97614848  1  -0.03666  0  -0.06257  -0.057212  0  3.627539  0
C  C58  1  0.60077520  0.09958470  0.69994165  1  1.691401  0  0.23062  0.680243  0  4.239704  0
C  C59  1  0.09959396  0.60077664  0.69994296  1  1.691086  0  0.230604  0.680189  0  4.240151  0
C  C60  1  0.83241842  0.25992502  0.02518064  1  -0.014053  0  -0.072202  -0.160793  0  3.62257  0
C  C61  1  0.26045297  0.83243429  0.02519084  1  -0.005614  0  -0.072237  -0.162113  0  3.623298  0
C  C62  1  0.67304940  0.17234803  0.84651284  1  -0.34302  0  -0.023659  -0.020263  0  4.09355  0
C  C63  1  0.17233023  0.67306167  0.84651574  1  -0.342782  0  -0.023642  -0.019965  0  4.09386  0
C  C64  1  0.82764333  0.32772956  0.15474099  1  -0.23076  0  -0.024322  -0.034433  0  4.075389  0
C  C65  1  0.32772943  0.82763142  0.15474253  1  -0.230527  0  -0.024179  -0.034085  0  4.075032  0
C  C66  1  0.66862862  0.23531542  0.45706034  1  -0.031213  0  -0.002329  0.063573  0  3.880809  0
C  C67  1  0.23532035  0.66862505  0.45706312  1  -0.030792  0  -0.002225  0.063697  0  3.880715  0
C  C68  1  0.69586571  0.19493833  0.50028934  1  0.002702  0  -0.014016  -0.080254  0  3.982097  0
C  C69  1  0.19493855  0.69586479  0.50028943  1  0.002397  0  -0.014005  -0.080291  0  3.982303  0
C  C70  1  0.78054070  0.21072240  0.54418866  1  -0.018603  0  -0.083883  -0.100301  0  3.981723  0
C  C71  1  0.21071825  0.78054083  0.54418516  1  -0.01831  0  -0.083946  -0.100257  0  3.981979  0
C  C72  1  0.83370493  0.26392891  0.54416612  1  -0.059619  0  -0.082943  -0.098817  0  3.978529  0
C  C73  1  0.26392431  0.83370447  0.54416183  1  -0.059662  0  -0.082907  -0.098816  0  3.978715  0
C  C74  1  0.80551355  0.30471722  0.50024090  1  -0.057651  0  -0.013356  -0.080607  0  3.981259  0
C  C75  1  0.30471798  0.80551041  0.50023906  1  -0.057979  0  -0.013266  -0.080484  0  3.981099  0
C  C76  1  0.72194688  0.28867326  0.45700307  1  0.027561  0  -0.001182  0.066964  0  3.87973  0
C  C77  1  0.28867802  0.72194307  0.45700483  1  0.028062  0  -0.00123  0.066936  0  3.879637  0
C  C78  1  0.65455496  0.30840530  0.40225386  1  -0.016004  0  -0.150089  -0.201703  0  3.876998  0
C  C79  1  0.30841514  0.65454939  0.40225888  1  -0.015219  0  -0.150037  -0.2014  0  3.876781  0
C  C80  1  0.36197926  0.86246903  0.50102774  1  1.566633  0  0.228678  0.608947  0  4.173207  0
C  C81  1  0.86247225  0.36197865  0.50102922  1  1.566562  0  0.228765  0.609154  0  4.173071  0
C  C82  1  0.59420508  0.24799898  0.40229029  1  -0.021722  0  -0.150216  -0.200272  0  3.885482  0
C  C83  1  0.24800886  0.59420071  0.40229708  1  -0.022266  0  -0.150292  -0.200406  0  3.88548  0
C  C84  1  0.66875366  0.72191476  0.45868880  1  -0.031447  0  -0.004998  -0.005191  0  3.901599  0
C  C85  1  0.72191773  0.66875154  0.45868910  1  0.090549  0  -0.005028  -0.005276  0  3.901742  0
C  C86  1  0.69583964  0.80585083  0.50076874  1  -0.028764  0  -0.001996  -0.042543  0  3.942899  0
C  C87  1  0.80585274  0.69583793  0.50076876  1  -0.028706  0  -0.002035  -0.042701  0  3.943099  0
C  C88  1  0.78014959  0.83354967  0.54437652  1  -0.112414  0  -0.068857  -0.081528  0  3.934232  0
C  C89  1  0.83355076  0.78014767  0.54437668  1  0.00992  0  -0.06886  -0.081444  0  3.934267  0
C  C90  1  0.65498275  0.59426736  0.40248996  1  0.587728  0  0.030164  0.111596  0  3.865035  0
C  C91  1  0.59427111  0.65497876  0.40248999  1  0.498708  0  0.030093  0.111498  0  3.865279  0
C  C92  1  0.63956028  0.13851049  0.50097428  1  1.526838  0  0.227344  0.60876  0  4.176321  0
C  C93  1  0.13851064  0.63955908  0.50097424  1  1.526855  0  0.227341  0.608725  0  4.17639  0
C  C94  1  0.63935251  0.86318509  0.50081768  1  1.58725  0  0.230118  0.605578  0  4.178949  0
C  C95  1  0.86318614  0.63935012  0.50081795  1  1.587236  0  0.230145  0.605609  0  4.179096  0
C  C96  1  0.36290599  0.13700529  0.50079821  1  1.623494  0  0.231041  0.625333  0  4.173617  0
C  C97  1  0.13700704  0.36290449  0.50079805  1  1.623456  0  0.230948  0.625294  0  4.173713  0
C  C98  1  0.28829652  0.23528860  0.45897811  1  0.105456  0  -0.008979  -0.004346  0  3.930957  0
C  C99  1  0.23529252  0.28829364  0.45897891  1  -0.017752  0  -0.008861  -0.004191  0  3.930679  0
C  C100  1  0.30332928  0.19139438  0.49960979  1  0.043979  0  -0.008264  -0.132434  0  3.943856  0
C  C101  1  0.19139639  0.30332809  0.49961060  1  0.043843  0  -0.008284  -0.132462  0  3.943792  0
C  C102  1  0.25758883  0.20363275  0.53851244  1  0.573106  0  0.113009  0.174503  0  4.012755  0
C  C103  1  0.20363343  0.25758871  0.53851264  1  0.451625  0  0.113002  0.174442  0  4.01276  0
O  O104  1  0.50063769  0.99990301  0.49985888  1  -1.217322  0  -0.571068  -1.032068  0  2.531808  0
O  O105  1  0.99990459  0.50063539  0.49986013  1  -1.217352  0  -0.571089  -1.032049  0  2.531767  0
O  O106  1  0.37515108  0.93755252  0.54512848  1  -1.171207  0  -0.313513  -0.542115  0  2.340626  0
O  O107  1  0.93755513  0.37515087  0.54513019  1  -1.171103  0  -0.313595  -0.542268  0  2.34069  0
O  O108  1  0.56422571  0.12702358  0.45802087  1  -1.168869  0  -0.311282  -0.54249  0  2.332876  0
O  O109  1  0.12702570  0.56422444  0.45802221  1  -1.168857  0  -0.311281  -0.542454  0  2.332861  0
O  O110  1  0.41670811  0.85396150  0.33246636  1  -1.143418  0  -0.31388  -0.544113  0  2.275124  0
O  O111  1  0.85396390  0.41670644  0.33246556  1  -1.143248  0  -0.313785  -0.543993  0  2.274948  0
O  O112  1  0.64671581  0.08366045  0.66845627  1  -1.146695  0  -0.310995  -0.539223  0  2.278176  0
O  O113  1  0.08366961  0.64671633  0.66845782  1  -1.146646  0  -0.310991  -0.539178  0  2.278439  0
O  O114  1  0.41634258  0.97788888  0.33294358  1  -1.115464  0  -0.309823  -0.538693  0  2.276174  0
O  O115  1  0.97789224  0.41634214  0.33294325  1  -1.115603  0  -0.30975  -0.538555  0  2.276048  0
O  O116  1  0.52333889  0.08430206  0.66889016  1  -1.13684  0  -0.31088  -0.539037  0  2.281282  0
O  O117  1  0.08430945  0.52333998  0.66889191  1  -1.136712  0  -0.310894  -0.539006  0  2.281533  0
O  O118  1  0.39349978  0.83115263  0.45730349  1  -1.166016  0  -0.30966  -0.538475  0  2.329735  0
O  O119  1  0.83115638  0.39349605  0.45730424  1  -1.165885  0  -0.309586  -0.538432  0  2.329682  0
O  O120  1  0.67066278  0.10635785  0.54409723  1  -1.16176  0  -0.314693  -0.544059  0  2.341405  0
O  O121  1  0.10635713  0.67066275  0.54409790  1  -1.161826  0  -0.314696  -0.544045  0  2.341367  0
O  O122  1  0.56475859  0.83177048  0.45547741  1  -1.170841  0  -0.306521  -0.534473  0  2.331197  0
O  O123  1  0.83177231  0.56475564  0.45547748  1  -1.170868  0  -0.306482  -0.534422  0  2.331237  0
O  O124  1  0.39434105  0.12803173  0.45770610  1  -1.141122  0  -0.303311  -0.5287  0  2.316452  0
O  O125  1  0.12803557  0.39433791  0.45770677  1  -1.141002  0  -0.303281  -0.528686  0  2.316558  0
O  O126  1  0.67053943  0.93783582  0.54569187  1  -1.174238  0  -0.310525  -0.538693  0  2.333865  0
O  O127  1  0.93783693  0.67053738  0.54569379  1  -1.174255  0  -0.310568  -0.538702  0  2.33391  0
O  O128  1  0.37723551  0.10587297  0.54454315  1  -1.168986  0  -0.308119  -0.534075  0  2.363282  0
O  O129  1  0.10587165  0.37723379  0.54454261  1  -1.168941  0  -0.308036  -0.534021  0  2.36326  0
F  F130  1  0.26188348  0.16414531  0.57822476  1  -0.607613  0  -0.081773  -0.097388  0  1.392682  0
F  F131  1  0.16414526  0.26188547  0.57822616  1  -0.607581  0  -0.081742  -0.097347  0  1.392683  0
F  F132  1  0.64332812  0.54029204  0.42811052  1  -0.625082  0  -0.146724  -0.1846  0  1.274799  0
F  F133  1  0.54029441  0.64332441  0.42811089  1  -0.625048  0  -0.146719  -0.184588  0  1.274907  0
F  F134  1  0.19234654  0.29494501  0.34158678  1  -0.618693  0  -0.146095  -0.177562  0  1.274097  0
F  F135  1  0.29494790  0.19233961  0.34158547  1  -0.618362  0  -0.145982  -0.177462  0  1.274092  0
F  F136  1  0.79751850  0.34227017  0.95098851  1  -0.636157  0  -0.128058  -0.18597  0  1.274705  0
F  F137  1  0.34278575  0.79663704  0.95098902  1  -0.63577  0  -0.128044  -0.186395  0  1.273326  0
