# generated using pymatgen
data_ZnH10C16(NO)4
_symmetry_space_group_name_H-M   'P 1'
_cell_length_a   14.41496678
_cell_length_b   14.43983493
_cell_length_c   14.44290599
_cell_angle_alpha   107.50115644
_cell_angle_beta   107.40237685
_cell_angle_gamma   107.41667075
_symmetry_Int_Tables_number   1
_chemical_formula_structural   ZnH10C16(NO)4
_chemical_formula_sum   'Zn6 H60 C96 N24 O24'
_cell_volume   2472.99211965
_cell_formula_units_Z   6
loop_
 _symmetry_equiv_pos_site_id
 _symmetry_equiv_pos_as_xyz
  1  'x, y, z'
loop_
 _atom_site_type_symbol
 _atom_site_label
 _atom_site_symmetry_multiplicity
 _atom_site_fract_x
 _atom_site_fract_y
 _atom_site_fract_z
 _atom_site_occupancy
 _atom_site_pbe_bader_charge
 _atom_site_pbe_bader_spin_density
 _atom_site_pbe_cm5_charge
 _atom_site_pbe_ddec_charge
 _atom_site_pbe_ddec_spin_density
 _atom_site_pbe_ddec_sum_bond_order
 _atom_site_pbe_magmom
Zn  Zn0  1  0.28052534  0.74972628  0.00252751  1  1.189062  0  0.713197  0.671681  0  2.441084  0
Zn  Zn1  1  0.00271014  0.28064241  0.74953969  1  1.191119  0  0.713347  0.671118  0  2.44271  0
Zn  Zn2  1  0.74990224  0.00286622  0.28052983  1  1.189618  0  0.71324  0.671896  0  2.440365  0
Zn  Zn3  1  0.71949875  0.25020758  0.99733164  1  1.19017  0  0.713327  0.671603  0  2.441534  0
Zn  Zn4  1  0.99717863  0.71917722  0.25021315  1  1.189797  0  0.713219  0.671482  0  2.442449  0
Zn  Zn5  1  0.25008894  0.99705445  0.71935574  1  1.189716  0  0.713192  0.671685  0  2.441141  0
H  H6  1  0.12883013  0.51435379  0.94115011  1  0.132374  0  0.125116  0.079761  0  1.037948  0
H  H7  1  0.94136666  0.12871330  0.51433141  1  0.131043  0  0.125271  0.08032  0  1.038252  0
H  H8  1  0.51436296  0.94124463  0.12863524  1  0.13082  0  0.125085  0.079936  0  1.037619  0
H  H9  1  0.87101153  0.48554105  0.05867211  1  0.13176  0  0.125138  0.080059  0  1.038328  0
H  H10  1  0.05841239  0.87109132  0.48560998  1  0.131075  0  0.125056  0.080013  0  1.037571  0
H  H11  1  0.48559455  0.05869227  0.87126523  1  0.131317  0  0.125145  0.080189  0  1.03764  0
H  H12  1  0.35216689  0.71062250  0.79398533  1  0.128149  0  0.100198  0.108126  0  1.034651  0
H  H13  1  0.79370009  0.35187831  0.71047600  1  0.058959  0  0.100379  0.107853  0  1.035622  0
H  H14  1  0.71075694  0.79439671  0.35212431  1  0.129607  0  0.1005  0.108458  0  1.034294  0
H  H15  1  0.64777516  0.28923303  0.20589105  1  0.129169  0  0.100383  0.108248  0  1.034439  0
H  H16  1  0.20604754  0.64802587  0.28928915  1  0.130068  0  0.100329  0.108252  0  1.035359  0
H  H17  1  0.28925782  0.20560666  0.64782971  1  0.128919  0  0.1005  0.10858  0  1.03479  0
H  H18  1  0.33140534  0.61209824  0.60923521  1  0.081285  0  0.094725  0.098337  0  1.018694  0
H  H19  1  0.60878666  0.33117108  0.61193883  1  0.04984  0  0.094925  0.098487  0  1.019158  0
H  H20  1  0.61216400  0.60965351  0.33127194  1  0.082655  0  0.094926  0.098588  0  1.018748  0
H  H21  1  0.66852069  0.38778025  0.39063703  1  0.083354  0  0.094746  0.098403  0  1.018878  0
H  H22  1  0.39092861  0.66865252  0.38778151  1  0.079864  0  0.094975  0.098604  0  1.01889  0
H  H23  1  0.38787557  0.39032843  0.66866089  1  0.08231  0  0.095067  0.098995  0  1.018344  0
H  H24  1  0.20897616  0.41902863  0.50232343  1  0.068221  0  0.100271  0.104897  0  1.003727  0
H  H25  1  0.50201886  0.20894065  0.41889500  1  0.06484  0  0.100039  0.104188  0  1.00395  0
H  H26  1  0.41904723  0.50266511  0.20874722  1  0.071208  0  0.100068  0.10395  0  1.00335  0
H  H27  1  0.79085903  0.58084965  0.49748914  1  0.076602  0  0.100153  0.104399  0  1.003462  0
H  H28  1  0.49773326  0.79082677  0.58084099  1  0.073773  0  0.100135  0.104322  0  1.003926  0
H  H29  1  0.58101312  0.49728932  0.79116420  1  0.071711  0  0.10015  0.104237  0  1.003169  0
H  H30  1  0.10376074  0.31607918  0.57683446  1  0.043759  0  0.097452  0.104173  0  1.045877  0
H  H31  1  0.57679478  0.10383233  0.31593156  1  0.041012  0  0.097468  0.104142  0  1.045656  0
H  H32  1  0.31594378  0.57699209  0.10344487  1  0.042405  0  0.097378  0.104042  0  1.045982  0
H  H33  1  0.89601428  0.68383307  0.42297173  1  0.044  0  0.097397  0.103915  0  1.046198  0
H  H34  1  0.42302179  0.89599012  0.68386015  1  0.043283  0  0.097304  0.103913  0  1.046207  0
H  H35  1  0.68407224  0.42291297  0.89642612  1  0.042494  0  0.097521  0.103996  0  1.046002  0
H  H36  1  0.22192587  0.78199469  0.21792996  1  0.123177  0  0.123496  0.083082  0  1.035234  0
H  H37  1  0.21804461  0.22172894  0.78180403  1  0.121302  0  0.123365  0.082915  0  1.034931  0
H  H38  1  0.78277043  0.21819230  0.22188569  1  0.13895  0  0.123316  0.082722  0  1.03414  0
H  H39  1  0.77801623  0.21789350  0.78193474  1  0.134474  0  0.123456  0.083119  0  1.034879  0
H  H40  1  0.78179795  0.77810689  0.21768509  1  0.134638  0  0.1235  0.083194  0  1.035063  0
H  H41  1  0.21768590  0.78180536  0.77803199  1  0.134241  0  0.123471  0.08338  0  1.03493  0
H  H42  1  0.81907137  0.60719484  0.00754923  1  0.060738  0  0.097707  0.104725  0  1.040603  0
H  H43  1  0.00720578  0.81941908  0.60734217  1  0.067941  0  0.097426  0.104078  0  1.040025  0
H  H44  1  0.60773065  0.00744659  0.81957394  1  0.066991  0  0.097832  0.104882  0  1.039698  0
H  H45  1  0.18089883  0.39246758  0.99210885  1  0.057874  0  0.09772  0.105024  0  1.040397  0
H  H46  1  0.99287933  0.18040820  0.39309182  1  0.073387  0  0.097424  0.103957  0  1.039944  0
H  H47  1  0.39218912  0.99248590  0.18032781  1  0.066083  0  0.097817  0.105109  0  1.039114  0
H  H48  1  0.05847302  0.63503690  0.81518382  1  0.069285  0  0.101506  0.114272  0  1.016366  0
H  H49  1  0.81463857  0.05863381  0.63499730  1  0.060355  0  0.101559  0.114774  0  1.01621  0
H  H50  1  0.63574201  0.81531839  0.05855661  1  0.066953  0  0.10157  0.114561  0  1.016051  0
H  H51  1  0.94168541  0.36539093  0.18471072  1  0.073488  0  0.101183  0.113746  0  1.016232  0
H  H52  1  0.18523242  0.94106012  0.36483383  1  0.060007  0  0.10175  0.115015  0  1.016662  0
H  H53  1  0.36407180  0.18462721  0.94135489  1  0.066769  0  0.101727  0.11472  0  1.015892  0
H  H54  1  0.74284263  0.52784857  0.80762840  1  0.037389  0  0.096655  0.0951  0  1.032655  0
H  H55  1  0.80702876  0.74330558  0.52811302  1  0.01461  0  0.096415  0.095084  0  1.031831  0
H  H56  1  0.52848578  0.80749163  0.74338355  1  0.019262  0  0.096621  0.095319  0  1.031572  0
H  H57  1  0.25723587  0.47214290  0.19205647  1  0.035141  0  0.096686  0.094995  0  1.033365  0
H  H58  1  0.19303573  0.25642996  0.47257474  1  0.100609  0  0.096862  0.095641  0  1.031746  0
H  H59  1  0.47114253  0.19243333  0.25654267  1  0.020558  0  0.096653  0.095239  0  1.032074  0
H  H60  1  0.86023257  0.54040561  0.71386335  1  0.086372  0  0.098989  0.104097  0  1.00687  0
H  H61  1  0.71314328  0.86058734  0.54060244  1  0.075413  0  0.098702  0.103033  0  1.007115  0
H  H62  1  0.54119696  0.71380966  0.86056740  1  0.085379  0  0.099107  0.103501  0  1.006919  0
H  H63  1  0.13992414  0.46006195  0.28592416  1  0.090333  0  0.099105  0.104576  0  1.00688  0
H  H64  1  0.28683933  0.13907940  0.45972117  1  0.076165  0  0.099029  0.103471  0  1.006875  0
H  H65  1  0.45839532  0.28615230  0.13937785  1  0.085565  0  0.099015  0.103406  0  1.006891  0
C  C66  1  0.15460009  0.51348221  0.87771920  1  0.988242  0  0.134367  0.170185  0  4.038399  0
C  C67  1  0.87785817  0.15450809  0.51339754  1  0.988142  0  0.134133  0.169551  0  4.038508  0
C  C68  1  0.51348920  0.87786450  0.15439397  1  0.988413  0  0.13457  0.170465  0  4.039051  0
C  C69  1  0.84525924  0.48640780  0.12210891  1  0.989493  0  0.134119  0.169306  0  4.038423  0
C  C70  1  0.12193289  0.84533200  0.48648047  1  0.987029  0  0.134735  0.170742  0  4.036566  0
C  C71  1  0.48648358  0.12207452  0.84550753  1  0.987549  0  0.134398  0.170054  0  4.03762  0
C  C72  1  0.23551688  0.56896282  0.78683188  1  0.373053  0  0.073402  0.131506  0  4.056848  0
C  C73  1  0.78674423  0.23537845  0.56882524  1  0.378709  0  0.072773  0.129563  0  4.057569  0
C  C74  1  0.56901953  0.78710049  0.23531471  1  0.366448  0  0.072836  0.130778  0  4.057546  0
C  C75  1  0.76440029  0.43090609  0.21303624  1  0.370633  0  0.073155  0.131475  0  4.057068  0
C  C76  1  0.21303877  0.76450597  0.43097915  1  0.374317  0  0.073321  0.131394  0  4.057776  0
C  C77  1  0.43097419  0.21286123  0.76459911  1  0.36613  0  0.073077  0.130542  0  4.057167  0
C  C78  1  0.29709910  0.62579443  0.74656426  1  -0.124923  0  -0.101799  -0.169051  0  4.011863  0
C  C79  1  0.74632772  0.29689054  0.62565850  1  -0.05269  0  -0.101833  -0.167956  0  4.012203  0
C  C80  1  0.62587519  0.74691560  0.29694741  1  -0.057633  0  -0.101635  -0.168894  0  4.010099  0
C  C81  1  0.70282930  0.37406909  0.25330559  1  -0.125552  0  -0.101889  -0.16916  0  4.012511  0
C  C82  1  0.25344321  0.70300687  0.37412195  1  -0.122757  0  -0.10118  -0.168548  0  4.012377  0
C  C83  1  0.37413224  0.25306429  0.70297732  1  -0.056689  0  -0.101484  -0.168701  0  4.01054  0
C  C84  1  0.28598146  0.56974601  0.64377885  1  -0.015208  0  -0.10894  -0.103853  0  4.048342  0
C  C85  1  0.64346318  0.28580191  0.56960557  1  0.010342  0  -0.109073  -0.104094  0  4.04926  0
C  C86  1  0.56981069  0.64413869  0.28579989  1  -0.074538  0  -0.109069  -0.103951  0  4.048865  0
C  C87  1  0.71392204  0.43012433  0.35607801  1  -0.019866  0  -0.108626  -0.103637  0  4.04874  0
C  C88  1  0.35630121  0.71405566  0.43015132  1  -0.02114  0  -0.109439  -0.104417  0  4.04981  0
C  C89  1  0.43021838  0.35582714  0.71411392  1  -0.07439  0  -0.109422  -0.104728  0  4.049094  0
C  C90  1  0.21637728  0.45936745  0.58305306  1  -0.051937  0  -0.108584  -0.11011  0  4.063529  0
C  C91  1  0.58281880  0.21628711  0.45922763  1  -0.049331  0  -0.108472  -0.109775  0  4.064965  0
C  C92  1  0.45938325  0.58335775  0.21611505  1  -0.049543  0  -0.108201  -0.109253  0  4.066166  0
C  C93  1  0.78349006  0.54051579  0.41677127  1  -0.056332  0  -0.108511  -0.10981  0  4.063599  0
C  C94  1  0.41696156  0.78352935  0.54053074  1  -0.05471  0  -0.108596  -0.109784  0  4.064801  0
C  C95  1  0.54065698  0.41658593  0.78378093  1  -0.049909  0  -0.108287  -0.109316  0  4.065398  0
C  C96  1  0.16575123  0.45749647  0.72593284  1  0.34927  0  0.072655  0.137692  0  4.054692  0
C  C97  1  0.72591209  0.16568689  0.45735809  1  0.348856  0  0.073493  0.139134  0  4.055012  0
C  C98  1  0.45747287  0.72612588  0.16547879  1  0.360226  0  0.073602  0.137958  0  4.054888  0
C  C99  1  0.83414268  0.54239665  0.27392174  1  0.355256  0  0.072762  0.137245  0  4.055794  0
C  C100  1  0.27389818  0.83418734  0.54244515  1  0.352986  0  0.07316  0.138061  0  4.056304  0
C  C101  1  0.54253846  0.27381354  0.83442599  1  0.352323  0  0.073578  0.137839  0  4.054096  0
C  C102  1  0.15629330  0.40160125  0.62337334  1  -0.051774  0  -0.107732  -0.182568  0  4.024678  0
C  C103  1  0.62327596  0.15626379  0.40144952  1  -0.048622  0  -0.108037  -0.183138  0  4.025297  0
C  C104  1  0.40155630  0.62359116  0.15599108  1  -0.06298  0  -0.108132  -0.182883  0  4.024469  0
C  C105  1  0.84355562  0.59829958  0.37645422  1  -0.054104  0  -0.107786  -0.182201  0  4.025302  0
C  C106  1  0.37652936  0.84357126  0.59832322  1  -0.049906  0  -0.108067  -0.18298  0  4.025395  0
C  C107  1  0.59847346  0.37634443  0.84389590  1  -0.054824  0  -0.108318  -0.182813  0  4.023812  0
C  C108  1  0.15113081  0.74119751  0.14169790  1  0.989207  0  0.137299  0.183411  0  3.998024  0
C  C109  1  0.14167301  0.15104732  0.74105855  1  0.989913  0  0.13746  0.183836  0  3.998293  0
C  C110  1  0.74206693  0.14190726  0.15117323  1  0.973304  0  0.136884  0.183455  0  3.996414  0
C  C111  1  0.84884581  0.25870818  0.85814077  1  0.973833  0  0.13693  0.182534  0  3.997811  0
C  C112  1  0.85819783  0.84877458  0.25854562  1  0.978126  0  0.136909  0.183076  0  3.998265  0
C  C113  1  0.25829463  0.85808718  0.84873949  1  0.977092  0  0.13719  0.182277  0  3.998085  0
C  C114  1  0.98387601  0.66008469  0.02426061  1  0.317093  0  0.075779  0.14389  0  4.037026  0
C  C115  1  0.02397600  0.98404667  0.66009888  1  0.439125  0  0.074689  0.1435  0  4.038097  0
C  C116  1  0.66082018  0.02430948  0.98414684  1  0.285175  0  0.07518  0.143332  0  4.038604  0
C  C117  1  0.01612056  0.33982353  0.97550651  1  0.312883  0  0.075661  0.143928  0  4.039069  0
C  C118  1  0.97598626  0.01575237  0.33991480  1  0.438076  0  0.074896  0.143464  0  4.038017  0
C  C119  1  0.33920806  0.97565091  0.01576164  1  0.286077  0  0.075207  0.143865  0  4.037872  0
C  C120  1  0.87170560  0.61027785  0.96668571  1  -0.090077  0  -0.110476  -0.195795  0  4.038293  0
C  C121  1  0.96630538  0.87201508  0.61038148  1  -0.207262  0  -0.110147  -0.195231  0  4.03886  0
C  C122  1  0.61092910  0.96663604  0.87212182  1  -0.069743  0  -0.110527  -0.19588  0  4.039513  0
C  C123  1  0.12830596  0.38954736  0.03302298  1  -0.005607  0  -0.110488  -0.196033  0  4.039403  0
C  C124  1  0.03373046  0.12777583  0.38993418  1  -0.200057  0  -0.109782  -0.194439  0  4.038031  0
C  C125  1  0.38894093  0.03331019  0.12778999  1  -0.067836  0  -0.11041  -0.196284  0  4.038155  0
C  C126  1  0.05120330  0.66934564  0.96994493  1  0.417248  0  0.074866  0.137327  0  4.044382  0
C  C127  1  0.96962643  0.05133874  0.66926189  1  0.422133  0  0.07546  0.13796  0  4.043572  0
C  C128  1  0.67006282  0.97005669  0.05134807  1  0.413724  0  0.075036  0.137042  0  4.043412  0
C  C129  1  0.94885079  0.33076275  0.02988671  1  0.417596  0  0.075328  0.137566  0  4.044272  0
C  C130  1  0.03027605  0.94842665  0.33058752  1  0.331327  0  0.075781  0.138699  0  4.042671  0
C  C131  1  0.32994377  0.02990832  0.94856988  1  0.412143  0  0.075223  0.137611  0  4.042711  0
C  C132  1  0.00768550  0.62738214  0.85763129  1  -0.153798  0  -0.105343  -0.179745  0  4.025085  0
C  C133  1  0.85713596  0.00788142  0.62737146  1  -0.150469  0  -0.105155  -0.18102  0  4.024274  0
C  C134  1  0.62808888  0.85769734  0.00783632  1  -0.150013  0  -0.105326  -0.180422  0  4.024917  0
C  C135  1  0.99243971  0.37293572  0.14221839  1  -0.086059  0  -0.105076  -0.179009  0  4.023932  0
C  C136  1  0.14277382  0.99183210  0.37257886  1  -0.066896  0  -0.106207  -0.182256  0  4.024863  0
C  C137  1  0.37171934  0.14225679  0.99208091  1  -0.024614  0  -0.105477  -0.180404  0  4.02425  0
C  C138  1  0.82955529  0.56654008  0.85500021  1  0.067522  0  -0.107172  -0.093105  0  4.051175  0
C  C139  1  0.85445284  0.82991956  0.56667876  1  0.088887  0  -0.10628  -0.092688  0  4.052354  0
C  C140  1  0.56722114  0.85491063  0.82998283  1  0.105553  0  -0.106643  -0.093925  0  4.052857  0
C  C141  1  0.17052015  0.43349442  0.14472085  1  -0.016673  0  -0.107924  -0.094009  0  4.052792  0
C  C142  1  0.14558474  0.16981718  0.43377008  1  -0.004495  0  -0.107617  -0.094799  0  4.053345  0
C  C143  1  0.43247223  0.14502959  0.16993756  1  0.102343  0  -0.106413  -0.093303  0  4.051789  0
C  C144  1  0.89634074  0.57437349  0.80123609  1  0.018104  0  -0.105366  -0.094256  0  4.05634  0
C  C145  1  0.80064207  0.89665056  0.57450067  1  0.023359  0  -0.10578  -0.092822  0  4.055711  0
C  C146  1  0.57514066  0.80120885  0.89664050  1  0.003403  0  -0.104954  -0.092186  0  4.055947  0
C  C147  1  0.10378919  0.42595061  0.19855248  1  -0.048105  0  -0.105003  -0.094571  0  4.056761  0
C  C148  1  0.19933403  0.10304882  0.42573937  1  0.025248  0  -0.105116  -0.092028  0  4.05444  0
C  C149  1  0.42452063  0.19874970  0.10328274  1  -0.121379  0  -0.105252  -0.092801  0  4.055185  0
C  C150  1  0.07743305  0.61038246  0.51382155  1  2.136291  0  0.359436  0.701614  0  4.159977  0
C  C151  1  0.51389054  0.07737780  0.61042898  1  2.13714  0  0.35936  0.70135  0  4.159487  0
C  C152  1  0.61036592  0.51385853  0.07748838  1  2.138559  0  0.358818  0.701133  0  4.161363  0
C  C153  1  0.92248273  0.38953025  0.48611671  1  2.133942  0  0.359829  0.702427  0  4.158394  0
C  C154  1  0.48610962  0.92254754  0.38953128  1  2.135296  0  0.359532  0.701668  0  4.159329  0
C  C155  1  0.38953667  0.48600987  0.92230808  1  2.139993  0  0.358766  0.701242  0  4.160237  0
C  C156  1  0.97229658  0.81808993  0.81241937  1  2.132738  0  0.354576  0.695148  0  4.144571  0
C  C157  1  0.81379629  0.97318978  0.81958240  1  2.132303  0  0.354961  0.695128  0  4.144397  0
C  C158  1  0.82109060  0.81555902  0.97475364  1  2.138193  0  0.354277  0.695261  0  4.14238  0
C  C159  1  0.03068563  0.18509365  0.19098970  1  2.13664  0  0.354316  0.693409  0  4.145604  0
C  C160  1  0.18596437  0.02673254  0.18072311  1  2.135623  0  0.354705  0.695351  0  4.142834  0
C  C161  1  0.17815381  0.18426558  0.02525324  1  2.147522  0  0.355778  0.696298  0  4.141658  0
N  N162  1  0.22696095  0.60213034  0.88357319  1  -1.267933  0  -0.377686  -0.373339  0  3.534444  0
N  N163  1  0.88359200  0.22680499  0.60201818  1  -1.267765  0  -0.377549  -0.37239  0  3.535079  0
N  N164  1  0.60220161  0.88380683  0.22677503  1  -1.271009  0  -0.377857  -0.372897  0  3.535391  0
N  N165  1  0.77295060  0.39774704  0.11628194  1  -1.271892  0  -0.377815  -0.373259  0  3.53485  0
N  N166  1  0.11619022  0.77305161  0.39783652  1  -1.269497  0  -0.377954  -0.373564  0  3.536037  0
N  N167  1  0.39777200  0.11614271  0.77313124  1  -1.271394  0  -0.377758  -0.372636  0  3.534719  0
N  N168  1  0.11560486  0.42443989  0.78645758  1  -1.237833  0  -0.374417  -0.361055  0  3.542979  0
N  N169  1  0.78659347  0.11558381  0.42433380  1  -1.239038  0  -0.374497  -0.361633  0  3.543168  0
N  N170  1  0.42439527  0.78658042  0.11534300  1  -1.24092  0  -0.374342  -0.361487  0  3.54474  0
N  N171  1  0.88424723  0.57544994  0.21336279  1  -1.237829  0  -0.374027  -0.360372  0  3.542485  0
N  N172  1  0.21323452  0.88427842  0.57551476  1  -1.239438  0  -0.374552  -0.361561  0  3.543289  0
N  N173  1  0.57560154  0.21334048  0.88454916  1  -1.240424  0  -0.374564  -0.361288  0  3.54356  0
N  N174  1  0.15741064  0.72145392  0.04685333  1  -1.254431  0  -0.371168  -0.362916  0  3.51756  0
N  N175  1  0.04672336  0.15740215  0.72125674  1  -1.256661  0  -0.371099  -0.362689  0  3.517703  0
N  N176  1  0.72223926  0.04705974  0.15743056  1  -1.254231  0  -0.370332  -0.362668  0  3.515133  0
N  N177  1  0.84262822  0.27862413  0.95302495  1  -1.25078  0  -0.370826  -0.362228  0  3.516911  0
N  N178  1  0.95313295  0.84238310  0.27834460  1  -1.258425  0  -0.371249  -0.363522  0  3.517678  0
N  N179  1  0.27798335  0.95292145  0.84248042  1  -1.253013  0  -0.370627  -0.3626  0  3.515557  0
N  N180  1  0.04976024  0.70636485  0.13386501  1  -1.231569  0  -0.370426  -0.358913  0  3.505862  0
N  N181  1  0.13374695  0.04976865  0.70635569  1  -1.230629  0  -0.370596  -0.359726  0  3.509161  0
N  N182  1  0.70721898  0.13397589  0.04994758  1  -1.228555  0  -0.369799  -0.358867  0  3.506028  0
N  N183  1  0.95019923  0.29344276  0.86592191  1  -1.232651  0  -0.370265  -0.358244  0  3.507373  0
N  N184  1  0.86619342  0.95007378  0.29349204  1  -1.229272  0  -0.370369  -0.35917  0  3.508247  0
N  N185  1  0.29304860  0.86600625  0.94996600  1  -1.227165  0  -0.370379  -0.359277  0  3.505682  0
O  O186  1  0.06482001  0.54247059  0.43536210  1  -1.085318  0  -0.164877  -0.341359  0  2.225925  0
O  O187  1  0.43538992  0.06471127  0.54250210  1  -1.08611  0  -0.164977  -0.341595  0  2.226286  0
O  O188  1  0.54250855  0.43533539  0.06485798  1  -1.085781  0  -0.165078  -0.341776  0  2.226491  0
O  O189  1  0.93505156  0.45745161  0.56454506  1  -1.083594  0  -0.16507  -0.341936  0  2.225271  0
O  O190  1  0.56460871  0.93523741  0.45747784  1  -1.084506  0  -0.164816  -0.341495  0  2.226443  0
O  O191  1  0.45744357  0.56445958  0.93487936  1  -1.085052  0  -0.164926  -0.341794  0  2.226294  0
O  O192  1  0.08916004  0.67766371  0.59235263  1  -1.085692  0  -0.172639  -0.352263  0  2.240459  0
O  O193  1  0.59245730  0.08914881  0.67771593  1  -1.085767  0  -0.172286  -0.351878  0  2.240874  0
O  O194  1  0.67756977  0.59243867  0.08921206  1  -1.087392  0  -0.171866  -0.351554  0  2.241922  0
O  O195  1  0.91079914  0.32224064  0.40761961  1  -1.084984  0  -0.172874  -0.352631  0  2.240163  0
O  O196  1  0.40754036  0.91074785  0.32222254  1  -1.085426  0  -0.172647  -0.352222  0  2.240367  0
O  O197  1  0.32228570  0.40749765  0.91064814  1  -1.089726  0  -0.171917  -0.351642  0  2.241016  0
O  O198  1  0.05857177  0.88043539  0.87975371  1  -1.07315  0  -0.173208  -0.34347  0  2.243975  0
O  O199  1  0.87870205  0.06085936  0.88072511  1  -1.078768  0  -0.172637  -0.342278  0  2.248032  0
O  O200  1  0.88139293  0.88133717  0.06227322  1  -1.081454  0  -0.172688  -0.343156  0  2.250779  0
O  O201  1  0.94550742  0.12155584  0.12230943  1  -1.07868  0  -0.173983  -0.343087  0  2.236708  0
O  O202  1  0.12130588  0.93891921  0.11971287  1  -1.079779  0  -0.172714  -0.342423  0  2.249182  0
O  O203  1  0.11873530  0.11983792  0.93695435  1  -1.081785  0  -0.173102  -0.343341  0  2.251907  0
O  O204  1  0.88579957  0.75634014  0.74531718  1  -1.086329  0  -0.172876  -0.346695  0  2.248975  0
O  O205  1  0.74914598  0.88527529  0.75903525  1  -1.081034  0  -0.173501  -0.347776  0  2.248409  0
O  O206  1  0.76138201  0.75002899  0.88698294  1  -1.083346  0  -0.172504  -0.347108  0  2.246559  0
O  O207  1  0.11606727  0.24805271  0.25945816  1  -1.084395  0  -0.172467  -0.345377  0  2.249235  0
O  O208  1  0.25035776  0.11478088  0.24114096  1  -1.082954  0  -0.173082  -0.347883  0  2.24743  0
O  O209  1  0.23699868  0.24844714  0.11381260  1  -1.093152  0  -0.173321  -0.348207  0  2.24789  0
