# generated using pymatgen
data_LiH21C13SN
_symmetry_space_group_name_H-M   'P 1'
_cell_length_a   7.56918534
_cell_length_b   9.26858009
_cell_length_c   10.54236432
_cell_angle_alpha   85.44782785
_cell_angle_beta   72.99734083
_cell_angle_gamma   69.73262330
_symmetry_Int_Tables_number   1
_chemical_formula_structural   LiH21C13SN
_chemical_formula_sum   'Li2 H42 C26 S2 N2'
_cell_volume   663.29016572
_cell_formula_units_Z   2
loop_
 _symmetry_equiv_pos_site_id
 _symmetry_equiv_pos_as_xyz
  1  'x, y, z'
loop_
 _atom_site_type_symbol
 _atom_site_label
 _atom_site_symmetry_multiplicity
 _atom_site_fract_x
 _atom_site_fract_y
 _atom_site_fract_z
 _atom_site_occupancy
 _atom_site_hle17_bader_spin_density
 _atom_site_hle17_ddec_charge
 _atom_site_hle17_ddec_spin_density
 _atom_site_hle17_ddec_sum_bond_order
 _atom_site_hle17_magmom
 _atom_site_hse06_10hf_bader_spin_density
 _atom_site_hse06_10hf_ddec_charge
 _atom_site_hse06_10hf_ddec_spin_density
 _atom_site_hse06_10hf_ddec_sum_bond_order
 _atom_site_hse06_10hf_magmom
 _atom_site_hse06_bader_spin_density
 _atom_site_hse06_ddec_charge
 _atom_site_hse06_ddec_spin_density
 _atom_site_hse06_ddec_sum_bond_order
 _atom_site_hse06_magmom
 _atom_site_pbe_bader_spin_density
 _atom_site_pbe_cm5_charge
 _atom_site_pbe_ddec_charge
 _atom_site_pbe_ddec_spin_density
 _atom_site_pbe_ddec_sum_bond_order
 _atom_site_pbe_magmom
Li  Li0  1  0.39965150  0.92083756  0.01067408  1  0  0.675002  0  0.632547  0  0  0.612826  0  0.748215  0  0  0.621402  0  0.738965  0  0  0.310605  0.60734  0  0.75387  0
Li  Li1  1  0.60034245  0.07916532  0.98932844  1  0  0.675011  0  0.632518  0  0  0.612901  0  0.748088  0  0  0.621476  0  0.738838  0  0  0.310592  0.607415  0  0.753742  0
H  H2  1  0.07068993  0.09609438  0.47239536  1  0  0.077894  0  0.989993  0  0  0.082987  0  1.065714  0  0  0.086396  0  1.063382  0  0  0.088334  0.080792  0  1.067074  0
H  H3  1  0.92931187  0.90389353  0.52760743  1  0  0.077981  0  0.990009  0  0  0.08304  0  1.06576  0  0  0.086449  0  1.06343  0  0  0.088367  0.080843  0  1.067128  0
H  H4  1  0.98910100  0.37906102  0.47133298  1  0  0.073118  0  0.971101  0  0  0.085079  0  1.033649  0  0  0.087688  0  1.03283  0  0  0.090916  0.083036  0  1.035145  0
H  H5  1  0.01089256  0.62092685  0.52867915  1  0  0.073141  0  0.9712  0  0  0.08512  0  1.033706  0  0  0.08773  0  1.032887  0  0  0.090929  0.083073  0  1.035205  0
H  H6  1  0.10347446  0.50639920  0.26002030  1  0  0.068887  0  0.974812  0  0  0.083504  0  1.034481  0  0  0.086007  0  1.033482  0  0  0.088333  0.079315  0  1.039965  0
H  H7  1  0.89650871  0.49359673  0.73999350  1  0  0.069026  0  0.974675  0  0  0.083678  0  1.034284  0  0  0.086177  0  1.03329  0  0  0.088478  0.07949  0  1.039765  0
H  H8  1  0.30113371  0.35188510  0.05664843  1  0  0.046482  0  0.972483  0  0  0.062457  0  1.03619  0  0  0.064445  0  1.035744  0  0  0.085411  0.061615  0  1.035923  0
H  H9  1  0.69885325  0.64812121  0.94336009  1  0  0.046426  0  0.972444  0  0  0.062435  0  1.036118  0  0  0.064426  0  1.035667  0  0  0.085372  0.061593  0  1.035852  0
H  H10  1  0.71260488  0.75384542  0.14997756  1  0  0.099084  0  0.968867  0  0  0.11783  0  1.038476  0  0  0.11954  0  1.037783  0  0  0.093815  0.116752  0  1.03865  0
H  H11  1  0.28740246  0.24615519  0.85001658  1  0  0.099102  0  0.968859  0  0  0.117861  0  1.038475  0  0  0.119572  0  1.037779  0  0  0.093822  0.116783  0  1.038647  0
H  H12  1  0.63995133  0.92017814  0.25164441  1  0  0.104488  0  0.978212  0  0  0.125807  0  1.039838  0  0  0.127096  0  1.040542  0  0  0.093725  0.124461  0  1.040015  0
H  H13  1  0.36005316  0.07982589  0.74835390  1  0  0.104438  0  0.978324  0  0  0.125776  0  1.039926  0  0  0.127065  0  1.04063  0  0  0.093719  0.124432  0  1.040108  0
H  H14  1  0.79048797  0.74039301  0.29624284  1  0  0.102558  0  0.944853  0  0  0.125542  0  1.003646  0  0  0.126828  0  1.003761  0  0  0.086916  0.124779  0  1.003688  0
H  H15  1  0.20951802  0.25960757  0.70375634  1  0  0.102569  0  0.944869  0  0  0.125543  0  1.003671  0  0  0.126826  0  1.00379  0  0  0.086928  0.124781  0  1.003712  0
H  H16  1  0.40075891  0.93725596  0.48861273  1  0  0.105272  0  0.963805  0  0  0.127149  0  1.02367  0  0  0.128139  0  1.024666  0  0  0.08704  0.126311  0  1.023212  0
H  H17  1  0.59924630  0.06274003  0.51138597  1  0  0.10524  0  0.963802  0  0  0.127107  0  1.023689  0  0  0.128096  0  1.024684  0  0  0.087016  0.126268  0  1.023229  0
H  H18  1  0.30070561  0.78726056  0.53911352  1  0  0.103825  0  0.969349  0  0  0.123924  0  1.033727  0  0  0.12477  0  1.035004  0  0  0.086171  0.123576  0  1.032436  0
H  H19  1  0.69929769  0.21273660  0.46088170  1  0  0.103797  0  0.969338  0  0  0.123867  0  1.033755  0  0  0.12471  0  1.035033  0  0  0.086155  0.12352  0  1.032462  0
H  H20  1  0.55394117  0.75308597  0.52166416  1  0  0.10313  0  0.952713  0  0  0.125304  0  1.012756  0  0  0.126102  0  1.014235  0  0  0.08684  0.125001  0  1.011326  0
H  H21  1  0.44606075  0.24691119  0.47833230  1  0  0.103133  0  0.952685  0  0  0.1253  0  1.01273  0  0  0.126098  0  1.014208  0  0  0.086847  0.124997  0  1.0113  0
H  H22  1  0.54918557  0.55484487  0.22155897  1  0  0.098815  0  0.969525  0  0  0.120288  0  1.033146  0  0  0.121333  0  1.033781  0  0  0.086469  0.119179  0  1.033378  0
H  H23  1  0.45081764  0.44515573  0.77843795  1  0  0.098769  0  0.96944  0  0  0.120212  0  1.033106  0  0  0.121245  0  1.033761  0  0  0.086455  0.119129  0  1.033313  0
H  H24  1  0.63308132  0.52200864  0.36541076  1  0  0.108159  0  0.944513  0  0  0.132628  0  1.00089  0  0  0.133538  0  1.002013  0  0  0.091304  0.132406  0  0.99955  0
H  H25  1  0.36692150  0.47798966  0.63458733  1  0  0.108157  0  0.944523  0  0  0.132614  0  1.000911  0  0  0.133526  0  1.002031  0  0  0.091299  0.132389  0  0.999576  0
H  H26  1  0.37886051  0.56773319  0.38157401  1  0  0.101306  0  0.952441  0  0  0.12054  0  1.017149  0  0  0.121827  0  1.017334  0  0  0.08515  0.118302  0  1.019852  0
H  H27  1  0.62114171  0.43226971  0.61842296  1  0  0.101319  0  0.952452  0  0  0.120559  0  1.017149  0  0  0.121845  0  1.017335  0  0  0.085171  0.118322  0  1.019855  0
H  H28  1  0.99960383  0.89940249  0.12304738  1  0  0.061411  0  0.958286  0  0  0.078501  0  1.02091  0  0  0.078688  0  1.02145  0  0  0.105207  0.078428  0  1.020742  0
H  H29  1  0.00039611  0.10059927  0.87694920  1  0  0.061372  0  0.958272  0  0  0.078441  0  1.020893  0  0  0.078627  0  1.021432  0  0  0.105183  0.078369  0  1.020725  0
H  H30  1  0.91407034  0.87467042  0.98837764  1  0  0.054024  0  0.963347  0  0  0.068457  0  1.032504  0  0  0.069353  0  1.03266  0  0  0.09913  0.067864  0  1.03221  0
H  H31  1  0.08593652  0.12533133  0.01161843  1  0  0.054008  0  0.963327  0  0  0.068401  0  1.032496  0  0  0.069295  0  1.032652  0  0  0.099117  0.067807  0  1.032201  0
H  H32  1  0.22688274  0.92575814  0.76274693  1  0  0.086748  0  0.967914  0  0  0.108554  0  1.027808  0  0  0.10924  0  1.027865  0  0  0.101531  0.107877  0  1.028206  0
H  H33  1  0.77312256  0.07425048  0.23725376  1  0  0.086693  0  0.967979  0  0  0.108531  0  1.027828  0  0  0.109217  0  1.027887  0  0  0.101509  0.107855  0  1.028224  0
H  H34  1  0.41198394  0.74425320  0.75913371  1  0  0.093845  0  0.954043  0  0  0.115325  0  1.01457  0  0  0.115254  0  1.016782  0  0  0.102197  0.115308  0  1.013277  0
H  H35  1  0.58802321  0.25575429  0.24086381  1  0  0.093832  0  0.95402  0  0  0.115281  0  1.014586  0  0  0.115211  0  1.016798  0  0  0.102177  0.115267  0  1.01329  0
H  H36  1  0.16337923  0.75593463  0.77964925  1  0  0.083868  0  0.947534  0  0  0.101082  0  1.016331  0  0  0.101144  0  1.018584  0  0  0.091566  0.101255  0  1.014641  0
H  H37  1  0.83662741  0.24407403  0.22034452  1  0  0.083858  0  0.947419  0  0  0.10107  0  1.016219  0  0  0.101145  0  1.018459  0  0  0.091563  0.101226  0  1.014548  0
H  H38  1  0.40945200  0.59173113  0.95065595  1  0  0.081487  0  0.973295  0  0  0.100991  0  1.041452  0  0  0.101576  0  1.041755  0  0  0.099662  0.100588  0  1.04103  0
H  H39  1  0.59054756  0.40826832  0.04934181  1  0  0.08149  0  0.973296  0  0  0.101015  0  1.041433  0  0  0.101599  0  1.041737  0  0  0.099665  0.100611  0  1.041009  0
H  H40  1  0.23629890  0.66439650  0.10658635  1  0  0.080544  0  0.986836  0  0  0.095226  0  1.061661  0  0  0.095964  0  1.06192  0  0  0.093943  0.093605  0  1.063972  0
H  H41  1  0.76369927  0.33560297  0.89340981  1  0  0.08051  0  0.986919  0  0  0.095178  0  1.061785  0  0  0.095916  0  1.062041  0  0  0.093943  0.093554  0  1.0641  0
H  H42  1  0.15798951  0.61064218  0.97779219  1  0  0.080923  0  0.928812  0  0  0.101407  0  0.992352  0  0  0.102739  0  0.991799  0  0  0.091952  0.100135  0  0.992954  0
H  H43  1  0.84200677  0.38935844  0.02220335  1  0  0.080965  0  0.928805  0  0  0.101452  0  0.992345  0  0  0.102784  0  0.991792  0  0  0.09197  0.100181  0  0.992945  0
C  C44  1  0.24219833  0.06416771  0.26425274  1  0  0.112166  0  3.808008  0  0  0.139546  0  4.036956  0  0  0.138542  0  4.063674  0  0  -0.023364  0.140126  0  4.018777  0
C  C45  1  0.75779571  0.93583173  0.73574809  1  0  0.112187  0  3.807988  0  0  0.139571  0  4.036919  0  0  0.138567  0  4.063637  0  0  -0.023332  0.140148  0  4.018746  0
C  C46  1  0.12637154  0.15115847  0.38145705  1  0  -0.114459  0  3.749351  0  0  -0.129484  0  3.988494  0  0  -0.130658  0  4.00956  0  0  -0.099779  -0.128082  0  3.973013  0
C  C47  1  0.87361671  0.84883521  0.61854728  1  0  -0.114535  0  3.749005  0  0  -0.129528  0  3.988164  0  0  -0.130702  0  4.009231  0  0  -0.099882  -0.128123  0  3.972674  0
C  C48  1  0.07897490  0.31073688  0.38079199  1  0  -0.096353  0  3.82424  0  0  -0.106015  0  4.069971  0  0  -0.109937  0  4.092752  0  0  -0.108611  -0.102968  0  4.05296  0
C  C49  1  0.92100983  0.68925219  0.61921624  1  0  -0.096346  0  3.823708  0  0  -0.106008  0  4.069447  0  0  -0.10993  0  4.092225  0  0  -0.10853  -0.102958  0  4.052437  0
C  C50  1  0.14320584  0.38126956  0.26240719  1  0  -0.089314  0  3.785226  0  0  -0.100838  0  4.026845  0  0  -0.101603  0  4.048891  0  0  -0.104699  -0.099424  0  4.013083  0
C  C51  1  0.85678149  0.61872635  0.73760858  1  0  -0.089577  0  3.785057  0  0  -0.101144  0  4.026754  0  0  -0.101906  0  4.048797  0  0  -0.104942  -0.099728  0  4.012991  0
C  C52  1  0.25651917  0.29101859  0.14740161  1  0  -0.009623  0  3.874475  0  0  -0.019235  0  4.11951  0  0  -0.021977  0  4.143455  0  0  -0.10902  -0.017494  0  4.101897  0
C  C53  1  0.74347305  0.70898196  0.85260618  1  0  -0.009474  0  3.874369  0  0  -0.019111  0  4.119414  0  0  -0.021853  0  4.143357  0  0  -0.108953  -0.01737  0  4.101801  0
C  C54  1  0.31507110  0.12813795  0.14180640  1  0  -0.683983  0  3.608573  0  0  -0.659432  0  3.876312  0  0  -0.665814  0  3.894601  0  0  -0.26285  -0.653558  0  3.862587  0
C  C55  1  0.68492522  0.87186263  0.85819577  1  0  -0.684029  0  3.608567  0  0  -0.65948  0  3.876309  0  0  -0.665864  0  3.894603  0  0  -0.26284  -0.653604  0  3.862585  0
C  C56  1  0.48508555  0.76231377  0.33545984  1  0  0.252366  0  3.564833  0  0  0.28891  0  3.805124  0  0  0.291242  0  3.824244  0  0  0.001289  0.28734  0  3.791709  0
C  C57  1  0.51492183  0.23768680  0.66453999  1  0  0.252146  0  3.565151  0  0  0.288977  0  3.804912  0  0  0.291315  0  3.824017  0  0  0.001191  0.287402  0  3.791513  0
C  C58  1  0.66787982  0.79589410  0.25295756  1  0  -0.355773  0  3.691228  0  0  -0.438019  0  3.928444  0  0  -0.440983  0  3.938392  0  0  -0.238589  -0.435393  0  3.921285  0
C  C59  1  0.33212703  0.20410765  0.74703755  1  0  -0.355735  0  3.691402  0  0  -0.438064  0  3.928541  0  0  -0.441029  0  3.938487  0  0  -0.238588  -0.435441  0  3.921388  0
C  C60  1  0.43109987  0.81323704  0.47977883  1  0  -0.352963  0  3.66919  0  0  -0.430797  0  3.898819  0  0  -0.434225  0  3.910249  0  0  -0.248594  -0.427915  0  3.890408  0
C  C61  1  0.56890295  0.18676126  0.52021832  1  0  -0.352874  0  3.669083  0  0  -0.43073  0  3.898655  0  0  -0.434154  0  3.910078  0  0  -0.248547  -0.427846  0  3.890242  0
C  C62  1  0.51222580  0.59191841  0.32516473  1  0  -0.342176  0  3.664589  0  0  -0.418471  0  3.894717  0  0  -0.421684  0  3.905691  0  0  -0.243653  -0.416609  0  3.888661  0
C  C63  1  0.48777879  0.40808220  0.67483095  1  0  -0.342081  0  3.664581  0  0  -0.418414  0  3.894682  0  0  -0.421625  0  3.905665  0  0  -0.243616  -0.416575  0  3.888612  0
C  C64  1  0.01973633  0.91536762  0.01601597  1  0  -0.035653  0  3.653977  0  0  -0.086143  0  3.899945  0  0  -0.083802  0  3.912263  0  0  -0.068279  -0.087563  0  3.891217  0
C  C65  1  0.98026525  0.08462720  0.98398547  1  0  -0.035418  0  3.653785  0  0  -0.085799  0  3.899611  0  0  -0.083451  0  3.911921  0  0  -0.068141  -0.087216  0  3.890883  0
C  C66  1  0.25740352  0.81105816  0.80497758  1  0  -0.170084  0  3.663394  0  0  -0.260621  0  3.914826  0  0  -0.258879  0  3.92537  0  0  -0.146061  -0.261624  0  3.907628  0
C  C67  1  0.74260087  0.18894933  0.19501958  1  0  -0.169886  0  3.663325  0  0  -0.260459  0  3.914768  0  0  -0.258731  0  3.925309  0  0  -0.14599  -0.26145  0  3.907576  0
C  C68  1  0.25770845  0.66299211  0.99919255  1  0  -0.185051  0  3.718342  0  0  -0.280578  0  3.980417  0  0  -0.278319  0  3.989332  0  0  -0.14762  -0.281637  0  3.973598  0
C  C69  1  0.74228811  0.33701427  0.00080255  1  0  -0.185009  0  3.71834  0  0  -0.280609  0  3.980398  0  0  -0.278351  0  3.989316  0  0  -0.14766  -0.281677  0  3.973613  0
S  S70  1  0.27700108  0.86220295  0.26442138  1  0  -0.196742  0  2.358918  0  0  -0.182821  0  2.68811  0  0  -0.186361  0  2.68951  0  0  -0.030442  -0.181169  0  2.691636  0
S  S71  1  0.72300361  0.13779420  0.73557545  1  0  -0.196611  0  2.358894  0  0  -0.182777  0  2.688005  0  0  -0.186315  0  2.689398  0  0  -0.030406  -0.18112  0  2.691535  0
N  N72  1  0.22296202  0.81973923  0.94930961  1  0  -0.223237  0  3.303985  0  0  -0.131476  0  3.550287  0  0  -0.144676  0  3.570188  0  0  -0.415954  -0.122022  0  3.535892  0
N  N73  1  0.77703457  0.18026711  0.05069022  1  0  -0.223588  0  3.304099  0  0  -0.131741  0  3.550281  0  0  -0.144941  0  3.570184  0  0  -0.416033  -0.122277  0  3.535863  0
