# generated using pymatgen
data_CuH8C12N6O7
_symmetry_space_group_name_H-M   'P 1'
_cell_length_a   8.35779636
_cell_length_b   8.35769844
_cell_length_c   12.25093893
_cell_angle_alpha   72.66690461
_cell_angle_beta   72.66530427
_cell_angle_gamma   66.55809472
_symmetry_Int_Tables_number   1
_chemical_formula_structural   CuH8C12N6O7
_chemical_formula_sum   'Cu2 H16 C24 N12 O14'
_cell_volume   733.57014265
_cell_formula_units_Z   2
loop_
 _symmetry_equiv_pos_site_id
 _symmetry_equiv_pos_as_xyz
  1  'x, y, z'
loop_
 _atom_site_type_symbol
 _atom_site_label
 _atom_site_symmetry_multiplicity
 _atom_site_fract_x
 _atom_site_fract_y
 _atom_site_fract_z
 _atom_site_occupancy
 _atom_site_hle17_ddec_charge
 _atom_site_hle17_ddec_spin_density
 _atom_site_hle17_ddec_sum_bond_order
 _atom_site_hle17_magmom
 _atom_site_hse06_10hf_ddec_charge
 _atom_site_hse06_10hf_ddec_spin_density
 _atom_site_hse06_10hf_ddec_sum_bond_order
 _atom_site_hse06_10hf_magmom
 _atom_site_hse06_ddec_charge
 _atom_site_hse06_ddec_spin_density
 _atom_site_hse06_ddec_sum_bond_order
 _atom_site_hse06_magmom
 _atom_site_pbe_cm5_charge
 _atom_site_pbe_ddec_charge
 _atom_site_pbe_ddec_spin_density
 _atom_site_pbe_ddec_sum_bond_order
 _atom_site_pbe_magmom
Cu  Cu0  1  0.99999787  0.00000076  0.00000140  1  0.810529  -0.71808  1.832  -0.492  0.77636  -0.800859  2.231909  -0.611  0.881622  -0.885974  2.14977  -0.706  0.744188  0.710263  -0.736812  2.289335  -0.546
Cu  Cu1  1  0.00000175  0.99999899  0.50000077  1  0.810627  0.718113  1.832167  0.492  0.776297  0.800858  2.232173  0.611  0.881744  0.885969  2.14994  0.706  0.744207  0.710276  0.736823  2.289605  0.546
H  H2  1  0.61534636  0.60788000  0.83113948  1  0.122806  -0.000535  0.942706  -0.001  0.129505  -0.000495  1.007759  -0.001  0.133241  -0.000356  1.005815  0.0  0.113646  0.126575  -0.000586  1.009609  -0.001
H  H3  1  0.60792467  0.61531520  0.33113832  1  0.122956  0.000535  0.942787  0.001  0.12968  0.000495  1.007756  0.001  0.133417  0.000356  1.005809  0.0  0.113716  0.126746  0.000586  1.009605  0.001
H  H4  1  0.38465098  0.39212280  0.16886018  1  0.122826  -0.000534  0.942654  -0.001  0.129499  -0.000495  1.007738  -0.001  0.133235  -0.000356  1.005794  0.0  0.113602  0.126567  -0.000586  1.009587  -0.001
H  H5  1  0.39208241  0.38468089  0.66885908  1  0.122939  0.000535  0.942783  0.001  0.129667  0.000495  1.007751  0.001  0.133402  0.000356  1.005806  0.0  0.113711  0.126734  0.000586  1.009601  0.001
H  H6  1  0.76289476  0.61465307  0.98110572  1  0.111369  -0.000373  0.959062  -0.001  0.116097  -0.000102  1.026482  0.0  0.120659  -3.5e-05  1.021911  0.0  0.108796  0.112378  -0.000179  1.030268  0.0
H  H7  1  0.61466746  0.76289231  0.48110959  1  0.111312  0.000374  0.959076  0.001  0.11603  0.000102  1.026517  0.0  0.120589  3.5e-05  1.021948  0.0  0.10876  0.112331  0.000179  1.030261  0.0
H  H8  1  0.23710428  0.38534840  0.01889305  1  0.111367  -0.000373  0.959017  -0.001  0.11611  -0.000102  1.026435  0.0  0.12067  -3.5e-05  1.021867  0.0  0.108816  0.112395  -0.000179  1.030211  0.0
H  H9  1  0.38533622  0.23710645  0.51888551  1  0.111323  0.000373  0.959097  0.001  0.116042  0.000102  1.026536  0.0  0.120602  3.5e-05  1.021964  0.0  0.108786  0.112351  0.000179  1.030265  0.0
H  H10  1  0.57595234  0.78553507  0.13807956  1  0.11702  -0.000393  0.946735  0.0  0.124084  -0.000413  1.009356  0.0  0.128431  -0.000292  1.006337  0.0  0.110868  0.120713  -0.000491  1.011865  -0.001
H  H11  1  0.78556019  0.57592992  0.63810225  1  0.116915  0.000394  0.946833  0.0  0.123987  0.000413  1.009424  0.0  0.128332  0.000292  1.006406  0.0  0.110872  0.120616  0.000492  1.011934  0.001
H  H12  1  0.42404544  0.21446641  0.86192110  1  0.116997  -0.000393  0.946702  0.0  0.124059  -0.000413  1.009327  0.0  0.128407  -0.000292  1.00631  0.0  0.110891  0.120689  -0.000492  1.011841  -0.001
H  H13  1  0.21444002  0.42407553  0.36189546  1  0.116907  0.000393  0.946826  0.0  0.123984  0.000413  1.009405  0.0  0.128331  0.000292  1.006389  0.0  0.110875  0.120615  0.000491  1.011919  0.001
H  H14  1  0.25101349  0.94156565  0.14263647  1  0.104615  -0.001375  0.929152  -0.002  0.110316  -0.001041  0.99378  -0.002  0.11212  -0.000745  0.991594  -0.001  0.126209  0.108507  -0.001239  0.995923  -0.002
H  H15  1  0.94153923  0.25103561  0.64265155  1  0.104662  0.001375  0.929347  0.002  0.110349  0.001041  0.99394  0.002  0.112158  0.000745  0.991748  0.001  0.126287  0.10852  0.001239  0.996109  0.002
H  H16  1  0.74898385  0.05843716  0.85736482  1  0.1046  -0.001375  0.929214  -0.002  0.110324  -0.001041  0.993817  -0.002  0.112126  -0.000746  0.991632  -0.001  0.126219  0.108506  -0.001239  0.995973  -0.002
H  H17  1  0.05845766  0.74896854  0.35734956  1  0.104688  0.001375  0.929342  0.002  0.110355  0.001041  0.993955  0.002  0.112164  0.000745  0.991763  0.001  0.126287  0.108522  0.001239  0.996123  0.002
C  C18  1  0.35788256  0.77583198  0.90776425  1  0.140525  0.005133  3.783183  0.006  0.141449  0.000103  4.025481  0.001  0.146953  0.001117  4.046338  0.002  0.122158  0.137618  -0.000598  4.012188  0.0
C  C19  1  0.77584386  0.35787773  0.40777717  1  0.1408  -0.005135  3.782795  -0.006  0.141509  -0.000102  4.025307  -0.001  0.147029  -0.001118  4.046159  -0.002  0.122114  0.137681  0.000597  4.012009  0.0
C  C20  1  0.64211324  0.22416419  0.09223872  1  0.140437  0.00514  3.783353  0.006  0.141357  0.000104  4.025656  0.001  0.146866  0.001118  4.04651  0.002  0.122143  0.137531  -0.000598  4.012351  0.0
C  C21  1  0.22415903  0.64211973  0.59222326  1  0.140893  -0.005139  3.782723  -0.006  0.14151  -0.000104  4.025361  -0.001  0.147028  -0.001118  4.04621  -0.002  0.122129  0.137691  0.000597  4.012047  0.0
C  C22  1  0.53959246  0.68033545  0.90109714  1  -0.10569  -0.008983  3.662808  -0.009  -0.131357  -0.003308  3.912899  -0.004  -0.136028  -0.0032  3.931249  -0.004  -0.072438  -0.128522  -0.003298  3.901234  -0.004
C  C23  1  0.68035528  0.53958851  0.40110621  1  -0.106075  0.008988  3.662755  0.009  -0.131688  0.003308  3.912875  0.004  -0.13636  0.003202  3.931211  0.004  -0.07252  -0.128842  0.003299  3.901201  0.004
C  C24  1  0.46040281  0.31966604  0.09890403  1  -0.105736  -0.008993  3.662843  -0.009  -0.131377  -0.00331  3.912974  -0.004  -0.136046  -0.003201  3.931319  -0.004  -0.072422  -0.128541  -0.003298  3.901303  -0.004
C  C25  1  0.31964760  0.46040894  0.59889260  1  -0.106093  0.008991  3.662711  0.009  -0.131681  0.00331  3.912846  0.004  -0.136351  0.003202  3.931181  0.004  -0.072507  -0.128843  0.003298  3.901181  0.004
C  C26  1  0.62077092  0.68307370  0.98432546  1  0.009402  0.009316  3.667642  0.009  -0.00863  0.002696  3.918441  0.003  -0.004002  0.003026  3.932391  0.003  -0.061454  -0.011826  0.002378  3.909719  0.002
C  C27  1  0.68310426  0.62077625  0.48432877  1  0.009589  -0.009321  3.6675  -0.009  -0.008455  -0.002695  3.918247  -0.003  -0.003824  -0.003027  3.932198  -0.003  -0.061365  -0.011655  -0.002378  3.90953  -0.002
C  C28  1  0.37922776  0.31692512  0.01567638  1  0.009419  0.009323  3.667479  0.009  -0.00865  0.002696  3.918319  0.003  -0.004022  0.003026  3.932271  0.003  -0.061453  -0.011845  0.002378  3.909595  0.002
C  C29  1  0.31690105  0.37922517  0.51566790  1  0.009504  -0.009322  3.667517  -0.009  -0.00854  -0.002696  3.918282  -0.003  -0.003911  -0.003027  3.932231  -0.003  -0.061434  -0.011741  -0.002378  3.909572  -0.002
C  C30  1  0.51774290  0.77812232  0.07214701  1  -0.089524  -0.011207  3.673912  -0.011  -0.105898  -0.004168  3.926287  -0.005  -0.110934  -0.00394  3.94311  -0.005  -0.07231  -0.102705  -0.004214  3.915288  -0.005
C  C31  1  0.77812359  0.51775290  0.57216007  1  -0.089449  0.011208  3.674042  0.011  -0.105803  0.004167  3.926331  0.005  -0.110838  0.003941  3.943151  0.005  -0.072323  -0.102621  0.004215  3.915364  0.005
C  C32  1  0.48225549  0.22186985  0.92785707  1  -0.089421  -0.011212  3.673729  -0.011  -0.105777  -0.004167  3.926119  -0.005  -0.110813  -0.00394  3.942943  -0.005  -0.072334  -0.102591  -0.004213  3.915136  -0.005
C  C33  1  0.22187839  0.48224721  0.42783756  1  -0.089358  0.011213  3.673944  0.011  -0.105728  0.004167  3.926224  0.005  -0.110766  0.003941  3.943048  0.005  -0.072285  -0.102551  0.004215  3.915258  0.005
C  C34  1  0.33645883  0.86751718  0.07472853  1  0.149152  0.008005  3.646025  0.008  0.119427  0.001167  3.900914  0.002  0.128952  0.002245  3.918638  0.003  0.060071  0.113324  0.000309  3.889623  0.001
C  C35  1  0.86749698  0.33646130  0.57474475  1  0.149128  -0.008005  3.646457  -0.008  0.119439  -0.001165  3.901235  -0.002  0.128957  -0.002246  3.918974  -0.003  0.060014  0.113351  -0.000309  3.889961  -0.001
C  C36  1  0.66353770  0.13248430  0.92527320  1  0.149077  0.008008  3.646157  0.008  0.119327  0.001165  3.901044  0.002  0.128853  0.002245  3.918767  0.003  0.060054  0.113232  0.000309  3.889759  0.001
C  C37  1  0.13250582  0.66354014  0.42525407  1  0.149035  -0.008007  3.646407  -0.008  0.119386  -0.001165  3.901149  -0.002  0.128904  -0.002246  3.918887  -0.003  0.059991  0.113299  -0.000309  3.889869  -0.001
C  C38  1  0.26444839  0.79144205  0.82030487  1  0.347147  -0.003307  3.688207  -0.004  0.310466  -0.001171  3.971572  -0.002  0.328798  -0.001215  3.977083  -0.002  0.232983  0.298153  -0.001084  3.968194  -0.002
C  C39  1  0.79145794  0.26444347  0.32031259  1  0.346806  0.003307  3.688157  0.004  0.310276  0.001172  3.971421  0.002  0.328593  0.001215  3.976961  0.002  0.232971  0.297962  0.001085  3.968047  0.002
C  C40  1  0.73554991  0.20855410  0.17969677  1  0.347205  -0.003308  3.688178  -0.004  0.310541  -0.001169  3.971514  -0.002  0.328871  -0.001215  3.977025  -0.002  0.233054  0.298227  -0.001084  3.968132  -0.002
C  C41  1  0.20854502  0.73554999  0.67968701  1  0.346823  0.003308  3.688053  0.004  0.310328  0.00117  3.971324  0.002  0.328652  0.001216  3.976852  0.002  0.23299  0.298012  0.001084  3.96795  0.002
N  N42  1  0.25844073  0.86671183  0.99387135  1  -0.31445  -0.075155  3.34994  -0.089  -0.263431  -0.051024  3.628715  -0.065  -0.294931  -0.043872  3.652475  -0.059  -0.342431  -0.245169  -0.05309  3.615513  -0.065
N  N43  1  0.86671002  0.25844139  0.49388236  1  -0.314493  0.075156  3.350096  0.089  -0.263417  0.051026  3.628883  0.065  -0.294963  0.043875  3.652691  0.059  -0.34244  -0.245169  0.053094  3.6157  0.065
N  N44  1  0.74155669  0.13328699  0.00613074  1  -0.314387  -0.075157  3.349993  -0.089  -0.26337  -0.051022  3.628776  -0.065  -0.294869  -0.043871  3.652535  -0.059  -0.34245  -0.245109  -0.053089  3.615569  -0.065
N  N45  1  0.13329323  0.74155872  0.50611664  1  -0.314449  0.075158  3.349953  0.089  -0.263351  0.051026  3.62874  0.065  -0.294897  0.043874  3.652547  0.059  -0.342416  -0.245105  0.053094  3.615551  0.065
N  N46  1  0.11718432  0.91829972  0.79594875  1  -0.25324  0.003865  2.947832  0.003  -0.236703  0.001572  3.247522  0.001  -0.249189  0.001713  3.256481  0.001  -0.211756  -0.229016  0.001471  3.242897  0.001
N  N47  1  0.91831428  0.11718887  0.29594544  1  -0.253204  -0.003865  2.947916  -0.003  -0.236678  -0.001573  3.247546  -0.001  -0.24919  -0.001714  3.256531  -0.001  -0.211829  -0.229008  -0.001472  3.242932  -0.001
N  N48  1  0.88281694  0.08169508  0.20405012  1  -0.25326  0.003867  2.947768  0.003  -0.236729  0.001571  3.247456  0.001  -0.249213  0.001714  3.256413  0.001  -0.211818  -0.229044  0.001471  3.24283  0.001
N  N49  1  0.08168779  0.88280725  0.70405298  1  -0.253205  -0.003866  2.947899  -0.003  -0.236684  -0.001572  3.247523  -0.001  -0.249199  -0.001714  3.256508  -0.001  -0.211847  -0.229015  -0.001472  3.242913  -0.001
N  N50  1  0.98262157  0.64260939  0.12732642  1  0.67978  0.00379  4.133238  0.006  0.73983  0.000179  4.404517  0.002  0.773715  -0.000167  4.40855  0.001  0.104121  0.716113  0.000561  4.401433  0.002
N  N51  1  0.64260768  0.98261564  0.62732098  1  0.680087  -0.003788  4.133003  -0.006  0.740197  -0.000177  4.404134  -0.002  0.774086  0.00017  4.408162  -0.001  0.104284  0.716481  -0.000559  4.401069  -0.002
N  N52  1  0.01737827  0.35739340  0.87267273  1  0.679866  0.003791  4.133217  0.006  0.739877  0.00018  4.404546  0.002  0.773761  -0.000167  4.40858  0.001  0.104109  0.716161  0.00056  4.401467  0.002
N  N53  1  0.35739136  0.01738583  0.37268023  1  0.680004  -0.003787  4.132958  -0.006  0.740197  -0.000177  4.403997  -0.002  0.774086  0.000169  4.408023  -0.001  0.104308  0.716481  -0.00056  4.400927  -0.002
O  O54  1  0.32958331  0.67040916  0.74999299  1  -0.230063  -0.0  2.304199  0.0  -0.153147  -1e-06  2.516083  0.0  -0.170496  -0.0  2.517475  0.0  -0.080508  -0.14157  0.0  2.515179  0.0
O  O55  1  0.67041839  0.32958431  0.25000768  1  -0.230018  0.0  2.304209  0.0  -0.153103  -1e-06  2.516095  0.0  -0.170451  -0.0  2.517494  0.0  -0.080474  -0.14153  0.0  2.515193  0.0
O  O56  1  0.93223414  0.77814604  0.04238433  1  -0.465961  -0.100175  1.865792  -0.127  -0.487733  -0.065809  2.138636  -0.092  -0.529013  -0.048507  2.13566  -0.072  -0.21241  -0.4598  -0.077104  2.141169  -0.104
O  O57  1  0.77816096  0.93224326  0.54237782  1  -0.466052  0.100163  1.865771  0.127  -0.487833  0.065811  2.138659  0.092  -0.529154  0.048503  2.135709  0.072  -0.212427  -0.459911  0.077091  2.141202  0.104
O  O58  1  0.06776276  0.22185810  0.95761759  1  -0.465983  -0.10018  1.86572  -0.127  -0.487751  -0.065814  2.138594  -0.092  -0.529033  -0.048505  2.135619  -0.072  -0.212401  -0.459817  -0.077101  2.14113  -0.104
O  O59  1  0.22183935  0.06775821  0.45762559  1  -0.466013  0.10017  1.865721  0.127  -0.487785  0.065816  2.138542  0.092  -0.529105  0.048507  2.135586  0.072  -0.212407  -0.459866  0.077099  2.141088  0.104
O  O60  1  0.92960117  0.51584179  0.14234017  1  -0.410423  -0.024556  1.763295  -0.03  -0.423108  -0.012596  1.972617  -0.017  -0.440368  -0.006217  1.967612  -0.009  -0.168744  -0.408638  -0.020237  1.974842  -0.026
O  O61  1  0.51584275  0.92959600  0.64232745  1  -0.410469  0.024548  1.763324  0.03  -0.423182  0.012592  1.972622  0.017  -0.440433  0.006216  1.967602  0.009  -0.168719  -0.408715  0.02023  1.974847  0.026
O  O62  1  0.07039742  0.48416101  0.85766005  1  -0.410478  -0.024555  1.76333  -0.03  -0.423142  -0.012595  1.972661  -0.017  -0.440401  -0.006217  1.967655  -0.009  -0.16874  -0.408671  -0.020235  1.974889  -0.026
O  O63  1  0.48415504  0.07040548  0.35767484  1  -0.410435  0.024547  1.763382  0.03  -0.423181  0.012591  1.972658  0.017  -0.440435  0.006216  1.967641  0.009  -0.168736  -0.40872  0.020232  1.974884  0.026
O  O64  1  0.07854336  0.64444207  0.18749176  1  -0.432689  0.003117  1.782574  0.003  -0.445876  0.002141  1.996278  0.002  -0.46392  0.002373  1.992684  0.003  -0.169113  -0.432004  0.000857  1.998174  0.001
O  O65  1  0.64442483  0.07851140  0.68751245  1  -0.432907  -0.003118  1.782387  -0.003  -0.446084  -0.002146  1.996018  -0.002  -0.464128  -0.002373  1.992418  -0.003  -0.169299  -0.432215  -0.000857  1.997923  -0.001
O  O66  1  0.92145900  0.35556071  0.81250605  1  -0.432693  0.003117  1.782536  0.003  -0.445873  0.002143  1.99627  0.002  -0.463916  0.002372  1.992675  0.003  -0.169102  -0.431998  0.000858  1.998166  0.001
O  O67  1  0.35557125  0.92149142  0.31248910  1  -0.432917  -0.003119  1.782346  -0.003  -0.446115  -0.002146  1.995933  -0.002  -0.464159  -0.002373  1.992335  -0.003  -0.169317  -0.432247  -0.000858  1.997836  -0.001
