# generated using pymatgen
data_CuH6C6Br2N
_symmetry_space_group_name_H-M   'P 1'
_cell_length_a   7.26796803
_cell_length_b   10.78361546
_cell_length_c   10.78359433
_cell_angle_alpha   76.49811617
_cell_angle_beta   74.58293179
_cell_angle_gamma   74.58252413
_symmetry_Int_Tables_number   1
_chemical_formula_structural   CuH6C6Br2N
_chemical_formula_sum   'Cu4 H24 C24 Br8 N4'
_cell_volume   773.28624574
_cell_formula_units_Z   4
loop_
 _symmetry_equiv_pos_site_id
 _symmetry_equiv_pos_as_xyz
  1  'x, y, z'
loop_
 _atom_site_type_symbol
 _atom_site_label
 _atom_site_symmetry_multiplicity
 _atom_site_fract_x
 _atom_site_fract_y
 _atom_site_fract_z
 _atom_site_occupancy
 _atom_site_pbe_cm5_charge
 _atom_site_pbe_ddec_charge
 _atom_site_pbe_ddec_spin_density
 _atom_site_pbe_ddec_sum_bond_order
 _atom_site_pbe_magmom
Cu  Cu0  1  0.25000088  0.57915656  0.42084259  1  0.345426  0.550128  -0.544945  2.463221  -0.422
Cu  Cu1  1  0.74999917  0.42085969  0.57914014  1  0.345378  0.549953  -0.544928  2.463679  -0.422
Cu  Cu2  1  0.24999760  0.30662343  0.69337679  1  0.532979  0.54764  -0.6328  2.45057  -0.485
Cu  Cu3  1  0.74999667  0.69336760  0.30662898  1  0.532952  0.547775  -0.632846  2.450676  -0.485
H  H4  1  0.14951885  0.00211853  0.12047467  1  0.106084  0.124794  -0.000716  1.015987  -0.001
H  H5  1  0.64951837  0.12047905  0.00212201  1  0.106098  0.124778  -0.000718  1.015949  -0.001
H  H6  1  0.85048404  0.99787631  0.87952023  1  0.106089  0.124831  -0.000717  1.016026  -0.001
H  H7  1  0.35047177  0.87952473  0.99788602  1  0.1061  0.12481  -0.000716  1.015866  -0.001
H  H8  1  0.77641149  0.38604907  0.13104044  1  0.099017  0.125111  -0.001242  1.018416  -0.001
H  H9  1  0.27640638  0.13104387  0.38604120  1  0.099078  0.125097  -0.001242  1.018359  -0.001
H  H10  1  0.22359296  0.61395850  0.86895289  1  0.099065  0.125055  -0.001242  1.018393  -0.001
H  H11  1  0.72358186  0.86896954  0.61395276  1  0.099037  0.125124  -0.001241  1.018494  -0.001
H  H12  1  0.92197440  0.44642093  0.89444921  1  0.106434  0.093382  -0.002826  1.025332  -0.002
H  H13  1  0.42196081  0.89444780  0.44643192  1  0.106392  0.093439  -0.002825  1.025042  -0.002
H  H14  1  0.07803440  0.55356907  0.10554857  1  0.106408  0.093413  -0.002825  1.025157  -0.002
H  H15  1  0.57802475  0.10555700  0.55357949  1  0.10641  0.093348  -0.002827  1.025387  -0.002
H  H16  1  0.93819719  0.04517887  0.32292216  1  0.076203  0.142804  -0.002333  1.043619  -0.001
H  H17  1  0.43822050  0.32290997  0.04517328  1  0.076177  0.142777  -0.002335  1.043644  -0.001
H  H18  1  0.06178295  0.95482489  0.67708679  1  0.076182  0.142791  -0.002335  1.04367  -0.001
H  H19  1  0.56180935  0.67708101  0.95481759  1  0.076188  0.142838  -0.002333  1.043713  -0.001
H  H20  1  0.71758635  0.16528269  0.31097273  1  0.083821  0.135113  -0.000906  1.038094  0.0
H  H21  1  0.21760171  0.31097459  0.16527102  1  0.083794  0.135074  -0.000906  1.038113  0.0
H  H22  1  0.28240177  0.83472683  0.68902406  1  0.083799  0.135082  -0.000906  1.03809  0.0
H  H23  1  0.78241059  0.68903487  0.83471390  1  0.083835  0.135168  -0.000906  1.03806  0.0
H  H24  1  0.91351880  0.20803783  0.34466451  1  0.078812  0.140462  -0.000548  1.045924  0.0
H  H25  1  0.41353071  0.34466119  0.20803090  1  0.078819  0.140447  -0.000548  1.045898  0.0
H  H26  1  0.08647031  0.79196880  0.65533652  1  0.078835  0.140478  -0.000548  1.045895  0.0
H  H27  1  0.58648644  0.65534251  0.79196196  1  0.078818  0.140476  -0.000548  1.045948  0.0
C  C28  1  0.09675597  0.10130882  0.07248036  1  -0.079322  -0.216174  -0.002467  3.878959  -0.003
C  C29  1  0.59676969  0.07245790  0.10132008  1  -0.079464  -0.216379  -0.002465  3.879329  -0.003
C  C30  1  0.90322996  0.89868621  0.92753432  1  -0.079447  -0.216481  -0.002467  3.878704  -0.003
C  C31  1  0.40323984  0.92752142  0.89868577  1  -0.079302  -0.216237  -0.002467  3.878899  -0.003
C  C32  1  0.17334986  0.14279115  0.94049816  1  0.11735  0.175114  -0.001209  3.98154  -0.001
C  C33  1  0.67335507  0.94049592  0.14279253  1  0.117505  0.175423  -0.001209  3.981299  -0.001
C  C34  1  0.82664535  0.85720577  0.05950785  1  0.117456  0.175326  -0.001208  3.981204  -0.001
C  C35  1  0.32663187  0.05950881  0.85721308  1  0.117367  0.175178  -0.00121  3.981362  -0.001
C  C36  1  0.95390308  0.18774047  0.14560831  1  0.016932  0.234816  0.002191  3.939084  0.002
C  C37  1  0.45389602  0.14561092  0.18774538  1  0.017008  0.234796  0.002193  3.938707  0.002
C  C38  1  0.04611083  0.81224271  0.85439113  1  0.017007  0.234859  0.002193  3.938657  0.002
C  C39  1  0.54610139  0.85438795  0.81225881  1  0.016963  0.234914  0.002191  3.939104  0.002
C  C40  1  0.88849457  0.31421774  0.07999036  1  -0.07923  -0.17474  -0.004746  3.882092  -0.006
C  C41  1  0.38849885  0.07996796  0.31423066  1  -0.079402  -0.174697  -0.00474  3.883108  -0.006
C  C42  1  0.11150014  0.68577246  0.92002760  1  -0.079351  -0.174599  -0.00474  3.883369  -0.005
C  C43  1  0.61150468  0.92001237  0.68577882  1  -0.079287  -0.174731  -0.004745  3.882324  -0.006
C  C44  1  0.96934560  0.34913184  0.94829186  1  0.046527  0.110252  -0.002284  3.945318  -0.002
C  C45  1  0.46932736  0.94831600  0.34912303  1  0.046525  0.110109  -0.002287  3.946459  -0.002
C  C46  1  0.03066870  0.65087558  0.05168577  1  0.046523  0.110111  -0.002287  3.946452  -0.002
C  C47  1  0.53065327  0.05170330  0.65087366  1  0.046514  0.110192  -0.002286  3.945584  -0.002
C  C48  1  0.87770605  0.14815742  0.28834397  1  -0.25444  -0.437182  -0.005117  3.908483  -0.005
C  C49  1  0.37771688  0.28834142  0.14815419  1  -0.254326  -0.437028  -0.005119  3.908587  -0.005
C  C50  1  0.12228259  0.85184628  0.71165694  1  -0.254377  -0.437113  -0.005118  3.908527  -0.005
C  C51  1  0.62230076  0.71165641  0.85184002  1  -0.254415  -0.437285  -0.005117  3.908641  -0.005
Br  Br52  1  0.06608451  0.53108488  0.64782860  1  -0.158028  -0.334381  -0.19499  1.862385  -0.196
Br  Br53  1  0.56606647  0.64784084  0.53108419  1  -0.158006  -0.334422  -0.194978  1.862529  -0.196
Br  Br54  1  0.93393687  0.46891876  0.35215885  1  -0.158004  -0.334416  -0.194961  1.862551  -0.196
Br  Br55  1  0.43391577  0.35217357  0.46891340  1  -0.158021  -0.334362  -0.194985  1.862351  -0.196
Br  Br56  1  0.04740891  0.79380723  0.38947514  1  -0.249709  -0.422759  -0.13373  1.432619  -0.134
Br  Br57  1  0.54745188  0.38946927  0.79381230  1  -0.249708  -0.422745  -0.133748  1.432673  -0.134
Br  Br58  1  0.95254692  0.20618758  0.61053032  1  -0.249695  -0.422732  -0.133739  1.432686  -0.134
Br  Br59  1  0.45261729  0.61052886  0.20619086  1  -0.249688  -0.422736  -0.133781  1.43259  -0.134
N  N60  1  0.10998031  0.26648200  0.88022824  1  -0.349668  -0.245485  -0.060187  3.616504  -0.076
N  N61  1  0.60997431  0.88022212  0.26649345  1  -0.349703  -0.245586  -0.06019  3.616024  -0.076
N  N62  1  0.89002471  0.73351098  0.11977321  1  -0.349667  -0.245559  -0.060191  3.616275  -0.076
N  N63  1  0.39001807  0.11977481  0.73351493  1  -0.349648  -0.245446  -0.060192  3.616359  -0.076
