# generated using pymatgen
data_MnH10C16(NO2)2
_symmetry_space_group_name_H-M   'P 1'
_cell_length_a   8.19725343
_cell_length_b   8.30036459
_cell_length_c   10.49963458
_cell_angle_alpha   74.54165382
_cell_angle_beta   84.26105663
_cell_angle_gamma   72.87301259
_symmetry_Int_Tables_number   1
_chemical_formula_structural   MnH10C16(NO2)2
_chemical_formula_sum   'Mn2 H20 C32 N4 O8'
_cell_volume   657.83981625
_cell_formula_units_Z   2
loop_
 _symmetry_equiv_pos_site_id
 _symmetry_equiv_pos_as_xyz
  1  'x, y, z'
loop_
 _atom_site_type_symbol
 _atom_site_label
 _atom_site_symmetry_multiplicity
 _atom_site_fract_x
 _atom_site_fract_y
 _atom_site_fract_z
 _atom_site_occupancy
 _atom_site_hle17_ddec_charge
 _atom_site_hle17_ddec_spin_density
 _atom_site_hle17_ddec_sum_bond_order
 _atom_site_hle17_magmom
 _atom_site_hse06_10hf_ddec_charge
 _atom_site_hse06_10hf_ddec_spin_density
 _atom_site_hse06_10hf_ddec_sum_bond_order
 _atom_site_hse06_10hf_magmom
 _atom_site_hse06_ddec_charge
 _atom_site_hse06_ddec_spin_density
 _atom_site_hse06_ddec_sum_bond_order
 _atom_site_hse06_magmom
 _atom_site_pbe_cm5_charge
 _atom_site_pbe_ddec_charge
 _atom_site_pbe_ddec_spin_density
 _atom_site_pbe_ddec_sum_bond_order
 _atom_site_pbe_magmom
Mn  Mn0  1  0.23989657  0.54135416  0.87424897  1  1.141356  4.777075  1.872242  4.662  0.977243  4.676484  2.389756  4.499  1.030092  4.740498  2.318538  4.579  0.613389  0.938137  4.597805  2.443766  4.407
Mn  Mn1  1  0.76008449  0.45863789  0.12575603  1  1.141251  -4.777084  1.872354  -4.662  0.977249  -4.67648  2.389728  -4.499  1.030104  -4.740494  2.318508  -4.579  0.613379  0.938141  -4.597802  2.443738  -4.407
H  H2  1  0.07997357  0.20292831  0.94090196  1  0.076663  0.000381  0.960486  0.0  0.088196  0.000764  1.019821  0.0  0.089641  0.000624  1.018631  0.0  0.1206  0.086923  0.000936  1.021012  0.0
H  H3  1  0.92002612  0.79705846  0.05909323  1  0.076535  -0.000377  0.960498  0.0  0.088157  -0.000764  1.019776  0.0  0.089604  -0.000623  1.018581  0.0  0.120574  0.086884  -0.000936  1.020968  0.0
H  H4  1  0.02691930  0.00010590  0.82018718  1  0.121395  -0.000276  0.966582  0.0  0.130253  -0.000318  1.025383  0.0  0.134024  -0.000367  1.023553  0.0  0.110529  0.127501  -0.000258  1.026923  0.0
H  H5  1  0.97308252  0.99989125  0.17979613  1  0.121373  0.000264  0.966459  0.0  0.130178  0.000318  1.025316  0.0  0.133949  0.000367  1.023487  0.0  0.110515  0.127428  0.000258  1.026857  0.0
H  H6  1  0.06852633  0.06460823  0.57556952  1  0.095317  -0.000103  0.934655  0.0  0.108943  -2.6e-05  0.991729  0.0  0.111701  -4.1e-05  0.990108  0.0  0.10733  0.106914  0.0  0.99315  0.0
H  H7  1  0.93148091  0.93540061  0.42440996  1  0.095379  9.5e-05  0.934629  0.0  0.10905  2.7e-05  0.991628  0.0  0.111808  4.1e-05  0.990008  0.0  0.107343  0.107017  -0.0  0.993051  0.0
H  H8  1  0.15326411  0.25603550  0.36770137  1  0.100786  0.000272  0.967726  0.0  0.112142  0.000347  1.029115  0.0  0.11432  0.000293  1.028887  0.0  0.10344  0.110348  0.000397  1.029566  0.0
H  H9  1  0.84674797  0.74397335  0.63229013  1  0.100777  -0.000279  0.967773  0.0  0.11218  -0.000347  1.029109  0.0  0.114361  -0.000292  1.028873  0.0  0.103433  0.110386  -0.000397  1.029559  0.0
H  H10  1  0.27184016  0.50306988  0.25673782  1  0.125471  -0.000103  0.943245  0.0  0.133402  -6.7e-05  1.005529  0.0  0.136648  -8.5e-05  1.004298  0.0  0.112873  0.131008  -2.3e-05  1.006375  0.0
H  H11  1  0.72817926  0.49693896  0.74325789  1  0.125567  0.000106  0.943242  0.0  0.133482  6.7e-05  1.00554  0.0  0.136722  8.5e-05  1.004307  0.0  0.112914  0.131093  2.3e-05  1.006377  0.0
H  H12  1  0.38239322  0.74457559  0.27462944  1  0.115504  0.000243  0.947209  0.0  0.127001  0.000422  1.006079  0.0  0.129871  0.000392  1.003931  0.0  0.113553  0.124871  0.000475  1.007722  0.0
H  H13  1  0.61762369  0.25542418  0.72538170  1  0.115491  -0.000254  0.947266  0.0  0.12699  -0.000422  1.006098  0.0  0.12986  -0.000392  1.003949  0.0  0.113561  0.124861  -0.000476  1.007734  0.0
H  H14  1  0.43643027  0.92413329  0.41752288  1  0.100799  0.000269  0.951744  0.0  0.113376  0.000307  1.009346  0.0  0.115574  0.00024  1.010253  0.0  0.105133  0.111865  0.000338  1.008845  0.0
H  H15  1  0.56357944  0.07587041  0.58248988  1  0.100792  -0.000262  0.951736  0.0  0.113352  -0.000307  1.009348  0.0  0.115546  -0.00024  1.010261  0.0  0.10516  0.111841  -0.000338  1.008844  0.0
H  H16  1  0.38795047  0.82966459  0.66434310  1  0.076612  -0.000173  0.955639  0.0  0.081951  0.000131  1.025591  0.0  0.084325  2.8e-05  1.023582  0.0  0.114984  0.080386  0.000204  1.026703  0.001
H  H17  1  0.61204524  0.17033655  0.33566744  1  0.076601  0.000179  0.955686  0.0  0.08198  -0.000132  1.025563  0.0  0.084357  -2.9e-05  1.023549  0.0  0.114985  0.080413  -0.000204  1.026684  -0.001
H  H18  1  0.25958644  0.01237771  0.19296991  1  0.102704  0.000179  0.985037  0.0  0.110376  -7.4e-05  1.051515  0.0  0.114288  -1e-05  1.049907  0.0  0.096108  0.107559  -0.000132  1.052985  0.0
H  H19  1  0.74040380  0.98762995  0.80704444  1  0.102691  -0.000171  0.985006  0.0  0.110372  7.4e-05  1.051481  0.0  0.114282  1e-05  1.049871  0.0  0.096117  0.107554  0.000132  1.052951  0.0
H  H20  1  0.54997623  0.98652294  0.12605616  1  0.108553  -0.000117  0.953113  0.0  0.117851  0.000121  1.016344  0.0  0.120745  0.000111  1.014954  0.0  0.104017  0.115683  0.000133  1.018036  0.0
H  H21  1  0.45000669  0.01347563  0.87395589  1  0.108451  0.000121  0.953198  0.0  0.117785  -0.000121  1.016422  0.0  0.120679  -0.000112  1.015037  0.0  0.104017  0.115618  -0.000133  1.018111  0.0
C  C22  1  0.10602341  0.22257578  0.83494603  1  0.155381  0.002312  3.674417  0.002  0.125481  0.00446  3.92943  0.004  0.132885  0.003676  3.946557  0.003  0.068297  0.120841  0.005232  3.917487  0.004
C  C23  1  0.89397433  0.77742271  0.16504683  1  0.155534  -0.002328  3.674337  -0.002  0.125536  -0.00446  3.929386  -0.004  0.13294  -0.003674  3.946514  -0.003  0.06826  0.120898  -0.00523  3.917448  -0.004
C  C24  1  0.07104912  0.11206476  0.76703196  1  -0.106156  -0.000806  3.707592  0.0  -0.120793  -0.000565  3.961611  0.0  -0.126832  -0.000878  3.981227  0.0  -0.078175  -0.117125  -0.000207  3.948633  0.0
C  C25  1  0.92895584  0.88792979  0.23295547  1  -0.105986  0.000841  3.707504  0.0  -0.120518  0.000566  3.961484  0.0  -0.126557  0.000874  3.981105  0.0  -0.078025  -0.116854  0.000206  3.948507  0.0
C  C26  1  0.09696366  0.14598678  0.63167185  1  -0.050472  0.001894  3.705676  0.002  -0.075265  0.003316  3.957131  0.003  -0.073489  0.002753  3.975495  0.002  -0.064371  -0.076249  0.003979  3.9446  0.003
C  C27  1  0.90304128  0.85401688  0.36831461  1  -0.050838  -0.001881  3.705926  -0.002  -0.075637  -0.003317  3.957447  -0.003  -0.073862  -0.002749  3.975812  -0.002  -0.064479  -0.076617  -0.003978  3.944917  -0.003
C  C28  1  0.16062348  0.28750811  0.56503543  1  0.015474  -0.000349  3.817972  0.0  0.031385  -8.6e-05  4.049734  0.0  0.029356  -0.000296  4.074498  0.0  -0.005951  0.032927  0.000224  4.032597  0.0
C  C29  1  0.83938388  0.71249555  0.43495752  1  0.015687  0.000341  3.817821  0.0  0.031408  8.8e-05  4.049868  0.0  0.029377  0.000294  4.074635  0.0  -0.00599  0.032952  -0.000224  4.03273  0.0
C  C30  1  0.18740886  0.33272912  0.42490920  1  -0.104716  -0.000461  3.737572  0.0  -0.128347  -0.000381  3.995167  0.0  -0.132733  -0.000425  4.019195  0.0  -0.087834  -0.12507  -0.000219  3.978383  0.0
C  C31  1  0.81260935  0.66727972  0.57508374  1  -0.104653  0.000487  3.73757  0.0  -0.128245  0.000382  3.995171  0.0  -0.132625  0.000425  4.019193  0.0  -0.087744  -0.124969  0.00022  3.978387  0.0
C  C32  1  0.25127836  0.46954133  0.36373790  1  -0.085461  0.000404  3.703489  0.0  -0.10923  0.000319  3.960052  0.0  -0.11199  0.00034  3.983358  0.0  -0.078284  -0.107488  0.00034  3.944094  0.0
C  C33  1  0.74874651  0.53046100  0.63625877  1  -0.085756  -0.000422  3.703719  0.0  -0.109518  -0.000319  3.960162  0.0  -0.11227  -0.00034  3.983459  0.0  -0.078426  -0.107774  -0.00034  3.944203  0.0
C  C34  1  0.29080744  0.57248920  0.43953597  1  0.020557  -0.00084  3.795595  -0.001  0.036102  -0.000359  4.026884  -0.001  0.032922  -0.000648  4.051683  -0.001  -0.003882  0.038104  -0.0001  4.010491  0.0
C  C35  1  0.70921075  0.42751055  0.56046651  1  0.020488  0.000832  3.795488  0.001  0.03618  0.00036  4.026643  0.001  0.033004  0.000647  4.051439  0.001  -0.003878  0.038178  0.0001  4.010251  0.0
C  C36  1  0.35584082  0.71580019  0.38104337  1  -0.04394  0.003275  3.679056  0.003  -0.069752  0.004863  3.930614  0.004  -0.06658  0.004121  3.948059  0.003  -0.060682  -0.071899  0.006095  3.918965  0.005
C  C37  1  0.64417682  0.28419698  0.61896636  1  -0.043802  -0.003253  3.679103  -0.003  -0.069607  -0.004866  3.930556  -0.004  -0.066432  -0.004121  3.947995  -0.003  -0.060609  -0.071762  -0.006097  3.918929  -0.005
C  C38  1  0.38751764  0.81212717  0.45994522  1  -0.137319  -0.001297  3.764924  -0.001  -0.15205  -0.000643  4.023838  -0.001  -0.159892  -0.00107  4.046293  -0.001  -0.090835  -0.146955  -0.000395  4.008823  0.0
C  C39  1  0.61249561  0.18787261  0.54006334  1  -0.137389  0.001291  3.764985  0.001  -0.152133  0.000646  4.023943  0.001  -0.159975  0.00107  4.0464  0.001  -0.090928  -0.147038  0.000396  4.008928  0.0
C  C40  1  0.36027573  0.76106794  0.59743239  1  0.143627  0.003383  3.710201  0.003  0.113142  0.005647  3.967537  0.005  0.121792  0.004657  3.98382  0.004  0.059663  0.107276  0.006852  3.956415  0.006
C  C41  1  0.63972930  0.23893055  0.40257420  1  0.143578  -0.003395  3.71018  -0.003  0.113074  -0.005651  3.967478  -0.005  0.121726  -0.004657  3.983756  -0.004  0.059655  0.107207  -0.006855  3.956361  -0.006
C  C42  1  0.19775224  0.38789053  0.64309889  1  0.12583  0.001008  3.76205  0.001  0.122201  0.002801  3.997847  0.003  0.125845  0.002159  4.019876  0.002  0.119713  0.119597  0.003365  3.982939  0.003
C  C43  1  0.80225283  0.61210795  0.35690009  1  0.125918  -0.000994  3.76193  -0.001  0.12236  -0.002801  3.997823  -0.003  0.126006  -0.002157  4.019849  -0.002  0.119781  0.119754  -0.003364  3.98292  -0.003
C  C44  1  0.26457540  0.53244984  0.57898004  1  0.125335  0.001834  3.755007  0.002  0.121277  0.003661  3.989434  0.003  0.125811  0.002965  4.010821  0.003  0.121229  0.117975  0.004388  3.975407  0.004
C  C45  1  0.73542896  0.46755125  0.42102034  1  0.125341  -0.001834  3.754883  -0.002  0.121146  -0.003661  3.989411  -0.003  0.125676  -0.002966  4.010799  -0.003  0.121153  0.117846  -0.00439  3.97538  -0.004
C  C46  1  0.15139507  0.29142833  0.12311913  1  0.679914  0.010103  3.909221  0.009  0.627963  0.013993  4.207845  0.012  0.665955  0.009759  4.19629  0.009  0.205543  0.600758  0.019144  4.215184  0.017
C  C47  1  0.84859070  0.70856891  0.87688441  1  0.679906  -0.010079  3.909192  -0.009  0.628151  -0.013992  4.207544  -0.012  0.666143  -0.009756  4.195986  -0.009  0.205612  0.600944  -0.019141  4.214888  -0.017
C  C48  1  0.29528787  0.13024994  0.14203129  1  -0.238319  -0.007856  3.731519  -0.007  -0.258945  -0.005657  4.000412  -0.005  -0.266956  -0.005424  4.011796  -0.005  -0.111802  -0.254218  -0.006473  3.994159  -0.006
C  C49  1  0.70469647  0.86975251  0.85797413  1  -0.238193  0.007864  3.731201  0.007  -0.25883  0.005654  4.000054  0.005  -0.266834  0.005433  4.011436  0.005  -0.111674  -0.254102  0.006472  3.993798  0.006
C  C50  1  0.45915699  0.11610777  0.10253353  1  -0.135467  0.006936  3.650343  0.006  -0.157634  0.006271  3.913961  0.005  -0.154829  0.004669  3.921915  0.003  -0.077145  -0.16171  0.009753  3.910735  0.007
C  C51  1  0.54082440  0.88389209  0.89747075  1  -0.135417  -0.006972  3.649998  -0.006  -0.157673  -0.006266  3.913795  -0.005  -0.154871  -0.004677  3.921758  -0.003  -0.077232  -0.161751  -0.009751  3.910567  -0.007
C  C52  1  0.54073826  0.25692512  0.03353402  1  0.713514  0.001382  3.881614  0.001  0.664479  0.002856  4.174317  0.002  0.700499  0.001595  4.164037  0.001  0.225244  0.639571  0.004749  4.179874  0.004
C  C53  1  0.45924508  0.74307212  0.96646590  1  0.713703  -0.001379  3.88116  -0.001  0.664554  -0.00286  4.174105  -0.002  0.700561  -0.001596  4.163847  -0.001  0.225299  0.639649  -0.004753  4.179668  -0.004
N  N54  1  0.16986544  0.35494602  0.77600215  1  -0.348251  0.025546  3.222387  0.013  -0.292944  0.030341  3.503761  0.014  -0.310398  0.027836  3.518618  0.012  -0.304453  -0.280385  0.032846  3.493061  0.016
N  N55  1  0.83013141  0.64505117  0.22399391  1  -0.348376  -0.025552  3.222353  -0.013  -0.293092  -0.030343  3.503784  -0.014  -0.310548  -0.02784  3.518642  -0.012  -0.304472  -0.28053  -0.032848  3.493079  -0.016
N  N56  1  0.30116375  0.62531656  0.65551728  1  -0.334796  0.024992  3.21218  0.013  -0.273878  0.029649  3.48325  0.014  -0.291187  0.02662  3.496459  0.011  -0.30625  -0.261882  0.032415  3.475006  0.016
N  N57  1  0.69883517  0.37468195  0.34448596  1  -0.334716  -0.025  3.212156  -0.013  -0.273706  -0.029647  3.483135  -0.014  -0.291017  -0.026618  3.496348  -0.011  -0.306179  -0.26171  -0.032413  3.474888  -0.016
O  O58  1  0.17704045  0.43918886  0.06928737  1  -0.64247  0.027495  2.062022  0.011  -0.571395  0.031048  2.331666  0.01  -0.600334  0.028326  2.314879  0.008  -0.311038  -0.549895  0.034767  2.34271  0.014
O  O59  1  0.82294376  0.56080968  0.93071317  1  -0.642385  -0.027508  2.062016  -0.011  -0.571489  -0.031045  2.331675  -0.01  -0.600425  -0.028326  2.314882  -0.008  -0.311026  -0.549984  -0.034764  2.342715  -0.014
O  O60  1  0.00480704  0.26973083  0.16473031  1  -0.639255  -0.024232  2.007383  -0.011  -0.579816  -0.024429  2.277972  -0.008  -0.606946  -0.024048  2.260933  -0.008  -0.311068  -0.559367  -0.02579  2.289705  -0.01
O  O61  1  0.99517838  0.73026771  0.83527299  1  -0.639342  0.024237  2.007374  0.011  -0.57995  0.02443  2.277894  0.008  -0.607084  0.024053  2.260857  0.008  -0.311164  -0.559501  0.025793  2.289631  0.01
O  O62  1  0.49742940  0.34834030  0.91820540  1  -0.64192  0.019325  1.989769  0.007  -0.587259  0.025145  2.251064  0.009  -0.615752  0.02303  2.23675  0.007  -0.305437  -0.565771  0.027367  2.259986  0.011
O  O63  1  0.50255540  0.65164262  0.08179172  1  -0.641955  -0.019325  1.989691  -0.007  -0.58725  -0.025147  2.251029  -0.009  -0.615744  -0.023032  2.236727  -0.007  -0.305473  -0.565744  -0.027369  2.259913  -0.011
O  O64  1  0.66004879  0.26366019  0.09949956  1  -0.636133  -0.026942  2.030361  -0.013  -0.565443  -0.028895  2.293666  -0.011  -0.598368  -0.027773  2.280241  -0.01  -0.304424  -0.540223  -0.029371  2.301869  -0.011
O  O65  1  0.33993347  0.73634096  0.90050343  1  -0.636371  0.026937  2.030456  0.013  -0.565553  0.028892  2.293725  0.011  -0.598469  0.027767  2.280303  0.01  -0.304473  -0.540335  0.029367  2.301929  0.011
