# generated using pymatgen
data_Ni2H60W(C8N5)4
_symmetry_space_group_name_H-M   'P 1'
_cell_length_a   15.48587296
_cell_length_b   15.48805927
_cell_length_c   15.49066142
_cell_angle_alpha   62.72569825
_cell_angle_beta   74.28721541
_cell_angle_gamma   105.72428663
_symmetry_Int_Tables_number   1
_chemical_formula_structural   Ni2H60W(C8N5)4
_chemical_formula_sum   'Ni4 H120 W2 C64 N40'
_cell_volume   2819.66008778
_cell_formula_units_Z   2
loop_
 _symmetry_equiv_pos_site_id
 _symmetry_equiv_pos_as_xyz
  1  'x, y, z'
loop_
 _atom_site_type_symbol
 _atom_site_label
 _atom_site_symmetry_multiplicity
 _atom_site_fract_x
 _atom_site_fract_y
 _atom_site_fract_z
 _atom_site_occupancy
 _atom_site_pbe_bader_charge
 _atom_site_pbe_bader_spin_density
 _atom_site_pbe_cm5_charge
 _atom_site_pbe_ddec_charge
 _atom_site_pbe_ddec_spin_density
 _atom_site_pbe_ddec_sum_bond_order
 _atom_site_pbe_magmom
Ni  Ni0  1  0.99999836  0.49999995  0.49999972  1  1.05011  -1.444767  0.697701  0.589954  -1.707709  2.776172  -1.43
Ni  Ni1  1  0.99999936  0.99999944  0.50000066  1  1.043857  -1.443993  0.697822  0.590465  -1.706991  2.775462  -1.429
Ni  Ni2  1  0.49999600  0.49999913  0.00000522  1  1.040874  -1.445786  0.698012  0.589998  -1.709077  2.777618  -1.431
Ni  Ni3  1  0.50000223  0.50000244  0.49999807  1  1.040969  1.441108  0.696958  0.589394  1.783537  2.774632  1.426
H  H4  1  0.15317245  0.71168717  0.45832247  1  0.051234  -0.000505  0.102814  0.074252  -0.000157  1.009217  0.0
H  H5  1  0.17005195  0.05856044  0.28833240  1  0.067756  -0.000513  0.102784  0.074216  -0.000162  1.009311  0.0
H  H6  1  0.34683253  0.38852845  0.94143674  1  0.045129  -8.3e-05  0.1029  0.074472  7.4e-05  1.009015  0.0
H  H7  1  0.33008724  0.54163109  0.61159316  1  0.053459  5.7e-05  0.10299  0.074755  -8.8e-05  1.008784  0.0
H  H8  1  0.84683175  0.28831333  0.54167830  1  0.051102  -0.000504  0.102857  0.074356  -0.000157  1.00921  0.0
H  H9  1  0.82994816  0.94143844  0.71166703  1  0.067749  -0.000513  0.102792  0.074218  -0.000162  1.009255  0.0
H  H10  1  0.65316587  0.61147036  0.05856212  1  0.045138  -8.3e-05  0.102866  0.07444  7.4e-05  1.008981  0.0
H  H11  1  0.66992151  0.45837563  0.38840008  1  0.05345  5.7e-05  0.102962  0.07476  -8.8e-05  1.008691  0.0
H  H12  1  0.27037861  0.72539564  0.37872769  1  0.054001  -0.003975  0.101916  0.081129  -0.001875  0.975719  -0.002
H  H13  1  0.10409900  0.95502447  0.27469049  1  0.044666  -0.00409  0.102092  0.081542  -0.001912  0.97569  -0.002
H  H14  1  0.22962859  0.35090345  0.04493453  1  0.035262  -0.004091  0.101876  0.081107  -0.001895  0.975842  -0.002
H  H15  1  0.39611926  0.62133441  0.64904270  1  0.058072  0.003908  0.10194  0.08121  0.001916  0.975639  0.002
H  H16  1  0.72962409  0.27460663  0.62127472  1  0.053969  -0.003975  0.101909  0.081162  -0.001875  0.975791  -0.002
H  H17  1  0.89590142  0.04497635  0.72530904  1  0.04463  -0.004091  0.102087  0.081525  -0.001912  0.975704  -0.002
H  H18  1  0.77036718  0.64909518  0.95506690  1  0.035217  -0.004091  0.101894  0.081138  -0.001895  0.975868  -0.002
H  H19  1  0.60388365  0.37866892  0.35095164  1  0.058263  0.003909  0.101917  0.081183  0.001917  0.975651  0.002
H  H20  1  0.08513911  0.75266806  0.33262802  1  0.06788  -0.000893  0.117503  0.080573  -0.000324  0.994849  0.0
H  H21  1  0.08530972  0.16756092  0.24737898  1  0.083913  -0.000873  0.117422  0.080513  -0.000319  0.994836  0.0
H  H22  1  0.41491523  0.58228481  0.83246269  1  0.064118  -0.000749  0.117464  0.080456  -0.000245  0.994848  0.0
H  H23  1  0.41464785  0.66728906  0.41789482  1  0.067922  0.000724  0.11744  0.080363  0.000248  0.995004  0.0
H  H24  1  0.91486572  0.24733226  0.66737125  1  0.067807  -0.000893  0.117489  0.08056  -0.000324  0.994784  0.0
H  H25  1  0.91468917  0.83244001  0.75262047  1  0.083911  -0.000873  0.117409  0.080509  -0.000319  0.994852  0.0
H  H26  1  0.58508487  0.41771323  0.16753588  1  0.064174  -0.000749  0.117493  0.080474  -0.000245  0.99486  0.0
H  H27  1  0.58535137  0.33271057  0.58210388  1  0.067688  0.000724  0.117439  0.08034  0.000248  0.995081  0.0
H  H28  1  0.20290209  0.79289397  0.22666059  1  0.049169  -0.006615  0.107692  0.062185  -0.00315  0.969354  -0.003
H  H29  1  0.01953807  0.09002594  0.20715076  1  0.04381  -0.006613  0.107742  0.062173  -0.003149  0.969474  -0.003
H  H30  1  0.29712328  0.57049313  0.90996042  1  0.040852  -0.006534  0.10776  0.062159  -0.003103  0.969412  -0.003
H  H31  1  0.48048332  0.77332594  0.42959157  1  0.044494  0.00649  0.107653  0.062012  0.003233  0.969265  0.003
H  H32  1  0.79710185  0.20710711  0.77333795  1  0.049198  -0.006615  0.10771  0.062194  -0.00315  0.969376  -0.003
H  H33  1  0.98046203  0.90997704  0.79284565  1  0.04384  -0.006612  0.107706  0.06216  -0.003149  0.969425  -0.003
H  H34  1  0.70287610  0.42950502  0.09003706  1  0.040878  -0.006533  0.107742  0.062131  -0.003103  0.969461  -0.003
H  H35  1  0.51952073  0.22667607  0.57040572  1  0.044402  0.006492  0.107592  0.061895  0.003234  0.96924  0.003
H  H36  1  0.93295167  0.62110078  0.25221213  1  0.038345  -0.006505  0.104731  0.057323  -0.00309  0.981653  -0.003
H  H37  1  0.87326861  0.18810774  0.37890066  1  0.036693  -0.006508  0.104871  0.057555  -0.003066  0.981505  -0.003
H  H38  1  0.56702902  0.81485975  0.81192977  1  0.04648  -0.006495  0.104831  0.05744  -0.003077  0.981711  -0.003
H  H39  1  0.62653421  0.74780317  0.18519315  1  0.013715  0.00656  0.10486  0.057558  0.003217  0.981889  0.003
H  H40  1  0.06705179  0.37889899  0.74778669  1  0.038326  -0.006504  0.104711  0.057349  -0.00309  0.981608  -0.003
H  H41  1  0.12673210  0.81189420  0.62109810  1  0.036711  -0.006509  0.104862  0.057534  -0.003066  0.981496  -0.003
H  H42  1  0.43296781  0.18513748  0.18807202  1  0.04645  -0.006495  0.104812  0.057416  -0.003077  0.981684  -0.003
H  H43  1  0.37346751  0.25219977  0.81480594  1  0.013772  0.00656  0.104863  0.057597  0.003217  0.981734  0.003
H  H44  1  0.93487238  0.65762909  0.34547168  1  0.090357  -0.000969  0.119733  0.089802  -0.000311  0.997338  -0.001
H  H45  1  0.00308974  0.22273373  0.34240098  1  0.093637  -0.000958  0.119735  0.089909  -0.000303  0.997207  -0.001
H  H46  1  0.56514719  0.71968122  0.77732067  1  0.091119  -0.000956  0.119677  0.089606  -0.000306  0.997157  -0.001
H  H47  1  0.49667850  0.65453718  0.28041815  1  0.093396  0.000963  0.119839  0.089925  0.000333  0.996936  0.001
H  H48  1  0.06512866  0.34236662  0.65452850  1  0.090272  -0.00097  0.119757  0.089803  -0.000311  0.997301  -0.001
H  H49  1  0.99691044  0.77726439  0.65760020  1  0.09362  -0.000958  0.119737  0.08991  -0.000303  0.997251  -0.001
H  H50  1  0.43485294  0.28031848  0.22267962  1  0.091089  -0.000956  0.119669  0.089587  -0.000306  0.997158  -0.001
H  H51  1  0.50331993  0.34546328  0.71958244  1  0.093323  0.000963  0.119855  0.089955  0.000333  0.997015  0.001
H  H52  1  0.21016079  0.58913825  0.57702357  1  0.013414  -0.003957  0.096347  0.068117  -0.001831  0.98271  -0.002
H  H53  1  0.16619638  0.87902665  0.41092703  1  0.032514  -0.00404  0.09641  0.068266  -0.001875  0.982681  -0.002
H  H54  1  0.28987294  0.21281887  0.12090766  1  0.030823  -0.003984  0.096437  0.068456  -0.001842  0.982859  -0.002
H  H55  1  0.33412550  0.42300315  0.78716217  1  0.000777  0.00384  0.096006  0.067858  0.001858  0.982557  0.002
H  H56  1  0.78983845  0.41086219  0.42298071  1  0.013449  -0.003957  0.096367  0.068124  -0.001831  0.98279  -0.002
H  H57  1  0.83379994  0.12097169  0.58907500  1  0.032455  -0.004041  0.096431  0.068328  -0.001875  0.982597  -0.002
H  H58  1  0.71012391  0.78717919  0.87909498  1  0.030865  -0.003984  0.096416  0.068409  -0.001842  0.982919  -0.002
H  H59  1  0.66587727  0.57700249  0.21283426  1  0.000693  0.00384  0.095999  0.067835  0.001858  0.982546  0.002
H  H60  1  0.20721177  0.52269520  0.50898908  1  0.073784  -0.000256  0.111157  0.100101  2.4e-05  0.988233  0.0
H  H61  1  0.03167897  0.81552759  0.47734271  1  0.082716  -0.000212  0.111278  0.100259  2.6e-05  0.988382  0.0
H  H62  1  0.29280417  0.28377752  0.18442470  1  0.072466  -0.000211  0.111108  0.099956  2.1e-05  0.988328  0.0
H  H63  1  0.46862727  0.49112805  0.71602076  1  0.068653  0.000238  0.111247  0.100208  -3.1e-05  0.98878  0.0
H  H64  1  0.79279191  0.47730642  0.49101194  1  0.073816  -0.000256  0.111148  0.10009  2.4e-05  0.988229  0.0
H  H65  1  0.96831716  0.18447057  0.52265883  1  0.082771  -0.000212  0.111275  0.100259  2.6e-05  0.988324  0.0
H  H66  1  0.70719513  0.71622136  0.81557575  1  0.072472  -0.000211  0.11111  0.09995  2.1e-05  0.988338  0.0
H  H67  1  0.53137575  0.50887619  0.28397704  1  0.069019  0.000238  0.111224  0.10019  -3.1e-05  0.988764  0.0
H  H68  1  0.12257150  0.57327676  0.23261356  1  0.02861  7e-05  0.09252  0.062887  0.000103  1.003838  0.0
H  H69  1  0.80583695  0.95067489  0.42671719  1  0.048858  6.3e-05  0.092507  0.062913  9.4e-05  1.003836  0.0
H  H70  1  0.37737585  0.64482082  0.04931249  1  0.032287  7e-05  0.092459  0.062769  0.000103  1.003999  0.0
H  H71  1  0.69414517  0.76737280  0.35508929  1  0.036641  -6.8e-05  0.092434  0.062802  -9e-05  1.004031  0.0
H  H72  1  0.87743307  0.42672413  0.76738348  1  0.028633  7e-05  0.092543  0.062931  0.000103  1.003781  0.0
H  H73  1  0.19416273  0.04932928  0.57328208  1  0.048827  6.3e-05  0.092519  0.062923  9.4e-05  1.003848  0.0
H  H74  1  0.62261758  0.35517301  0.95068733  1  0.032224  7e-05  0.092474  0.062792  0.000103  1.003948  0.0
H  H75  1  0.30585596  0.23263202  0.64490832  1  0.036679  -6.8e-05  0.092443  0.062844  -9e-05  1.003967  0.0
H  H76  1  0.20763299  0.71258732  0.13546753  1  0.018131  -0.000291  0.104515  0.0799  -0.000126  0.992345  0.0
H  H77  1  0.84799553  0.00495793  0.28742490  1  0.061732  -0.000282  0.104503  0.079775  -0.000129  0.992241  0.0
H  H78  1  0.29234777  0.65694445  0.99502736  1  0.061386  -0.000284  0.104547  0.079756  -0.000126  0.992078  0.0
H  H79  1  0.65204876  0.86454823  0.34301505  1  0.044481  0.000288  0.104387  0.079848  0.000144  0.992306  0.0
H  H80  1  0.79237060  0.28741422  0.86453089  1  0.018218  -0.000291  0.104525  0.079899  -0.000126  0.992385  0.0
H  H81  1  0.15200346  0.99504310  0.71257243  1  0.061752  -0.000282  0.104506  0.079808  -0.000129  0.99229  0.0
H  H82  1  0.70765059  0.34305269  0.00496979  1  0.06142  -0.000284  0.10453  0.079802  -0.000126  0.992016  0.0
H  H83  1  0.34795405  0.13545500  0.65698140  1  0.044446  0.000288  0.104348  0.079769  0.000144  0.992369  0.0
H  H84  1  0.13510738  0.62914813  0.05213330  1  0.03057  -9.1e-05  0.089944  0.123906  -3.8e-05  1.020226  0.0
H  H85  1  0.68116660  0.99397530  0.37087119  1  0.048103  9.8e-05  0.08996  0.123951  7e-05  1.020332  0.0
H  H86  1  0.36485315  0.81279769  0.00597392  1  0.043128  -9.2e-05  0.089908  0.123875  -3.8e-05  1.020213  0.0
H  H87  1  0.81880559  0.94789652  0.18715561  1  0.043015  -9.7e-05  0.090001  0.123884  -6.2e-05  1.020386  0.0
H  H88  1  0.86489314  0.37084870  0.94786713  1  0.030808  -9.1e-05  0.089932  0.123876  -3.8e-05  1.020238  0.0
H  H89  1  0.31883448  0.00603111  0.62912553  1  0.048054  9.8e-05  0.089975  0.123976  7e-05  1.020337  0.0
H  H90  1  0.63513606  0.18719270  0.99403438  1  0.042907  -9.2e-05  0.089965  0.123929  -3.8e-05  1.020278  0.0
H  H91  1  0.18119636  0.05210419  0.81284399  1  0.043019  -9.7e-05  0.089984  0.123851  -6.2e-05  1.020467  0.0
H  H92  1  0.09799760  0.73234713  0.04035731  1  0.042949  -9.2e-05  0.087258  0.118589  -3e-05  0.999785  0.0
H  H93  1  0.77259371  0.13430181  0.26769766  1  0.024212  -7.8e-05  0.087297  0.118749  -2.5e-05  0.999909  0.0
H  H94  1  0.40201213  0.86170447  0.86567126  1  0.039393  -2.8e-05  0.087366  0.118889  0.0  0.999753  0.0
H  H95  1  0.72736111  0.95970144  0.13829488  1  0.039937  1e-05  0.087276  0.118648  2e-06  1.000008  0.0
H  H96  1  0.90200593  0.26765189  0.95964325  1  0.042734  -9.2e-05  0.087259  0.118552  -3e-05  0.99985  0.0
H  H97  1  0.22740871  0.86570430  0.73229865  1  0.024282  -7.8e-05  0.087299  0.118752  -2.5e-05  0.999922  0.0
H  H98  1  0.59798281  0.13828840  0.13433249  1  0.039473  -2.8e-05  0.08736  0.118879  0.0  0.99975  0.0
H  H99  1  0.27264069  0.04030078  0.86170124  1  0.039983  1e-05  0.087298  0.118666  2e-06  0.999981  0.0
H  H100  1  0.01108235  0.59055095  0.13870725  1  -0.004209  -0.000277  0.082868  0.106244  -0.000114  1.018392  0.0
H  H101  1  0.72916592  0.07938545  0.40946180  1  0.013997  -0.000177  0.082796  0.106176  -6.8e-05  1.018694  0.0
H  H102  1  0.48888397  0.85021936  0.92059658  1  -0.0037  -0.000263  0.082827  0.106248  -0.000108  1.018608  0.0
H  H103  1  0.77074778  0.86132843  0.14974255  1  0.008283  0.000149  0.082807  0.106216  5.7e-05  1.018217  0.0
H  H104  1  0.98891802  0.40944735  0.86129441  1  -0.004399  -0.000278  0.082864  0.106219  -0.000114  1.018448  0.0
H  H105  1  0.27083550  0.92062048  0.59053504  1  0.013526  -0.000177  0.082816  0.106217  -6.8e-05  1.018693  0.0
H  H106  1  0.51110763  0.14977344  0.07940864  1  -0.003729  -0.000263  0.082776  0.106191  -0.000108  1.018521  0.0
H  H107  1  0.22925257  0.13867315  0.85025524  1  0.008262  0.000149  0.082825  0.106245  5.7e-05  1.018229  0.0
H  H108  1  0.18417790  0.61441198  0.33721351  1  0.444018  0.000139  0.294234  0.247387  -0.000267  0.983857  0.0
H  H109  1  0.95161800  0.93025971  0.38559076  1  0.440293  0.00019  0.294235  0.247269  -0.000245  0.984407  0.0
H  H110  1  0.31578994  0.47859823  0.06973120  1  0.440919  0.000143  0.294224  0.247195  -0.00026  0.984131  0.0
H  H111  1  0.54854589  0.66285282  0.52124577  1  0.439823  -0.000133  0.294066  0.24699  0.000298  0.984389  0.0
H  H112  1  0.81582719  0.38558777  0.66278798  1  0.444062  0.000139  0.29424  0.247388  -0.000267  0.98387  0.0
H  H113  1  0.04838362  0.06974232  0.61440487  1  0.44027  0.00019  0.294201  0.247208  -0.000245  0.984416  0.0
H  H114  1  0.68420823  0.52140281  0.93026716  1  0.440936  0.000142  0.294205  0.247202  -0.000261  0.984068  0.0
H  H115  1  0.45145858  0.33715207  0.47875036  1  0.439833  -0.000133  0.294079  0.247029  0.000299  0.984358  0.0
H  H116  1  0.03218330  0.52693527  0.63883643  1  0.414628  0.00016  0.304844  0.249056  -0.000253  0.93669  0.0
H  H117  1  0.16582502  0.99480897  0.47307326  1  0.418557  0.000163  0.305107  0.249252  -0.000268  0.937229  0.0
H  H118  1  0.46783923  0.32896081  0.00518293  1  0.403322  0.00015  0.305047  0.24917  -0.00025  0.936768  0.0
H  H119  1  0.33438248  0.36121162  0.67102878  1  0.408557  -0.000172  0.305104  0.249432  0.000292  0.936737  0.0
H  H120  1  0.96781974  0.47306573  0.36116053  1  0.414574  0.00016  0.304822  0.249007  -0.000253  0.936807  0.0
H  H121  1  0.83417389  0.00519282  0.52692234  1  0.418669  0.000164  0.305117  0.249236  -0.000268  0.937308  0.0
H  H122  1  0.53215876  0.67104002  0.99481965  1  0.40327  0.00015  0.305033  0.249171  -0.000249  0.936752  0.0
H  H123  1  0.66562007  0.63879216  0.32897015  1  0.409223  -0.000173  0.305098  0.249474  0.000292  0.936768  0.0
W  W124  1  0.74995132  0.62501517  0.62489631  1  1.920537  -0.016276  0.931038  0.533699  -0.013758  6.100633  -0.016
W  W125  1  0.25004493  0.37497983  0.37510700  1  1.920786  -0.016284  0.931079  0.533724  -0.013765  6.100934  -0.016
C  C126  1  0.87956224  0.61037260  0.55988594  1  0.703388  -0.008532  -0.00158  -0.022583  -0.006871  3.861914  -0.012
C  C127  1  0.17031678  0.23076853  0.38972475  1  0.706172  -0.008981  -0.001647  -0.02258  -0.007096  3.86265  -0.012
C  C128  1  0.62041891  0.56056886  0.76914389  1  0.695534  -0.008998  -0.001759  -0.023103  -0.00712  3.861008  -0.012
C  C129  1  0.32965973  0.43999576  0.43967185  1  0.690976  0.008155  -0.002173  -0.023386  0.00751  3.864259  0.013
C  C130  1  0.12044020  0.38962537  0.44010227  1  0.703168  -0.008538  -0.001678  -0.022754  -0.006878  3.86123  -0.012
C  C131  1  0.82967575  0.76922108  0.61028592  1  0.705652  -0.008989  -0.00172  -0.022737  -0.007098  3.862232  -0.012
C  C132  1  0.37958239  0.43942626  0.23086322  1  0.695302  -0.009  -0.001791  -0.023154  -0.007121  3.860784  -0.012
C  C133  1  0.67034193  0.55999974  0.56033153  1  0.690543  0.008164  -0.002168  -0.023343  0.007514  3.863875  0.013
C  C134  1  0.69742073  0.44990337  0.71548837  1  0.72006  -0.000141  -0.001158  -0.015589  7.3e-05  3.848171  0.0
C  C135  1  0.16545581  0.25232727  0.55020083  1  0.692983  -0.000676  -0.000816  -0.014895  -0.000401  3.84669  -0.001
C  C136  1  0.80244814  0.58690865  0.74751179  1  0.719686  -8.1e-05  -0.001037  -0.015303  0.000104  3.846382  0.0
C  C137  1  0.33451982  0.28431742  0.41318176  1  0.679268  -0.000468  -0.000957  -0.015173  -8.1e-05  3.848073  0.0
C  C138  1  0.30257766  0.55008640  0.28451567  1  0.71962  -0.000142  -0.001133  -0.015633  7.3e-05  3.848027  0.0
C  C139  1  0.83453380  0.74766925  0.44980714  1  0.692833  -0.000675  -0.000736  -0.01476  -0.0004  3.846728  -0.001
C  C140  1  0.19755477  0.41309056  0.25249027  1  0.720052  -8.1e-05  -0.001069  -0.015426  0.000104  3.846518  0.0
C  C141  1  0.66547573  0.71568344  0.58681916  1  0.679182  -0.000468  -0.00082  -0.014966  -8.1e-05  3.847983  0.0
C  C142  1  0.18876806  0.66913589  0.43287484  1  0.268283  -0.00101  -0.068655  -0.05159  -0.000999  3.914836  0.001
C  C143  1  0.10203484  0.98040842  0.33088861  1  0.233626  -0.000981  -0.068709  -0.051796  -0.001016  3.914553  0.001
C  C144  1  0.31124001  0.37836972  0.01957340  1  0.271852  -0.000684  -0.068598  -0.051701  -0.000812  3.914742  0.001
C  C145  1  0.39814928  0.56715062  0.62162980  1  0.254052  0.000659  -0.069076  -0.052395  0.000895  3.913769  -0.001
C  C146  1  0.81123456  0.33086220  0.56712798  1  0.268278  -0.001009  -0.068717  -0.051847  -0.001  3.91496  0.001
C  C147  1  0.89796470  0.01959316  0.66911019  1  0.233673  -0.000982  -0.068703  -0.051748  -0.001016  3.914419  0.001
C  C148  1  0.68875792  0.62162862  0.98042660  1  0.272399  -0.000684  -0.068561  -0.051642  -0.000813  3.914637  0.001
C  C149  1  0.60185436  0.43285344  0.37836649  1  0.253847  0.000659  -0.06902  -0.052353  0.000895  3.913677  -0.001
C  C150  1  0.12735900  0.72418952  0.29192810  1  0.605871  6.4e-05  0.025556  0.047532  -0.000439  3.942739  0.002
C  C151  1  0.01611635  0.09685987  0.27583814  1  0.588792  7.8e-05  0.025545  0.047441  -0.000429  3.94269  0.002
C  C152  1  0.37265998  0.58075416  0.90315251  1  0.612861  0.00016  0.025634  0.047709  -0.000342  3.942597  0.002
C  C153  1  0.48389548  0.70806856  0.41930742  1  0.602602  -0.000159  0.025502  0.047733  0.000465  3.942315  -0.002
C  C154  1  0.87264371  0.27580868  0.70807262  1  0.606134  6.5e-05  0.02554  0.047496  -0.00044  3.942726  0.002
C  C155  1  0.98388295  0.90313901  0.72416231  1  0.588804  7.8e-05  0.025579  0.047422  -0.000428  3.942573  0.002
C  C156  1  0.62733888  0.41924511  0.09684522  1  0.612885  0.000161  0.025558  0.047665  -0.000341  3.942826  0.002
C  C157  1  0.51610729  0.29193708  0.58068901  1  0.602894  -0.00016  0.025647  0.048037  0.000465  3.942226  -0.002
C  C158  1  0.96628975  0.62165379  0.30663090  1  0.599696  0.000101  0.02459  0.05344  -0.000369  3.929308  0.002
C  C159  1  0.92825720  0.15533463  0.37835529  1  0.617659  0.000137  0.024526  0.052971  -0.000357  3.928727  0.002
C  C160  1  0.53369461  0.72709558  0.84471242  1  0.625034  0.000104  0.02466  0.053486  -0.000362  3.928962  0.002
C  C161  1  0.57156455  0.69337057  0.27293767  1  0.634259  -0.000178  0.024156  0.05281  0.00051  3.929678  -0.002
C  C162  1  0.03371441  0.37834505  0.69336815  1  0.59972  0.000101  0.024537  0.053327  -0.000369  3.929277  0.002
C  C163  1  0.07174110  0.84466407  0.62164569  1  0.617648  0.000137  0.024523  0.05297  -0.000358  3.928773  0.002
C  C164  1  0.46630452  0.27290394  0.15528840  1  0.625135  0.000104  0.024693  0.053524  -0.000361  3.928901  0.002
C  C165  1  0.42843992  0.30663431  0.72705846  1  0.634532  -0.000179  0.024193  0.052799  0.00051  3.929771  -0.002
C  C166  1  0.17278196  0.56619157  0.53397239  1  0.295018  -0.000869  -0.068286  -0.048305  -0.000943  3.89477  0.001
C  C167  1  0.10018314  0.89344740  0.43385098  1  0.271204  -0.000864  -0.068683  -0.049059  -0.000899  3.895287  0.001
C  C168  1  0.32723865  0.29323425  0.10650300  1  0.277563  -0.000837  -0.068266  -0.048709  -0.000867  3.895727  0.001
C  C169  1  0.40008321  0.46607698  0.70669251  1  0.318826  0.000869  -0.068141  -0.048353  0.001039  3.89452  -0.001
C  C170  1  0.82721936  0.43380933  0.46602871  1  0.29502  -0.00087  -0.068295  -0.048241  -0.000943  3.894809  0.001
C  C171  1  0.89981327  0.10655104  0.56614895  1  0.27119  -0.000864  -0.068709  -0.049164  -0.000899  3.895168  0.001
C  C172  1  0.67275989  0.70676715  0.89349634  1  0.277187  -0.000838  -0.068264  -0.048636  -0.000868  3.895689  0.001
C  C173  1  0.59991863  0.53392690  0.29330533  1  0.318549  0.000869  -0.068144  -0.048335  0.001038  3.894489  -0.001
C  C174  1  0.12690822  0.65394564  0.17930529  1  0.329595  4.2e-05  -0.072233  -0.0088  6e-05  3.927236  0.0
C  C175  1  0.83319639  0.02701476  0.34606817  1  0.262762  4.8e-05  -0.072074  -0.008518  5.5e-05  3.927207  0.0
C  C176  1  0.37307527  0.69381404  0.97297747  1  0.282205  4.1e-05  -0.072069  -0.008257  5.6e-05  3.92701  0.0
C  C177  1  0.66679176  0.82070065  0.30613993  1  0.30213  -4.2e-05  -0.072142  -0.008759  -3.9e-05  3.927578  0.0
C  C178  1  0.87309742  0.34605468  0.82069295  1  0.329655  4.2e-05  -0.07224  -0.008862  6e-05  3.927184  0.0
C  C179  1  0.16680344  0.97298793  0.65392987  1  0.262788  4.8e-05  -0.072113  -0.008597  5.5e-05  3.927306  0.0
C  C180  1  0.62691960  0.30617958  0.02702453  1  0.282247  4.1e-05  -0.072057  -0.008313  5.6e-05  3.927147  0.0
C  C181  1  0.33320741  0.17930057  0.69385790  1  0.301779  -4.2e-05  -0.072111  -0.008685  -3.9e-05  3.927414  0.0
C  C182  1  0.09040709  0.65193943  0.09798784  1  -0.056135  -0.000165  -0.244314  -0.376636  -0.000158  3.975074  0.0
C  C183  1  0.74984125  0.06148261  0.34808046  1  -0.073086  -0.000106  -0.244265  -0.376763  -9e-05  3.975971  0.0
C  C184  1  0.40956652  0.81163789  0.93849530  1  -0.064665  -0.000158  -0.244278  -0.376962  -0.000141  3.975806  0.0
C  C185  1  0.75011876  0.90204771  0.18833272  1  -0.085836  0.000101  -0.244324  -0.376621  8e-05  3.975972  0.0
C  C186  1  0.90959470  0.34805783  0.90201514  1  -0.055841  -0.000165  -0.244299  -0.376517  -0.000158  3.975034  0.0
C  C187  1  0.25016034  0.93852267  0.65191601  1  -0.072575  -0.000106  -0.244336  -0.376874  -9e-05  3.975993  0.0
C  C188  1  0.59042850  0.18835916  0.06150803  1  -0.064583  -0.000158  -0.244293  -0.37697  -0.000141  3.975949  0.0
C  C189  1  0.24988130  0.09795358  0.81166669  1  -0.085824  0.000101  -0.244327  -0.376637  8e-05  3.975989  0.0
N  N190  1  0.94879897  0.59612650  0.52769034  1  -1.377384  -0.055507  -0.396944  -0.378392  -0.03422  3.44651  -0.044
N  N191  1  0.12380640  0.14735805  0.40386309  1  -1.384424  -0.054879  -0.397006  -0.378493  -0.033896  3.447217  -0.044
N  N192  1  0.55133343  0.52371870  0.85266169  1  -1.371956  -0.057533  -0.396733  -0.377708  -0.035344  3.446163  -0.046
N  N193  1  0.37581820  0.47219933  0.47693842  1  -1.366805  0.051943  -0.396952  -0.378728  0.033919  3.445126  0.042
N  N194  1  0.05119338  0.40387198  0.47230996  1  -1.377263  -0.055514  -0.396895  -0.378318  -0.034221  3.445628  -0.044
N  N195  1  0.87619622  0.85264907  0.59613457  1  -1.384044  -0.054874  -0.396936  -0.37844  -0.033897  3.446606  -0.044
N  N196  1  0.44866769  0.47628528  0.14733506  1  -1.371851  -0.057538  -0.396741  -0.377648  -0.035344  3.445895  -0.046
N  N197  1  0.62417764  0.52779774  0.52305918  1  -1.366239  0.051945  -0.397014  -0.378894  0.033923  3.444908  0.042
N  N198  1  0.66933151  0.35496414  0.76217713  1  -1.338297  -0.002221  -0.375786  -0.379487  -0.001173  2.936451  -0.001
N  N199  1  0.11711420  0.18549771  0.64511879  1  -1.312252  0.000564  -0.376022  -0.379926  0.000456  2.93563  0.001
N  N200  1  0.83048330  0.56838023  0.81438914  1  -1.337696  0.000522  -0.375567  -0.379296  0.000395  2.935262  0.001
N  N201  1  0.38279523  0.23764322  0.43169072  1  -1.296816  7.2e-05  -0.376042  -0.380017  2.8e-05  2.936378  0.0
N  N202  1  0.33066177  0.64502705  0.23783165  1  -1.337896  -0.002221  -0.375864  -0.379474  -0.001173  2.936084  -0.001
N  N203  1  0.88288287  0.81450710  0.35488861  1  -1.312017  0.000565  -0.376119  -0.380045  0.000457  2.935692  0.001
N  N204  1  0.16951835  0.43161034  0.18561640  1  -1.338039  0.000521  -0.375529  -0.379188  0.000395  2.935329  0.001
N  N205  1  0.61720551  0.76236038  0.56830976  1  -1.296748  7.1e-05  -0.376172  -0.380196  2.8e-05  2.936501  0.0
N  N206  1  0.13930076  0.63662975  0.37624314  1  -1.04267  -0.086593  -0.489899  -0.335376  -0.052424  3.500808  -0.076
N  N207  1  0.01286737  0.99734932  0.36339185  1  -1.018237  -0.086674  -0.489902  -0.335422  -0.052444  3.500488  -0.076
N  N208  1  0.36069512  0.48446813  0.00264127  1  -1.026445  -0.086685  -0.48999  -0.335315  -0.05248  3.500916  -0.076
N  N209  1  0.48724393  0.62378422  0.51549358  1  -1.040813  0.086278  -0.489847  -0.334837  0.054814  3.499621  0.075
N  N210  1  0.86070195  0.36336845  0.62375758  1  -1.042814  -0.0866  -0.489923  -0.335328  -0.052426  3.500868  -0.076
N  N211  1  0.98713198  0.00265207  0.63660646  1  -1.018178  -0.086678  -0.489835  -0.335319  -0.052446  3.500424  -0.076
N  N212  1  0.63930176  0.51553161  0.99735838  1  -1.026746  -0.086687  -0.489953  -0.335411  -0.052481  3.501004  -0.076
N  N213  1  0.51276172  0.37622103  0.48450251  1  -1.040758  0.086279  -0.489882  -0.334986  0.054815  3.499826  0.076
N  N214  1  0.07428035  0.68834516  0.24178806  1  -1.057786  -0.001433  -0.344469  -0.187004  -0.000519  3.548404  -0.001
N  N215  1  0.93009722  0.11405188  0.31167573  1  -1.07939  -0.001425  -0.344726  -0.186933  -0.000521  3.548323  -0.001
N  N216  1  0.42571516  0.68395457  0.88596613  1  -1.091542  -0.00137  -0.344665  -0.187144  -0.0005  3.548171  -0.001
N  N217  1  0.56982959  0.75824381  0.31604714  1  -1.067335  0.001369  -0.344186  -0.186667  0.000545  3.548211  0.001
N  N218  1  0.92572109  0.31165257  0.75821481  1  -1.057977  -0.001434  -0.344422  -0.186894  -0.00052  3.548298  -0.001
N  N219  1  0.06990449  0.88595023  0.68832250  1  -1.079457  -0.001425  -0.344675  -0.186827  -0.000521  3.548288  -0.001
N  N220  1  0.57428405  0.31604423  0.11403172  1  -1.091601  -0.00137  -0.344647  -0.187086  -0.000499  3.54828  -0.001
N  N221  1  0.43017228  0.24176176  0.68394771  1  -1.067082  0.001368  -0.344318  -0.186826  0.000545  3.548348  0.001
N  N222  1  0.06352714  0.49278358  0.60481085  1  -1.064957  -0.085575  -0.48621  -0.326733  -0.05181  3.522676  -0.075
N  N223  1  0.09764801  0.92932151  0.50720978  1  -1.050746  -0.08554  -0.486369  -0.326674  -0.051781  3.522516  -0.075
N  N224  1  0.43649117  0.33165185  0.07066264  1  -1.036213  -0.085553  -0.486445  -0.326644  -0.051835  3.522948  -0.075
N  N225  1  0.40256842  0.39521154  0.66833199  1  -1.04758  0.085163  -0.486638  -0.327154  0.054155  3.523567  0.074
N  N226  1  0.93647285  0.50721353  0.39518897  1  -1.065056  -0.085581  -0.486205  -0.326703  -0.051813  3.522796  -0.075
N  N227  1  0.90234895  0.07067748  0.49279161  1  -1.050918  -0.08554  -0.486418  -0.32668  -0.051781  3.522581  -0.075
N  N228  1  0.56350616  0.66834750  0.92933972  1  -1.036101  -0.085555  -0.486396  -0.32666  -0.051836  3.522966  -0.075
N  N229  1  0.59743507  0.60479399  0.33166553  1  -1.048154  0.085164  -0.486593  -0.327139  0.054156  3.523566  0.074
