# generated using pymatgen
data_LaH10C9N3O8
_symmetry_space_group_name_H-M   'P 1'
_cell_length_a   8.76559389
_cell_length_b   9.26181425
_cell_length_c   9.69384784
_cell_angle_alpha   67.97815993
_cell_angle_beta   83.62052627
_cell_angle_gamma   79.85255708
_symmetry_Int_Tables_number   1
_chemical_formula_structural   LaH10C9N3O8
_chemical_formula_sum   'La2 H20 C18 N6 O16'
_cell_volume   717.29128077
_cell_formula_units_Z   2
loop_
 _symmetry_equiv_pos_site_id
 _symmetry_equiv_pos_as_xyz
  1  'x, y, z'
loop_
 _atom_site_type_symbol
 _atom_site_label
 _atom_site_symmetry_multiplicity
 _atom_site_fract_x
 _atom_site_fract_y
 _atom_site_fract_z
 _atom_site_occupancy
 _atom_site_hle17_bader_spin_density
 _atom_site_hle17_ddec_charge
 _atom_site_hle17_ddec_spin_density
 _atom_site_hle17_ddec_sum_bond_order
 _atom_site_hle17_magmom
 _atom_site_hse06_10hf_bader_spin_density
 _atom_site_hse06_10hf_ddec_charge
 _atom_site_hse06_10hf_ddec_spin_density
 _atom_site_hse06_10hf_ddec_sum_bond_order
 _atom_site_hse06_10hf_magmom
 _atom_site_hse06_bader_spin_density
 _atom_site_hse06_ddec_charge
 _atom_site_hse06_ddec_spin_density
 _atom_site_hse06_ddec_sum_bond_order
 _atom_site_hse06_magmom
 _atom_site_pbe_bader_spin_density
 _atom_site_pbe_cm5_charge
 _atom_site_pbe_ddec_charge
 _atom_site_pbe_ddec_spin_density
 _atom_site_pbe_ddec_sum_bond_order
 _atom_site_pbe_magmom
La  La0  1  0.53391421  0.25373791  0.47766186  1  0  2.17016  0  1.729575  0  0  2.045954  0  2.252463  0  0  2.149221  0  2.14732  0  0  1.401252  1.966762  0  2.329571  0
La  La1  1  0.46608641  0.74625946  0.52233260  1  0  2.170193  0  1.729721  0  0  2.045992  0  2.252636  0  0  2.149267  0  2.147482  0  0  1.401223  1.966788  0  2.329737  0
H  H2  1  0.81959633  0.74344639  0.26106745  1  0  0.162946  0  0.938408  0  0  0.169103  0  1.004666  0  0  0.172096  0  1.003201  0  0  0.129945  0.166928  0  1.005758  0
H  H3  1  0.18041201  0.25655322  0.73893061  1  0  0.162958  0  0.938409  0  0  0.169067  0  1.004659  0  0  0.172075  0  1.003199  0  0  0.129955  0.166891  0  1.005761  0
H  H4  1  0.91606108  0.62930030  0.42279198  1  0  0.16057  0  0.895932  0  0  0.173799  0  0.949174  0  0  0.176603  0  0.947599  0  0  0.131996  0.171721  0  0.950477  0
H  H5  1  0.08395807  0.37068740  0.57719486  1  0  0.160547  0  0.895991  0  0  0.17372  0  0.949242  0  0  0.176539  0  0.947678  0  0  0.132003  0.171644  0  0.950543  0
H  H6  1  0.60958341  0.18259150  0.97784428  1  0  0.150332  0  0.935304  0  0  0.159826  0  0.997816  0  0  0.1635  0  0.994479  0  0  0.122125  0.15709  0  1.000682  0
H  H7  1  0.39041727  0.81741410  0.02215342  1  0  0.150296  0  0.935302  0  0  0.159831  0  0.997828  0  0  0.163504  0  0.994484  0  0  0.122118  0.157094  0  1.000689  0
H  H8  1  0.79958468  0.11690848  0.04418184  1  0  0.152767  0  0.909121  0  0  0.16361  0  0.966636  0  0  0.166076  0  0.965671  0  0  0.123286  0.161875  0  0.967593  0
H  H9  1  0.20042191  0.88307823  0.95581998  1  0  0.152718  0  0.909037  0  0  0.163582  0  0.966607  0  0  0.166057  0  0.965634  0  0  0.123276  0.161844  0  0.967564  0
H  H10  1  0.88288600  0.74042811  0.81776850  1  0  0.165129  0  0.911625  0  0  0.174443  0  0.970602  0  0  0.177601  0  0.968376  0  0  0.1271  0.172272  0  0.972295  0
H  H11  1  0.11709643  0.25956719  0.18224909  1  0  0.165247  0  0.911438  0  0  0.174417  0  0.970558  0  0  0.177577  0  0.968331  0  0  0.127137  0.172252  0  0.972247  0
H  H12  1  0.01828990  0.77034882  0.66461485  1  0  0.178891  0  0.938776  0  0  0.186462  0  0.998793  0  0  0.191258  0  0.995423  0  0  0.127784  0.183154  0  1.001316  0
H  H13  1  0.98170134  0.22964049  0.33540611  1  0  0.178909  0  0.938834  0  0  0.186413  0  0.998928  0  0  0.191228  0  0.995533  0  0  0.127802  0.183105  0  1.001452  0
H  H14  1  0.77597822  0.21024158  0.72192360  1  0  0.424654  0  0.872564  0  0  0.395648  0  0.934583  0  0  0.404622  0  0.921824  0  0  0.305013  0.389045  0  0.944072  0
H  H15  1  0.22401248  0.78975242  0.27808128  1  0  0.4246  0  0.87263  0  0  0.395592  0  0.934654  0  0  0.404566  0  0.921895  0  0  0.304956  0.388991  0  0.944139  0
H  H16  1  0.63231148  0.34101808  0.73414647  1  0  0.44131  0  0.855012  0  0  0.413435  0  0.913506  0  0  0.423425  0  0.899169  0  0  0.307145  0.405867  0  0.924448  0
H  H17  1  0.36767694  0.65897595  0.26585346  1  0  0.441379  0  0.85496  0  0  0.413541  0  0.913367  0  0  0.423522  0  0.899047  0  0  0.307192  0.405966  0  0.924321  0
H  H18  1  0.51056678  0.46012911  0.15027987  1  0  0.441385  0  0.805513  0  0  0.422206  0  0.860048  0  0  0.431311  0  0.849947  0  0  0.333244  0.4153  0  0.867941  0
H  H19  1  0.48943882  0.53990932  0.84970455  1  0  0.441405  0  0.805669  0  0  0.422218  0  0.860195  0  0  0.431327  0  0.850085  0  0  0.333227  0.41531  0  0.868089  0
H  H20  1  0.33017914  0.48183196  0.19170315  1  0  0.434669  0  0.857476  0  0  0.402539  0  0.923328  0  0  0.413542  0  0.907087  0  0  0.30885  0.394615  0  0.935103  0
H  H21  1  0.66982399  0.51816419  0.80828118  1  0  0.434703  0  0.857453  0  0  0.402545  0  0.923356  0  0  0.413549  0  0.907112  0  0  0.308808  0.39462  0  0.935132  0
C  C22  1  0.75835997  0.51109110  0.36430159  1  0  0.740546  0  3.855895  0  0  0.695524  0  4.153952  0  0  0.729962  0  4.148881  0  0  0.230559  0.671451  0  4.156558  0
C  C23  1  0.24165207  0.48890727  0.63567593  1  0  0.740755  0  3.855416  0  0  0.695711  0  4.15341  0  0  0.730173  0  4.148327  0  0  0.23054  0.671632  0  4.156022  0
C  C24  1  0.87817666  0.62406701  0.32032487  1  0  -0.348035  0  3.742438  0  0  -0.377497  0  3.973896  0  0  -0.38332  0  3.975758  0  0  -0.127526  -0.373145  0  3.972703  0
C  C25  1  0.12183091  0.37593025  0.67966070  1  0  -0.347998  0  3.742214  0  0  -0.377294  0  3.973532  0  0  -0.383201  0  3.9755  0  0  -0.127432  -0.372936  0  3.972341  0
C  C26  1  0.01135672  0.58673533  0.23107299  1  0  0.410455  0  3.665653  0  0  0.388074  0  3.949368  0  0  0.401018  0  3.963399  0  0  0.214995  0.379002  0  3.940547  0
C  C27  1  0.98864146  0.41327264  0.76890037  1  0  0.410321  0  3.665441  0  0  0.387862  0  3.949158  0  0  0.400832  0  3.963211  0  0  0.214993  0.378782  0  3.94034  0
C  C28  1  0.61513413  0.06783335  0.21581811  1  0  0.774855  0  3.825981  0  0  0.731377  0  4.127303  0  0  0.766891  0  4.119604  0  0  0.243986  0.706608  0  4.131254  0
C  C29  1  0.38486541  0.93218051  0.78419015  1  0  0.774551  0  3.826099  0  0  0.731249  0  4.127259  0  0  0.766765  0  4.119559  0  0  0.243974  0.706477  0  4.131209  0
C  C30  1  0.68228238  0.08490120  0.05769722  1  0  -0.344121  0  3.731625  0  0  -0.376829  0  3.958799  0  0  -0.382711  0  3.961032  0  0  -0.135352  -0.372586  0  3.957515  0
C  C31  1  0.31771689  0.91509738  0.94230828  1  0  -0.343704  0  3.731039  0  0  -0.376708  0  3.958612  0  0  -0.382597  0  3.960843  0  0  -0.135313  -0.372458  0  3.957317  0
C  C32  1  0.68772172  0.94388027  0.02455344  1  0  0.378486  0  3.689403  0  0  0.363664  0  3.973151  0  0  0.376177  0  3.988652  0  0  0.198403  0.354833  0  3.963151  0
C  C33  1  0.31226813  0.05612902  0.97544707  1  0  0.378148  0  3.689881  0  0  0.363401  0  3.973674  0  0  0.375913  0  3.989173  0  0  0.198282  0.354572  0  3.963671  0
C  C34  1  0.77876242  0.87419187  0.60772153  1  0  0.779544  0  3.810919  0  0  0.736047  0  4.110302  0  0  0.771906  0  4.10272  0  0  0.247839  0.710956  0  4.114675  0
C  C35  1  0.22123213  0.12583380  0.39228503  1  0  0.779357  0  3.810979  0  0  0.735901  0  4.110279  0  0  0.771762  0  4.102696  0  0  0.247734  0.710814  0  4.114667  0
C  C36  1  0.91532587  0.82856455  0.71022907  1  0  -0.368549  0  3.717676  0  0  -0.396213  0  3.941039  0  0  -0.40416  0  3.942928  0  0  -0.133837  -0.390624  0  3.93965  0
C  C37  1  0.08466606  0.17142827  0.28979261  1  0  -0.368502  0  3.718146  0  0  -0.396007  0  3.941555  0  0  -0.40397  0  3.943441  0  0  -0.133825  -0.390419  0  3.940174  0
C  C38  1  0.95272619  0.96146800  0.73608999  1  0  0.422057  0  3.670751  0  0  0.402402  0  3.945895  0  0  0.41728  0  3.959739  0  0  0.218562  0.39222  0  3.936426  0
C  C39  1  0.04727926  0.03853521  0.26393699  1  0  0.422087  0  3.670475  0  0  0.402466  0  3.945524  0  0  0.417351  0  3.959369  0  0  0.218612  0.392281  0  3.936066  0
N  N40  1  0.11963390  0.55661800  0.16024952  1  0  -0.44975  0  2.630398  0  0  -0.419753  0  2.8553  0  0  -0.431455  0  2.863319  0  0  -0.30643  -0.412114  0  2.850902  0
N  N41  1  0.88037051  0.44338635  0.83971937  1  0  -0.449741  0  2.630478  0  0  -0.419706  0  2.855416  0  0  -0.431407  0  2.863429  0  0  -0.306539  -0.412062  0  2.851019  0
N  N42  1  0.68990919  0.82884714  0.00117547  1  0  -0.438512  0  2.553303  0  0  -0.414513  0  2.767351  0  0  -0.42608  0  2.778881  0  0  -0.315578  -0.406533  0  2.759828  0
N  N43  1  0.31006723  0.17114235  0.99881900  1  0  -0.438308  0  2.554122  0  0  -0.414276  0  2.768097  0  0  -0.425843  0  2.779626  0  0  -0.315472  -0.406302  0  2.760571  0
N  N44  1  0.97555658  0.07133680  0.75773465  1  0  -0.476984  0  2.626683  0  0  -0.445687  0  2.853388  0  0  -0.459136  0  2.863259  0  0  -0.316694  -0.436512  0  2.847222  0
N  N45  1  0.02444376  0.92864415  0.24229357  1  0  -0.477076  0  2.625938  0  0  -0.445805  0  2.852617  0  0  -0.459262  0  2.862503  0  0  -0.316759  -0.436626  0  2.846455  0
O  O46  1  0.72956123  0.76082465  0.59289814  1  0  -0.694615  0  1.989028  0  0  -0.651982  0  2.243186  0  0  -0.68591  0  2.235953  0  0  -0.369811  -0.627303  0  2.247826  0
O  O47  1  0.27042204  0.23919062  0.40711531  1  0  -0.694488  0  1.989486  0  0  -0.651861  0  2.243596  0  0  -0.68578  0  2.236359  0  0  -0.369724  -0.627189  0  2.248248  0
O  O48  1  0.72587091  0.01876197  0.54733073  1  0  -0.720677  0  2.020616  0  0  -0.674903  0  2.281654  0  0  -0.709876  0  2.27305  0  0  -0.389304  -0.649295  0  2.287412  0
O  O49  1  0.27415184  0.98124098  0.45268332  1  0  -0.720702  0  2.020178  0  0  -0.67494  0  2.281217  0  0  -0.709929  0  2.272631  0  0  -0.389253  -0.64929  0  2.2869  0
O  O50  1  0.63111168  0.55507965  0.42431689  1  0  -0.734512  0  2.057898  0  0  -0.682657  0  2.32133  0  0  -0.720513  0  2.315439  0  0  -0.39108  -0.65461  0  2.324001  0
O  O51  1  0.36889875  0.44491288  0.57568144  1  0  -0.734529  0  2.05805  0  0  -0.682696  0  2.321502  0  0  -0.720545  0  2.315592  0  0  -0.39104  -0.654653  0  2.32418  0
O  O52  1  0.59256796  0.19341466  0.24339307  1  0  -0.71161  0  1.983579  0  0  -0.670096  0  2.235657  0  0  -0.702939  0  2.225293  0  0  -0.376758  -0.645995  0  2.242778  0
O  O53  1  0.40743158  0.80657332  0.75660691  1  0  -0.711768  0  1.982743  0  0  -0.670272  0  2.234745  0  0  -0.70312  0  2.224382  0  0  -0.376958  -0.646167  0  2.241861  0
O  O54  1  0.78532207  0.38179744  0.34441617  1  0  -0.652941  0  1.946755  0  0  -0.605368  0  2.175361  0  0  -0.635404  0  2.167485  0  0  -0.334382  -0.58423  0  2.181016  0
O  O55  1  0.21468878  0.61820095  0.65557074  1  0  -0.653024  0  1.946431  0  0  -0.605476  0  2.175068  0  0  -0.635507  0  2.167174  0  0  -0.334429  -0.584337  0  2.180722  0
O  O56  1  0.58864431  0.93353432  0.30399268  1  0  -0.711351  0  2.045715  0  0  -0.667711  0  2.31058  0  0  -0.701691  0  2.302506  0  0  -0.375929  -0.641894  0  2.315294  0
O  O57  1  0.41136172  0.06644771  0.69601500  1  0  -0.711074  0  2.04649  0  0  -0.667451  0  2.311244  0  0  -0.701424  0  2.303164  0  0  -0.375737  -0.641638  0  2.31596  0
O  O58  1  0.66937029  0.25728678  0.69338748  1  0  -0.889687  0  1.884011  0  0  -0.844872  0  2.073002  0  0  -0.870304  0  2.04435  0  0  -0.629978  -0.826055  0  2.094589  0
O  O59  1  0.33062989  0.74271412  0.30660266  1  0  -0.889751  0  1.884051  0  0  -0.844947  0  2.073063  0  0  -0.87037  0  2.044414  0  0  -0.630004  -0.826133  0  2.094644  0
O  O60  1  0.43317874  0.49185407  0.21799163  1  0  -0.847415  0  1.883781  0  0  -0.796023  0  2.061515  0  0  -0.818987  0  2.033695  0  0  -0.569392  -0.7788  0  2.082232  0
O  O61  1  0.56681526  0.50814106  0.78201046  1  0  -0.847503  0  1.883846  0  0  -0.796078  0  2.061602  0  0  -0.819055  0  2.033776  0  0  -0.569379  -0.778855  0  2.082321  0
