# generated using pymatgen
data_Zn2H32C43(NO6)2
_symmetry_space_group_name_H-M   'P 1'
_cell_length_a   13.93114530
_cell_length_b   13.93108688
_cell_length_c   31.12872331
_cell_angle_alpha   84.90974449
_cell_angle_beta   84.90971122
_cell_angle_gamma   88.91807174
_symmetry_Int_Tables_number   1
_chemical_formula_structural   Zn2H32C43(NO6)2
_chemical_formula_sum   'Zn8 H128 C172 N8 O48'
_cell_volume   5993.41051644
_cell_formula_units_Z   4
loop_
 _symmetry_equiv_pos_site_id
 _symmetry_equiv_pos_as_xyz
  1  'x, y, z'
loop_
 _atom_site_type_symbol
 _atom_site_label
 _atom_site_symmetry_multiplicity
 _atom_site_fract_x
 _atom_site_fract_y
 _atom_site_fract_z
 _atom_site_occupancy
 _atom_site_pbe_bader_charge
 _atom_site_pbe_bader_spin_density
 _atom_site_pbe_cm5_charge
 _atom_site_pbe_ddec_charge
 _atom_site_pbe_ddec_spin_density
 _atom_site_pbe_ddec_sum_bond_order
 _atom_site_pbe_magmom
Zn  Zn0  1  0.80533079  0.39503485  0.46932019  1  1.292464  0  0.670263  0.82906  0  2.391054  0
Zn  Zn1  1  0.80395219  0.19141203  0.48515900  1  1.288584  0  0.665865  0.82383  0  2.41247  0
Zn  Zn2  1  0.39503418  0.80532904  0.96931880  1  1.292366  0  0.670287  0.829053  0  2.391019  0
Zn  Zn3  1  0.19141107  0.80395229  0.98515856  1  1.288613  0  0.665864  0.823835  0  2.412456  0
Zn  Zn4  1  0.60496445  0.19466970  0.03067895  1  1.292351  0  0.670305  0.829135  0  2.390897  0
Zn  Zn5  1  0.80858901  0.19604859  0.01484098  1  1.288511  0  0.665848  0.823848  0  2.41246  0
Zn  Zn6  1  0.19467072  0.60496456  0.53068128  1  1.292363  0  0.670327  0.829161  0  2.390885  0
Zn  Zn7  1  0.19604860  0.80858739  0.51484153  1  1.288535  0  0.66587  0.823863  0  2.412472  0
H  H8  1  0.31583435  0.16268398  0.28502224  1  0.062806  0  0.107269  0.078618  0  0.978748  0
H  H9  1  0.21791097  0.19059816  0.25219870  1  0.063387  0  0.106558  0.077361  0  0.987199  0
H  H10  1  0.18755218  0.44304038  0.32620999  1  0.109532  0  0.107505  0.122564  0  0.986639  0
H  H11  1  0.05558540  0.43515458  0.38650533  1  0.11017  0  0.101835  0.102509  0  1.04817  0
H  H12  1  0.04470788  0.12856949  0.38503192  1  0.073936  0  0.104547  0.109478  0  0.994449  0
H  H13  1  0.17507060  0.13385515  0.32492199  1  0.044293  0  0.10285  0.113907  0  1.018987  0
H  H14  1  0.43379793  0.18762361  0.17234818  1  0.080728  0  0.110809  0.085437  0  0.991793  0
H  H15  1  0.42068123  0.10887740  0.22118559  1  0.084151  0  0.108222  0.084056  0  0.966923  0
H  H16  1  0.45564754  0.05428134  0.14344790  1  0.058725  0  0.10588  0.119534  0  1.021489  0
H  H17  1  0.44553406  0.96066206  0.07991805  1  0.081861  0  0.104176  0.102792  0  1.027997  0
H  H18  1  0.13749236  0.98298734  0.09278711  1  0.098471  0  0.102754  0.106471  0  1.001116  0
H  H19  1  0.14532040  0.07944988  0.15687124  1  0.075217  0  0.105223  0.119711  0  0.990639  0
H  H20  1  0.24376576  0.30179350  0.18520337  1  0.07051  0  0.105028  0.074756  0  0.9819  0
H  H21  1  0.29089293  0.39437553  0.21350202  1  0.061916  0  0.106236  0.077994  0  0.979078  0
H  H22  1  0.20698897  0.45315255  0.15492838  1  0.030938  0  0.098159  0.107509  0  1.029017  0
H  H23  1  0.17787192  0.58156269  0.09644331  1  0.09443  0  0.103443  0.108891  0  0.994941  0
H  H24  1  0.46405141  0.54153978  0.03751841  1  0.120782  0  0.108137  0.115881  0  0.992092  0
H  H25  1  0.49491835  0.41073799  0.09498800  1  0.101279  0  0.10734  0.127092  0  1.018972  0
H  H26  1  0.42033244  0.35517540  0.26184934  1  0.079  0  0.107056  0.076496  0  1.000983  0
H  H27  1  0.49815448  0.31800880  0.21710774  1  0.065547  0  0.10545  0.080854  0  1.011299  0
H  H28  1  0.55105295  0.09432944  0.32515069  1  0.080669  0  0.103394  0.115889  0  0.994209  0
H  H29  1  0.64821574  0.12564622  0.38645528  1  0.083887  0  0.10041  0.098521  0  1.021129  0
H  H30  1  0.63982182  0.42849540  0.34809088  1  0.063791  0  0.099614  0.095467  0  1.048922  0
H  H31  1  0.54311010  0.39948656  0.28756070  1  0.039842  0  0.098119  0.104156  0  1.039523  0
H  H32  1  0.87921612  0.52693510  0.52725521  1  0.140888  0  0.123039  0.101566  0  1.015081  0
H  H33  1  0.87583037  0.70313733  0.53653337  1  0.083078  0  0.109002  0.114806  0  1.0341  0
H  H34  1  0.73505491  0.74596824  0.41763537  1  0.067845  0  0.108462  0.111826  0  1.00872  0
H  H35  1  0.74419264  0.56828773  0.41393608  1  0.100127  0  0.121196  0.092635  0  1.016377  0
H  H36  1  0.67131724  0.04965823  0.45701048  1  0.110989  0  0.125755  0.100489  0  0.988469  0
H  H37  1  0.66803570  0.87142459  0.45110478  1  0.091867  0  0.113565  0.120845  0  0.996778  0
H  H38  1  0.93424474  0.84958456  0.51386780  1  0.127446  0  0.11279  0.128748  0  1.025044  0
H  H39  1  0.92107235  0.02716613  0.51961966  1  0.096134  0  0.123729  0.096289  0  1.001869  0
H  H40  1  0.16268449  0.31583362  0.78502264  1  0.06277  0  0.107234  0.078565  0  0.978677  0
H  H41  1  0.19059659  0.21791077  0.75219817  1  0.063358  0  0.106487  0.07724  0  0.987138  0
H  H42  1  0.44304019  0.18755296  0.82621124  1  0.109411  0  0.10749  0.122563  0  0.98666  0
H  H43  1  0.43515183  0.05558510  0.88650637  1  0.110166  0  0.10183  0.102484  0  1.048126  0
H  H44  1  0.12856942  0.04470853  0.88503064  1  0.07395  0  0.104538  0.109478  0  0.994419  0
H  H45  1  0.13385637  0.17507188  0.82492226  1  0.044305  0  0.102838  0.113884  0  1.019045  0
H  H46  1  0.18762426  0.43379969  0.67234882  1  0.080728  0  0.110787  0.085448  0  0.9918  0
H  H47  1  0.10887704  0.42067911  0.72118580  1  0.084158  0  0.108187  0.083993  0  0.966974  0
H  H48  1  0.05428267  0.45564931  0.64344855  1  0.058643  0  0.105904  0.119547  0  1.021504  0
H  H49  1  0.96066115  0.44553635  0.57991921  1  0.08146  0  0.104163  0.102774  0  1.027887  0
H  H50  1  0.98298207  0.13749326  0.59278875  1  0.09833  0  0.1028  0.106535  0  1.001118  0
H  H51  1  0.07944714  0.14532144  0.65687200  1  0.075233  0  0.105214  0.119718  0  0.990617  0
H  H52  1  0.30179212  0.24376149  0.68520427  1  0.070257  0  0.105029  0.074768  0  0.981884  0
H  H53  1  0.39437642  0.29089274  0.71350168  1  0.06191  0  0.106183  0.077916  0  0.979018  0
H  H54  1  0.45314960  0.20698710  0.65492824  1  0.030796  0  0.09813  0.107487  0  1.029003  0
H  H55  1  0.58156242  0.17787026  0.59644399  1  0.094403  0  0.103447  0.108927  0  0.99492  0
H  H56  1  0.54154465  0.46405183  0.53751951  1  0.12073  0  0.10811  0.115805  0  0.992119  0
H  H57  1  0.41074078  0.49491894  0.59498792  1  0.101316  0  0.107345  0.127083  0  1.018939  0
H  H58  1  0.35517292  0.42033370  0.76185009  1  0.079023  0  0.107064  0.076504  0  1.000979  0
H  H59  1  0.31800839  0.49815627  0.71710744  1  0.065544  0  0.105456  0.08085  0  1.01131  0
H  H60  1  0.09432990  0.55105593  0.82515101  1  0.080557  0  0.103401  0.115915  0  0.994208  0
H  H61  1  0.12564965  0.64821626  0.88645624  1  0.083928  0  0.100353  0.098421  0  1.021213  0
H  H62  1  0.42849547  0.63982360  0.84808896  1  0.0638  0  0.099617  0.095474  0  1.048935  0
H  H63  1  0.39948579  0.54310951  0.78755826  1  0.039806  0  0.098131  0.104151  0  1.039482  0
H  H64  1  0.52693240  0.87921351  0.02725482  1  0.140785  0  0.123041  0.101582  0  1.014982  0
H  H65  1  0.70313406  0.87583022  0.03653318  1  0.083089  0  0.109012  0.114766  0  1.034081  0
H  H66  1  0.74596840  0.73505905  0.91763395  1  0.067854  0  0.108423  0.111806  0  1.008818  0
H  H67  1  0.56828803  0.74419451  0.91393446  1  0.100503  0  0.121205  0.092644  0  1.016386  0
H  H68  1  0.04965628  0.67131919  0.95700744  1  0.111004  0  0.125756  0.100511  0  0.988461  0
H  H69  1  0.87142328  0.66803748  0.95110283  1  0.092277  0  0.113591  0.120861  0  0.996736  0
H  H70  1  0.84958546  0.93424650  0.01386767  1  0.127522  0  0.112803  0.128742  0  1.024993  0
H  H71  1  0.02716719  0.92107219  0.01961881  1  0.096156  0  0.123743  0.096313  0  1.00188  0
H  H72  1  0.83731918  0.68416576  0.21497843  1  0.062762  0  0.107285  0.078614  0  0.978736  0
H  H73  1  0.80940349  0.78209010  0.24780137  1  0.06334  0  0.106538  0.077324  0  0.987231  0
H  H74  1  0.55696276  0.81244643  0.17378793  1  0.109567  0  0.10751  0.122637  0  0.986655  0
H  H75  1  0.56485039  0.94441070  0.11349200  1  0.110141  0  0.101862  0.102532  0  1.048157  0
H  H76  1  0.87143210  0.95529449  0.11496812  1  0.073901  0  0.104517  0.109446  0  0.994458  0
H  H77  1  0.86614661  0.82493255  0.17507702  1  0.044227  0  0.102863  0.11392  0  1.019041  0
H  H78  1  0.81237654  0.56620117  0.32765166  1  0.080726  0  0.110802  0.085447  0  0.991796  0
H  H79  1  0.89112302  0.57931744  0.27881424  1  0.084139  0  0.108179  0.084011  0  0.966931  0
H  H80  1  0.94571884  0.54435010  0.35655260  1  0.058531  0  0.1059  0.119546  0  1.021453  0
H  H81  1  0.03933531  0.55446313  0.42008375  1  0.081959  0  0.104271  0.102874  0  1.027832  0
H  H82  1  0.01701224  0.86250626  0.40721397  1  0.098446  0  0.102714  0.106436  0  1.001162  0
H  H83  1  0.92055077  0.85468019  0.34312920  1  0.075238  0  0.105208  0.119712  0  0.990601  0
H  H84  1  0.69820867  0.75623721  0.31479630  1  0.070434  0  0.105025  0.074708  0  0.981928  0
H  H85  1  0.60562582  0.70910738  0.28649909  1  0.062084  0  0.106213  0.077964  0  0.979019  0
H  H86  1  0.54684975  0.79301306  0.34507393  1  0.030862  0  0.098165  0.107519  0  1.029016  0
H  H87  1  0.41843764  0.82212773  0.40355888  1  0.09443  0  0.103396  0.108797  0  0.995004  0
H  H88  1  0.45846190  0.53594607  0.46248182  1  0.120755  0  0.108122  0.11585  0  0.992148  0
H  H89  1  0.58926361  0.50507971  0.40501250  1  0.101283  0  0.107363  0.127129  0  1.018895  0
H  H90  1  0.64482644  0.57966790  0.23815042  1  0.079038  0  0.107062  0.076512  0  1.000872  0
H  H91  1  0.68199601  0.50184382  0.28289164  1  0.065557  0  0.105476  0.080865  0  1.011315  0
H  H92  1  0.90566732  0.44894931  0.17484847  1  0.080592  0  0.1034  0.115894  0  0.994243  0
H  H93  1  0.87435189  0.35179036  0.11354398  1  0.083872  0  0.100383  0.098498  0  1.021268  0
H  H94  1  0.57150463  0.36018088  0.15190883  1  0.064242  0  0.099608  0.095459  0  1.048998  0
H  H95  1  0.60051285  0.45689139  0.21243974  1  0.039795  0  0.098124  0.104142  0  1.039519  0
H  H96  1  0.47306406  0.12078309  0.97274536  1  0.140912  0  0.123004  0.101518  0  1.015046  0
H  H97  1  0.29686169  0.12416928  0.96346690  1  0.08308  0  0.108991  0.114741  0  1.034115  0
H  H98  1  0.25403025  0.26494473  0.08236489  1  0.067868  0  0.108448  0.111835  0  1.008687  0
H  H99  1  0.43170916  0.25580569  0.08606458  1  0.100497  0  0.121214  0.092654  0  1.016422  0
H  H100  1  0.95034381  0.32868241  0.04298951  1  0.110998  0  0.125736  0.100464  0  0.988494  0
H  H101  1  0.12857608  0.33196557  0.04889505  1  0.091851  0  0.113568  0.120843  0  0.996796  0
H  H102  1  0.15041534  0.06575436  0.98613216  1  0.127423  0  0.112785  0.128707  0  1.025058  0
H  H103  1  0.97283360  0.07892508  0.98038084  1  0.09611  0  0.123714  0.096266  0  1.001876  0
H  H104  1  0.68416573  0.83731834  0.71497789  1  0.062763  0  0.107249  0.078566  0  0.978781  0
H  H105  1  0.78208982  0.80940054  0.74780090  1  0.063608  0  0.106573  0.077368  0  0.987191  0
H  H106  1  0.81244502  0.55696126  0.67378835  1  0.109525  0  0.10751  0.122613  0  0.986622  0
H  H107  1  0.94441252  0.56484777  0.61349296  1  0.110158  0  0.10183  0.102502  0  1.048178  0
H  H108  1  0.95529292  0.87143137  0.61496855  1  0.073922  0  0.104522  0.109445  0  0.994467  0
H  H109  1  0.82493020  0.86614572  0.67507720  1  0.044237  0  0.102836  0.113892  0  1.01903  0
H  H110  1  0.56619998  0.81237370  0.82765094  1  0.080714  0  0.110795  0.085436  0  0.991795  0
H  H111  1  0.57931740  0.89112206  0.77881406  1  0.084161  0  0.108211  0.08401  0  0.966895  0
H  H112  1  0.54434965  0.94571741  0.85655087  1  0.058669  0  0.105884  0.119524  0  1.021483  0
H  H113  1  0.55446456  0.03933523  0.92008169  1  0.08154  0  0.10421  0.102841  0  1.027979  0
H  H114  1  0.86250410  0.01700998  0.90721272  1  0.09849  0  0.102755  0.106509  0  1.001141  0
H  H115  1  0.85467823  0.92055030  0.84312774  1  0.075205  0  0.105214  0.119701  0  0.990636  0
H  H116  1  0.75623721  0.69820878  0.81479536  1  0.070246  0  0.105021  0.074727  0  0.981896  0
H  H117  1  0.70910786  0.60562317  0.78649855  1  0.06212  0  0.1062  0.077931  0  0.979002  0
H  H118  1  0.79301472  0.54685260  0.84507181  1  0.03087  0  0.098138  0.107492  0  1.028986  0
H  H119  1  0.82213105  0.41844103  0.90355600  1  0.094395  0  0.103463  0.108932  0  0.994923  0
H  H120  1  0.53595084  0.45846179  0.96248037  1  0.120755  0  0.108141  0.115828  0  0.99215  0
H  H121  1  0.50508316  0.58926286  0.90501148  1  0.101331  0  0.107357  0.1271  0  1.018939  0
H  H122  1  0.57966835  0.64482187  0.73815031  1  0.078955  0  0.107038  0.076458  0  1.000981  0
H  H123  1  0.50184487  0.68199209  0.78289183  1  0.065577  0  0.10546  0.080846  0  1.011293  0
H  H124  1  0.44894640  0.90566857  0.67484931  1  0.080569  0  0.103411  0.115907  0  0.994211  0
H  H125  1  0.35178215  0.87434892  0.61354586  1  0.083981  0  0.100358  0.09847  0  1.021234  0
H  H126  1  0.36017752  0.57150044  0.65191114  1  0.06418  0  0.099629  0.095542  0  1.048771  0
H  H127  1  0.45689141  0.60051141  0.71244082  1  0.039928  0  0.0981  0.104114  0  1.039522  0
H  H128  1  0.12079260  0.47306709  0.47274618  1  0.140914  0  0.123016  0.101556  0  1.015063  0
H  H129  1  0.12417331  0.29686421  0.46346793  1  0.083163  0  0.108996  0.114799  0  1.033978  0
H  H130  1  0.26494299  0.25402906  0.58236761  1  0.067755  0  0.108457  0.111807  0  1.008667  0
H  H131  1  0.25580814  0.43171025  0.58606676  1  0.100451  0  0.121201  0.092674  0  1.016366  0
H  H132  1  0.32868066  0.95034051  0.54299148  1  0.110944  0  0.125733  0.100462  0  0.988488  0
H  H133  1  0.33196509  0.12857411  0.54889578  1  0.091858  0  0.113593  0.120859  0  0.996801  0
H  H134  1  0.06575173  0.15041420  0.48613422  1  0.127519  0  0.112803  0.128746  0  1.024964  0
H  H135  1  0.07892411  0.97283264  0.48038300  1  0.096148  0  0.123741  0.09632  0  1.00185  0
C  C136  1  0.35589924  0.25205661  0.22609225  1  0.065475  0  -0.019286  0.045676  0  3.818514  0
C  C137  1  0.28269426  0.21944650  0.26402470  1  0.421308  0  -0.062228  -0.025896  0  3.865808  0
C  C138  1  0.18808705  0.28959793  0.32146466  1  0.464578  0  0.084809  0.26774  0  4.065711  0
C  C139  1  0.15572531  0.37458245  0.33937839  1  -0.080362  0  -0.105785  -0.204775  0  4.008422  0
C  C140  1  0.08294240  0.37001703  0.37274092  1  -0.018749  0  -0.086637  -0.071762  0  4.009336  0
C  C141  1  0.04154539  0.28170783  0.38925093  1  -0.048575  0  -0.03654  -0.077075  0  4.017323  0
C  C142  1  0.07642340  0.19716010  0.37199439  1  0.011472  0  -0.084304  -0.062866  0  4.002492  0
C  C143  1  0.14933769  0.20030365  0.33815858  1  -0.041138  0  -0.115349  -0.234414  0  4.022134  0
C  C144  1  0.95936935  0.28039366  0.42354825  1  1.544066  0  0.205143  0.577157  0  4.208072  0
C  C145  1  0.38460597  0.16472668  0.20086151  1  0.387285  0  -0.059519  -0.022639  0  3.837398  0
C  C146  1  0.30027155  0.07281908  0.15388003  1  0.426896  0  0.082882  0.266128  0  4.075947  0
C  C147  1  0.38557739  0.03882286  0.13287744  1  -0.028996  0  -0.113806  -0.236692  0  4.019163  0
C  C148  1  0.37991870  0.98576492  0.09731333  1  -0.071691  0  -0.082418  -0.057621  0  3.990765  0
C  C149  1  0.29130733  0.96529704  0.08258588  1  0.022034  0  -0.032693  -0.070126  0  4.001968  0
C  C150  1  0.20640158  0.99894780  0.10441064  1  -0.014328  0  -0.086061  -0.068558  0  4.011029  0
C  C151  1  0.21048104  0.05211302  0.13978748  1  -0.035294  0  -0.112072  -0.219393  0  4.023609  0
C  C152  1  0.28722958  0.90889984  0.04419841  1  1.547658  0  0.208917  0.588638  0  4.191699  0
C  C153  1  0.30989934  0.33014405  0.19618004  1  0.410466  0  -0.061632  -0.021954  0  3.857242  0
C  C154  1  0.35365558  0.42488478  0.12883713  1  0.383663  0  0.079506  0.256521  0  4.066908  0
C  C155  1  0.26345817  0.47139048  0.12918836  1  0.009636  0  -0.123299  -0.24867  0  4.053087  0
C  C156  1  0.24692339  0.54339224  0.09638402  1  -0.080395  0  -0.087562  -0.068527  0  4.006508  0
C  C157  1  0.31900026  0.56967839  0.06349697  1  -0.001406  0  -0.030479  -0.061912  0  3.991308  0
C  C158  1  0.40826319  0.52094962  0.06326504  1  -0.034073  0  -0.079618  -0.05786  0  3.973262  0
C  C159  1  0.42579514  0.44888327  0.09535695  1  -0.01217  0  -0.106129  -0.212365  0  3.99673  0
C  C160  1  0.30419681  0.65148080  0.03015631  1  1.555287  0  0.209105  0.59099  0  4.185926  0
C  C161  1  0.44433501  0.29366795  0.24359619  1  0.401004  0  -0.062642  -0.025621  0  3.84683  0
C  C162  1  0.53993286  0.24451741  0.30302449  1  0.41611  0  0.086151  0.272998  0  4.054761  0
C  C163  1  0.57070788  0.16726480  0.33077602  1  -0.028179  0  -0.108214  -0.211184  0  4.017212  0
C  C164  1  0.62419398  0.18488467  0.36462855  1  -0.0126  0  -0.086362  -0.066203  0  4.011598  0
C  C165  1  0.64906564  0.27918937  0.37165412  1  0.015768  0  -0.032007  -0.063394  0  3.988659  0
C  C166  1  0.61977308  0.35528628  0.34322534  1  -0.041639  0  -0.086092  -0.068003  0  3.99738  0
C  C167  1  0.56533333  0.33891173  0.30908983  1  -0.026242  0  -0.117019  -0.232  0  4.020045  0
C  C168  1  0.70497297  0.29570957  0.40916290  1  1.570963  0  0.211621  0.595781  0  4.173846  0
C  C169  1  0.84848290  0.57894172  0.50391576  1  0.511767  0  0.060215  0.113723  0  3.887418  0
C  C170  1  0.84658217  0.67703870  0.50851421  1  -0.056947  0  -0.073798  -0.155714  0  3.911802  0
C  C171  1  0.80495836  0.74032771  0.47767745  1  -0.005311  0  0.017444  0.104811  0  3.977229  0
C  C172  1  0.76705490  0.70063189  0.44303102  1  -0.016473  0  -0.075154  -0.162153  0  3.938728  0
C  C173  1  0.77228165  0.60168853  0.44048887  1  0.54185  0  0.056232  0.101596  0  3.929752  0
C  C174  1  0.72702909  0.00150893  0.46943814  1  0.498945  0  0.057154  0.100502  0  3.932299  0
C  C175  1  0.72683689  0.90289802  0.46580238  1  -0.049097  0  -0.076971  -0.172988  0  3.943741  0
C  C176  1  0.80160143  0.84497231  0.48171042  1  0.007404  0  0.019449  0.111794  0  3.971042  0
C  C177  1  0.87311092  0.89000988  0.50163642  1  0.00662  0  -0.072827  -0.163428  0  3.908123  0
C  C178  1  0.86747677  0.98894328  0.50435151  1  0.487782  0  0.056413  0.099408  0  3.915454  0
C  C179  1  0.25205736  0.35589965  0.72609195  1  0.065442  0  -0.019292  0.045557  0  3.818636  0
C  C180  1  0.21944761  0.28269474  0.76402468  1  0.421387  0  -0.062126  -0.025626  0  3.865633  0
C  C181  1  0.28959951  0.18808660  0.82146399  1  0.464353  0  0.084767  0.267625  0  4.065668  0
C  C182  1  0.37458384  0.15572421  0.83937870  1  -0.080186  0  -0.105785  -0.204832  0  4.008512  0
C  C183  1  0.37001638  0.08294289  0.87274123  1  -0.018854  0  -0.086596  -0.071579  0  4.009278  0
C  C184  1  0.28170678  0.04154526  0.88925064  1  -0.048437  0  -0.036578  -0.077245  0  4.017244  0
C  C185  1  0.19715929  0.07642346  0.87199347  1  0.011458  0  -0.084255  -0.062783  0  4.002338  0
C  C186  1  0.20030428  0.14933740  0.83815795  1  -0.041149  0  -0.115329  -0.234362  0  4.022142  0
C  C187  1  0.28039496  0.95936852  0.92354841  1  1.544084  0  0.205204  0.577359  0  4.207836  0
C  C188  1  0.16472556  0.38460434  0.70086138  1  0.387317  0  -0.059456  -0.022574  0  3.837389  0
C  C189  1  0.07281796  0.30027170  0.65388112  1  0.42683  0  0.082865  0.266199  0  4.075729  0
C  C190  1  0.03882107  0.38557923  0.63287883  1  -0.028913  0  -0.113846  -0.23676  0  4.019153  0
C  C191  1  0.98576109  0.37992076  0.59731556  1  -0.07124  0  -0.082361  -0.057502  0  3.990687  0
C  C192  1  0.96529120  0.29130942  0.58258882  1  0.022071  0  -0.032792  -0.070276  0  4.002255  0
C  C193  1  0.99894069  0.20640190  0.60441238  1  -0.014057  0  -0.086047  -0.068547  0  4.011018  0
C  C194  1  0.05210957  0.21048217  0.63978893  1  -0.035523  0  -0.112033  -0.219388  0  4.023436  0
C  C195  1  0.90889547  0.28723412  0.54420024  1  1.547402  0  0.20886  0.588505  0  4.191693  0
C  C196  1  0.33014233  0.30989989  0.69617947  1  0.410731  0  -0.061586  -0.021885  0  3.857222  0
C  C197  1  0.42488387  0.35365301  0.62883729  1  0.383657  0  0.079498  0.256497  0  4.066883  0
C  C198  1  0.47139023  0.26345694  0.62918906  1  0.01024  0  -0.123272  -0.24861  0  4.053014  0
C  C199  1  0.54339295  0.24692233  0.59638530  1  -0.080875  0  -0.08761  -0.06867  0  4.006536  0
C  C200  1  0.56968171  0.31900002  0.56349908  1  -0.001199  0  -0.030479  -0.061959  0  3.991394  0
C  C201  1  0.52095271  0.40826413  0.56326650  1  -0.034337  0  -0.079622  -0.057778  0  3.973312  0
C  C202  1  0.44888518  0.42579415  0.59535791  1  -0.011793  0  -0.106059  -0.212262  0  3.996678  0
C  C203  1  0.65148510  0.30419583  0.53015903  1  1.555147  0  0.209183  0.591105  0  4.185714  0
C  C204  1  0.29366670  0.44433481  0.74359632  1  0.401135  0  -0.062675  -0.025633  0  3.846965  0
C  C205  1  0.24451441  0.53993646  0.80302328  1  0.416127  0  0.086085  0.272966  0  4.05471  0
C  C206  1  0.16726428  0.57071105  0.83077508  1  -0.028052  0  -0.108216  -0.211221  0  4.017321  0
C  C207  1  0.18488777  0.62419561  0.86462721  1  -0.012901  0  -0.086332  -0.06614  0  4.011735  0
C  C208  1  0.27919125  0.64906716  0.87165314  1  0.015837  0  -0.031981  -0.063311  0  3.988512  0
C  C209  1  0.35528791  0.61977474  0.84322306  1  -0.041501  0  -0.086099  -0.067986  0  3.997272  0
C  C210  1  0.33890941  0.56533509  0.80908801  1  -0.026248  0  -0.116979  -0.231997  0  4.019956  0
C  C211  1  0.29571395  0.70497149  0.90916195  1  1.571025  0  0.211528  0.595556  0  4.174039  0
C  C212  1  0.57894064  0.84848401  0.00391482  1  0.511754  0  0.0602  0.113625  0  3.887449  0
C  C213  1  0.67703591  0.84658378  0.00851394  1  -0.056863  0  -0.073735  -0.155526  0  3.911778  0
C  C214  1  0.74032733  0.80496145  0.97767675  1  -0.005376  0  0.017388  0.104783  0  3.977289  0
C  C215  1  0.70063164  0.76705933  0.94303027  1  -0.016462  0  -0.075147  -0.162234  0  3.938907  0
C  C216  1  0.60168841  0.77228512  0.94048721  1  0.541357  0  0.056245  0.101631  0  3.929704  0
C  C217  1  0.00150834  0.72703248  0.96943533  1  0.499332  0  0.057126  0.1004  0  3.932329  0
C  C218  1  0.90289507  0.72684014  0.96580044  1  -0.049549  0  -0.077017  -0.172967  0  3.943687  0
C  C219  1  0.84497114  0.80160372  0.98170848  1  0.007377  0  0.019415  0.111727  0  3.970994  0
C  C220  1  0.89001010  0.87311207  0.00163536  1  0.006601  0  -0.072819  -0.163385  0  3.908063  0
C  C221  1  0.98894373  0.86747765  0.00434979  1  0.487757  0  0.056422  0.099385  0  3.915566  0
C  C222  1  0.74794416  0.64410048  0.27390821  1  0.065187  0  -0.019286  0.045703  0  3.818533  0
C  C223  1  0.78055535  0.71730609  0.23597507  1  0.421631  0  -0.062234  -0.025876  0  3.865796  0
C  C224  1  0.71040344  0.81191063  0.17853365  1  0.464719  0  0.084732  0.267585  0  4.065573  0
C  C225  1  0.62541982  0.84427013  0.16061903  1  -0.080384  0  -0.10581  -0.204907  0  4.008444  0
C  C226  1  0.62998584  0.91705291  0.12725586  1  -0.018844  0  -0.086597  -0.071696  0  4.009126  0
C  C227  1  0.71829544  0.95845126  0.11074641  1  -0.048021  0  -0.036611  -0.077095  0  4.017272  0
C  C228  1  0.80284223  0.92357523  0.12800482  1  0.011007  0  -0.084252  -0.062822  0  4.002436  0
C  C229  1  0.79969868  0.85066199  0.16184025  1  -0.041117  0  -0.115332  -0.234364  0  4.022027  0
C  C230  1  0.71960583  0.04063090  0.07645051  1  1.544087  0  0.205174  0.577239  0  4.207961  0
C  C231  1  0.83527379  0.61539511  0.29913857  1  0.387129  0  -0.059465  -0.022645  0  3.837349  0
C  C232  1  0.92718139  0.69972702  0.34612046  1  0.426837  0  0.082907  0.266128  0  4.075942  0
C  C233  1  0.96117540  0.61442170  0.36712310  1  -0.028779  0  -0.11385  -0.23675  0  4.01917  0
C  C234  1  0.01423250  0.62008021  0.40268777  1  -0.070962  0  -0.082491  -0.057638  0  3.990662  0
C  C235  1  0.03470166  0.70869012  0.41741524  1  0.021118  0  -0.032722  -0.070207  0  4.001998  0
C  C236  1  0.00105217  0.79359692  0.39559041  1  -0.014279  0  -0.086  -0.068451  0  4.010941  0
C  C237  1  0.94788762  0.78951803  0.36021332  1  -0.03528  0  -0.112047  -0.2194  0  4.023543  0
C  C238  1  0.09109955  0.71276611  0.45580242  1  1.547221  0  0.208789  0.588479  0  4.191851  0
C  C239  1  0.66985775  0.69010242  0.30382129  1  0.410376  0  -0.061591  -0.021883  0  3.857275  0
C  C240  1  0.57511908  0.64634566  0.37116415  1  0.384181  0  0.079481  0.256512  0  4.066962  0
C  C241  1  0.52861272  0.73654317  0.37081329  1  0.009722  0  -0.123263  -0.248641  0  4.053123  0
C  C242  1  0.45661144  0.75307632  0.40361737  1  -0.080334  0  -0.087524  -0.068476  0  4.006559  0
C  C243  1  0.43032412  0.68099789  0.43650388  1  -0.001523  0  -0.030472  -0.061952  0  3.991258  0
C  C244  1  0.47905240  0.59173451  0.43673614  1  -0.033885  0  -0.079644  -0.057836  0  3.973308  0
C  C245  1  0.55111921  0.57420522  0.40464345  1  -0.012832  0  -0.106142  -0.212432  0  3.996683  0
C  C246  1  0.34851712  0.69580141  0.46984281  1  1.555427  0  0.209159  0.591149  0  4.185812  0
C  C247  1  0.70633481  0.55566461  0.25640387  1  0.400995  0  -0.062684  -0.025697  0  3.84689  0
C  C248  1  0.75548353  0.46007165  0.19697413  1  0.416698  0  0.086125  0.272881  0  4.054707  0
C  C249  1  0.83273511  0.42929776  0.16922257  1  -0.028782  0  -0.108216  -0.211111  0  4.017261  0
C  C250  1  0.81511378  0.37581245  0.13536974  1  -0.012573  0  -0.08637  -0.066266  0  4.011856  0
C  C251  1  0.72081247  0.35094159  0.12834434  1  0.01581  0  -0.032023  -0.063342  0  3.988637  0
C  C252  1  0.64471220  0.38023262  0.15677366  1  -0.041762  0  -0.086066  -0.068051  0  3.997376  0
C  C253  1  0.66108708  0.43467088  0.19090922  1  -0.026351  0  -0.116947  -0.231833  0  4.019891  0
C  C254  1  0.70428831  0.29503368  0.09083477  1  1.57063  0  0.211534  0.595647  0  4.174198  0
C  C255  1  0.42105726  0.15151474  0.99608554  1  0.511784  0  0.060325  0.113805  0  3.88753  0
C  C256  1  0.32295983  0.15341499  0.99148650  1  -0.056979  0  -0.073832  -0.155618  0  3.911882  0
C  C257  1  0.25967203  0.19503871  0.02232253  1  -0.005341  0  0.017448  0.104867  0  3.977248  0
C  C258  1  0.29936699  0.23294157  0.05697029  1  -0.016525  0  -0.075183  -0.162293  0  3.938691  0
C  C259  1  0.39830879  0.22771508  0.05951280  1  0.541432  0  0.056238  0.101672  0  3.92972  0
C  C260  1  0.99849103  0.27297129  0.03056219  1  0.499153  0  0.057159  0.100523  0  3.932287  0
C  C261  1  0.09710286  0.27316293  0.03419749  1  -0.049071  0  -0.076996  -0.173037  0  3.943753  0
C  C262  1  0.15502894  0.19839788  0.01828975  1  0.007412  0  0.019415  0.11173  0  3.971019  0
C  C263  1  0.10999069  0.12688880  0.99836287  1  0.006673  0  -0.072769  -0.163307  0  3.908023  0
C  C264  1  0.01105563  0.13252324  0.99564882  1  0.487725  0  0.05641  0.099373  0  3.915532  0
C  C265  1  0.64410011  0.74794283  0.77390705  1  0.065589  0  -0.019335  0.045476  0  3.818803  0
C  C266  1  0.71730582  0.78055366  0.73597455  1  0.42105  0  -0.062196  -0.025791  0  3.865812  0
C  C267  1  0.81191015  0.71040371  0.67853368  1  0.464699  0  0.084739  0.267529  0  4.065629  0
C  C268  1  0.84427188  0.62541775  0.66061968  1  -0.080349  0  -0.10581  -0.204833  0  4.008458  0
C  C269  1  0.91705407  0.62998391  0.62725683  1  -0.018951  0  -0.086602  -0.071716  0  4.009383  0
C  C270  1  0.95845109  0.71829383  0.61074808  1  -0.047978  0  -0.036561  -0.077064  0  4.017382  0
C  C271  1  0.92357596  0.80284151  0.62800451  1  0.011137  0  -0.084245  -0.062796  0  4.002523  0
C  C272  1  0.85066239  0.79969794  0.66184029  1  -0.041261  0  -0.115286  -0.234298  0  4.022045  0
C  C273  1  0.04063072  0.71960434  0.57645173  1  1.544086  0  0.205122  0.577147  0  4.208047  0
C  C274  1  0.61539410  0.83527203  0.79913780  1  0.38729  0  -0.05946  -0.022491  0  3.837281  0
C  C275  1  0.69972563  0.92717824  0.84611944  1  0.426845  0  0.082896  0.266083  0  4.075819  0
C  C276  1  0.61441979  0.96117446  0.86712172  1  -0.028973  0  -0.113862  -0.236756  0  4.019193  0
C  C277  1  0.62007848  0.01423167  0.90268618  1  -0.071047  0  -0.082398  -0.057585  0  3.990772  0
C  C278  1  0.70868913  0.03469813  0.91741371  1  0.021829  0  -0.032664  -0.070079  0  4.001978  0
C  C279  1  0.79359633  0.00105022  0.89558974  1  -0.014462  0  -0.086164  -0.068722  0  4.0111  0
C  C280  1  0.78951830  0.94788570  0.86021250  1  -0.035252  0  -0.111976  -0.219257  0  4.023404  0
C  C281  1  0.71276182  0.09109396  0.95580208  1  1.546718  0  0.208773  0.588421  0  4.191771  0
C  C282  1  0.69010147  0.66985897  0.80381971  1  0.410514  0  -0.061546  -0.021828  0  3.857302  0
C  C283  1  0.64634667  0.57511895  0.87116318  1  0.384256  0  0.079448  0.256472  0  4.066844  0
C  C284  1  0.73654552  0.52861322  0.87081124  1  0.009585  0  -0.123214  -0.248588  0  4.052951  0
C  C285  1  0.75307886  0.45661149  0.90361532  1  -0.080307  0  -0.087574  -0.068613  0  4.006609  0
C  C286  1  0.68100126  0.43032318  0.93650185  1  -0.001193  0  -0.030491  -0.06197  0  3.991365  0
C  C287  1  0.59173761  0.47905197  0.93673444  1  -0.034304  0  -0.079715  -0.057868  0  3.973367  0
C  C288  1  0.57420710  0.55111974  0.90464242  1  -0.012437  0  -0.106032  -0.212263  0  3.996669  0
C  C289  1  0.69580326  0.34851648  0.96984080  1  1.555117  0  0.209102  0.591064  0  4.185792  0
C  C290  1  0.55566650  0.70633218  0.75640333  1  0.400657  0  -0.062663  -0.025587  0  3.846924  0
C  C291  1  0.46006865  0.75548128  0.69697508  1  0.41609  0  0.086095  0.272947  0  4.054755  0
C  C292  1  0.42929291  0.83273174  0.66922431  1  -0.028035  0  -0.108208  -0.211117  0  4.01724  0
C  C293  1  0.37580608  0.81511116  0.63537183  1  -0.012774  0  -0.086335  -0.066241  0  4.011801  0
C  C294  1  0.35093586  0.72080716  0.62834618  1  0.015888  0  -0.032033  -0.063411  0  3.988804  0
C  C295  1  0.38022698  0.64470955  0.65677504  1  -0.042339  0  -0.086074  -0.068029  0  3.997249  0
C  C296  1  0.43466817  0.66108552  0.69091044  1  -0.026047  0  -0.116971  -0.231968  0  4.020025  0
C  C297  1  0.29502853  0.70428479  0.59083845  1  1.571094  0  0.211573  0.595637  0  4.17404  0
C  C298  1  0.15152222  0.42105908  0.49608583  1  0.511792  0  0.060208  0.113687  0  3.887601  0
C  C299  1  0.15342151  0.32296140  0.49148682  1  -0.056837  0  -0.073729  -0.155658  0  3.911605  0
C  C300  1  0.19504099  0.25967173  0.52232378  1  -0.005405  0  0.017432  0.104924  0  3.977078  0
C  C301  1  0.23294373  0.29936684  0.55697155  1  -0.016449  0  -0.075197  -0.162312  0  3.938698  0
C  C302  1  0.22771913  0.39830945  0.55951397  1  0.541297  0  0.056209  0.101633  0  3.929695  0
C  C303  1  0.27296809  0.99848910  0.53056419  1  0.499214  0  0.057133  0.100442  0  3.932238  0
C  C304  1  0.27316102  0.09710217  0.53419888  1  -0.049059  0  -0.076996  -0.172956  0  3.943815  0
C  C305  1  0.19839576  0.15502789  0.51829151  1  0.007259  0  0.01937  0.111651  0  3.971155  0
C  C306  1  0.12688699  0.10999103  0.49836545  1  0.006658  0  -0.072814  -0.163403  0  3.908056  0
C  C307  1  0.13252042  0.01105619  0.49565141  1  0.487757  0  0.056431  0.099411  0  3.915437  0
N  N308  1  0.81178579  0.54165604  0.47047728  1  -1.251917  0  -0.320745  -0.204985  0  3.514937  0
N  N309  1  0.79646610  0.04398711  0.48816228  1  -1.246657  0  -0.319972  -0.198098  0  3.523259  0
N  N310  1  0.54165536  0.81178756  0.97047604  1  -1.251875  0  -0.320716  -0.204917  0  3.514925  0
N  N311  1  0.04398717  0.79646756  0.98815985  1  -1.247009  0  -0.319957  -0.198035  0  3.523259  0
N  N312  1  0.45834182  0.18820976  0.02952343  1  -1.251858  0  -0.320755  -0.205058  0  3.515018  0
N  N313  1  0.95601291  0.20353404  0.01183774  1  -1.246856  0  -0.319946  -0.19804  0  3.523302  0
N  N314  1  0.18821716  0.45834263  0.52952449  1  -1.251846  0  -0.320693  -0.204961  0  3.514994  0
N  N315  1  0.20353108  0.95601092  0.51184038  1  -1.246873  0  -0.319928  -0.198024  0  3.523215  0
O  O316  1  0.25727301  0.30141737  0.28752394  1  -1.102042  0  -0.182135  -0.205542  0  2.566539  0
O  O317  1  0.93137923  0.36248657  0.43570394  1  -1.170172  0  -0.323061  -0.553532  0  2.355413  0
O  O318  1  0.92352831  0.19934048  0.43807779  1  -1.168797  0  -0.321387  -0.553269  0  2.299415  0
O  O319  1  0.29671792  0.12819969  0.18806841  1  -1.083811  0  -0.183683  -0.210918  0  2.578117  0
O  O320  1  0.36564781  0.87365256  0.02790628  1  -1.17865  0  -0.314669  -0.560784  0  2.337741  0
O  O321  1  0.20436481  0.90000118  0.03032164  1  -1.165219  0  -0.322817  -0.557414  0  2.34024  0
O  O322  1  0.37831180  0.35448189  0.15980919  1  -1.090648  0  -0.182266  -0.208282  0  2.566529  0
O  O323  1  0.22105891  0.69133907  0.03014271  1  -1.16734  0  -0.324276  -0.551664  0  2.297055  0
O  O324  1  0.37776631  0.67632960  0.00447328  1  -1.171478  0  -0.322493  -0.550418  0  2.345205  0
O  O325  1  0.48540210  0.21943068  0.27142678  1  -1.089559  0  -0.181572  -0.205098  0  2.559442  0
O  O326  1  0.71841396  0.22167552  0.43532628  1  -1.180995  0  -0.321918  -0.567484  0  2.37203  0
O  O327  1  0.73482106  0.38039430  0.41279391  1  -1.172224  0  -0.321249  -0.548249  0  2.265511  0
O  O328  1  0.30141676  0.25727266  0.78752304  1  -1.101884  0  -0.182114  -0.205544  0  2.566618  0
O  O329  1  0.36248647  0.93137863  0.93570349  1  -1.170216  0  -0.323084  -0.55361  0  2.355391  0
O  O330  1  0.19933951  0.92352759  0.93807805  1  -1.168825  0  -0.32141  -0.553338  0  2.299308  0
O  O331  1  0.12820341  0.29671727  0.68806740  1  -1.083878  0  -0.183691  -0.210941  0  2.578056  0
O  O332  1  0.87364906  0.36565556  0.52790862  1  -1.178448  0  -0.314632  -0.560743  0  2.337666  0
O  O333  1  0.89999913  0.20437257  0.53032131  1  -1.165204  0  -0.322755  -0.557316  0  2.340255  0
O  O334  1  0.35447919  0.37831026  0.65980843  1  -1.090655  0  -0.182271  -0.208284  0  2.566588  0
O  O335  1  0.69133993  0.22105692  0.53014494  1  -1.167383  0  -0.32431  -0.551677  0  2.296985  0
O  O336  1  0.67633545  0.37776741  0.50447587  1  -1.171622  0  -0.322512  -0.550459  0  2.345188  0
O  O337  1  0.21942913  0.48540419  0.77142589  1  -1.089735  0  -0.18156  -0.20508  0  2.559442  0
O  O338  1  0.22167944  0.71841378  0.93532595  1  -1.180872  0  -0.321863  -0.567401  0  2.372067  0
O  O339  1  0.38039820  0.73481494  0.91279315  1  -1.17234  0  -0.321225  -0.548163  0  2.265637  0
O  O340  1  0.69858619  0.74272530  0.21247489  1  -1.101981  0  -0.182102  -0.205464  0  2.566544  0
O  O341  1  0.63751504  0.06861935  0.06429419  1  -1.170256  0  -0.323057  -0.553539  0  2.355446  0
O  O342  1  0.80066130  0.07647760  0.06192258  1  -1.168749  0  -0.321394  -0.553347  0  2.299382  0
O  O343  1  0.87180171  0.70328209  0.31193200  1  -1.08363  0  -0.183663  -0.210824  0  2.577977  0
O  O344  1  0.12634166  0.63434834  0.47209503  1  -1.178315  0  -0.314616  -0.560713  0  2.337658  0
O  O345  1  0.10000168  0.79563118  0.46967873  1  -1.165135  0  -0.322765  -0.557376  0  2.340379  0
O  O346  1  0.64552160  0.62169060  0.34019172  1  -1.09065  0  -0.182275  -0.20825  0  2.566667  0
O  O347  1  0.30865869  0.77894038  0.46985480  1  -1.167242  0  -0.324317  -0.551731  0  2.296973  0
O  O348  1  0.32366679  0.62223415  0.49552516  1  -1.171616  0  -0.322515  -0.550481  0  2.345285  0
O  O349  1  0.78057025  0.51460030  0.22857289  1  -1.089552  0  -0.181579  -0.205061  0  2.559442  0
O  O350  1  0.77832499  0.28159280  0.06467127  1  -1.180636  0  -0.321838  -0.567433  0  2.372244  0
O  O351  1  0.61960619  0.26518227  0.08720508  1  -1.172226  0  -0.321263  -0.548228  0  2.265561  0
O  O352  1  0.74272419  0.69858355  0.71247475  1  -1.101696  0  -0.182153  -0.205504  0  2.566552  0
O  O353  1  0.06862084  0.63751358  0.56429659  1  -1.170203  0  -0.323059  -0.553558  0  2.355497  0
O  O354  1  0.07647393  0.80066036  0.56192199  1  -1.168806  0  -0.321403  -0.553309  0  2.299366  0
O  O355  1  0.70328142  0.87179760  0.81193098  1  -1.083803  0  -0.183695  -0.210894  0  2.578025  0
O  O356  1  0.63434213  0.12633694  0.97209379  1  -1.177943  0  -0.314626  -0.560732  0  2.337765  0
O  O357  1  0.79562589  0.09999695  0.96967998  1  -1.165024  0  -0.322736  -0.557308  0  2.340142  0
O  O358  1  0.62169117  0.64552254  0.84019074  1  -1.090653  0  -0.18229  -0.20825  0  2.566695  0
O  O359  1  0.77894116  0.30865748  0.96985379  1  -1.167283  0  -0.324318  -0.551715  0  2.29698  0
O  O360  1  0.62223448  0.32366766  0.99552349  1  -1.171487  0  -0.322452  -0.550403  0  2.345276  0
O  O361  1  0.51460086  0.78056799  0.72857241  1  -1.089656  0  -0.181553  -0.205051  0  2.559401  0
O  O362  1  0.28158539  0.77832248  0.56467469  1  -1.180895  0  -0.321855  -0.567386  0  2.371982  0
O  O363  1  0.26518332  0.61960219  0.58720628  1  -1.172355  0  -0.321238  -0.548185  0  2.265676  0
