# generated using pymatgen
data_AlH4C14Cl3O5
_symmetry_space_group_name_H-M   'P 1'
_cell_length_a   6.64640391
_cell_length_b   21.41219159
_cell_length_c   25.55646789
_cell_angle_alpha   83.95296687
_cell_angle_beta   89.95566682
_cell_angle_gamma   89.44628511
_symmetry_Int_Tables_number   1
_chemical_formula_structural   AlH4C14Cl3O5
_chemical_formula_sum   'Al4 H16 C56 Cl12 O20'
_cell_volume   3616.63864272
_cell_formula_units_Z   4
loop_
 _symmetry_equiv_pos_site_id
 _symmetry_equiv_pos_as_xyz
  1  'x, y, z'
loop_
 _atom_site_type_symbol
 _atom_site_label
 _atom_site_symmetry_multiplicity
 _atom_site_fract_x
 _atom_site_fract_y
 _atom_site_fract_z
 _atom_site_occupancy
 _atom_site_pbe_bader_charge
 _atom_site_pbe_bader_spin_density
 _atom_site_pbe_cm5_charge
 _atom_site_pbe_ddec_charge
 _atom_site_pbe_ddec_spin_density
 _atom_site_pbe_ddec_sum_bond_order
 _atom_site_pbe_magmom
Al  Al0  1  0.20105365  0.75025534  0.25054214  1  2.501279  0  0.39914  1.645288  0  2.57649  0
Al  Al1  1  0.79892938  0.24974384  0.74945699  1  2.501077  0  0.399074  1.645164  0  2.576866  0
Al  Al2  1  0.70108252  0.74983715  0.25148060  1  2.503208  0  0.397279  1.643276  0  2.58282  0
Al  Al3  1  0.29898169  0.25016584  0.74851695  1  2.503034  0  0.397346  1.643554  0  2.582437  0
H  H4  1  0.30404133  0.55732987  0.46502902  1  0.086635  0  0.11257  0.114506  0  0.990256  0
H  H5  1  0.69592235  0.44265621  0.53497055  1  0.086486  0  0.112492  0.114364  0  0.990502  0
H  H6  1  0.80442743  0.96132582  0.05063535  1  0.084912  0  0.111389  0.112722  0  0.994022  0
H  H7  1  0.19556604  0.03867862  0.94936651  1  0.08377  0  0.111384  0.112663  0  0.994105  0
H  H8  1  0.33212489  0.47765772  0.54344252  1  0.103157  0  0.110212  0.111748  0  0.996707  0
H  H9  1  0.66784027  0.52232971  0.45655744  1  0.102964  0  0.110265  0.111715  0  0.996756  0
H  H10  1  0.83804443  0.03961952  0.97158289  1  0.07482  0  0.109211  0.11039  0  1.001687  0
H  H11  1  0.16194600  0.96038675  0.02841935  1  0.07478  0  0.109203  0.110363  0  1.00182  0
H  H12  1  0.22758627  0.67329718  0.11211988  1  0.12449  0  0.117377  0.140369  0  0.981311  0
H  H13  1  0.77243123  0.32671041  0.88787883  1  0.124741  0  0.117287  0.140269  0  0.981392  0
H  H14  1  0.73203179  0.89813644  0.33598398  1  0.135692  0  0.116047  0.140063  0  0.984681  0
H  H15  1  0.26797214  0.10187290  0.66401589  1  0.135811  0  0.11606  0.140096  0  0.984506  0
H  H16  1  0.45444497  0.67147516  0.23767149  1  0.632681  0  0.343833  0.424694  0  0.872184  0
H  H17  1  0.54558320  0.32852367  0.76233001  1  0.632701  0  0.343919  0.424784  0  0.872139  0
H  H18  1  0.94670325  0.82826972  0.22510031  1  0.626771  0  0.356024  0.436409  0  0.84573  0
H  H19  1  0.05333396  0.17172930  0.77489568  1  0.626775  0  0.355914  0.436228  0  0.845943  0
C  C20  1  0.45087230  0.81825263  0.31990285  1  1.591232  0  0.273439  0.659304  0  4.079847  0
C  C21  1  0.54915560  0.18176172  0.68010173  1  1.591172  0  0.273796  0.659659  0  4.07904  0
C  C22  1  0.94840578  0.67636959  0.18438448  1  1.590682  0  0.267579  0.655799  0  4.087429  0
C  C23  1  0.05162379  0.32363466  0.81562250  1  1.59076  0  0.267635  0.656049  0  4.087604  0
C  C24  1  0.44680849  0.82969006  0.17513799  1  1.66545  0  0.271503  0.716563  0  4.161542  0
C  C25  1  0.55318054  0.17031113  0.82485602  1  1.66535  0  0.271532  0.716627  0  4.161145  0
C  C26  1  0.95779281  0.67229746  0.32604532  1  1.683967  0  0.273024  0.710943  0  4.172385  0
C  C27  1  0.04221421  0.32770632  0.67395418  1  1.684643  0  0.273169  0.711238  0  4.173181  0
C  C28  1  0.18760959  0.48762566  0.52409321  1  0.003237  0  -0.072528  -0.111993  0  3.94597  0
C  C29  1  0.81236302  0.51236653  0.47590595  1  0.002966  0  -0.072562  -0.111879  0  3.945877  0
C  C30  1  0.69077224  0.02195847  0.98424512  1  0.043291  0  -0.073361  -0.112532  0  3.944554  0
C  C31  1  0.30921666  0.97804893  0.01575555  1  0.043304  0  -0.073255  -0.112497  0  3.944517  0
C  C32  1  0.01574881  0.45506314  0.54421727  1  0.075023  0  0.008449  0.132093  0  4.102151  0
C  C33  1  0.98422235  0.54492474  0.45578662  1  0.075509  0  0.008602  0.132276  0  4.102206  0
C  C34  1  0.51887223  0.04414369  0.95534599  1  0.103748  0  0.008647  0.134148  0  4.097116  0
C  C35  1  0.48111822  0.95586127  0.04465547  1  0.102704  0  0.008566  0.134064  0  4.096869  0
C  C36  1  0.82793051  0.46810494  0.51942110  1  -0.028616  0  -0.072194  -0.111426  0  3.94284  0
C  C37  1  0.17203610  0.53188581  0.48057845  1  -0.028573  0  -0.072232  -0.111472  0  3.943113  0
C  C38  1  0.32776547  0.02148455  0.97184884  1  -0.082488  0  -0.073049  -0.112498  0  3.941745  0
C  C39  1  0.67222647  0.97852191  0.02815183  1  -0.082963  0  -0.073032  -0.112662  0  3.941594  0
C  C40  1  0.03012643  0.41031443  0.58888931  1  -0.4968  0  -0.018962  -0.030022  0  4.082367  0
C  C41  1  0.96984321  0.58967472  0.41111575  1  -0.497052  0  -0.018734  -0.029661  0  4.081681  0
C  C42  1  0.53624668  0.08825541  0.91034945  1  -0.354183  0  -0.022051  -0.034789  0  4.091034  0
C  C43  1  0.46373628  0.91174779  0.08965123  1  -0.35328  0  -0.022017  -0.034679  0  4.090862  0
C  C44  1  0.96098106  0.62790618  0.37234574  1  0.203808  0  -0.034192  -0.187344  0  3.950237  0
C  C45  1  0.03901701  0.37209186  0.62765890  1  0.20357  0  -0.033925  -0.18689  0  3.95067  0
C  C46  1  0.45272432  0.87393949  0.12864637  1  0.068319  0  -0.037004  -0.191203  0  3.95359  0
C  C47  1  0.54726320  0.12606058  0.87135314  1  0.068641  0  -0.036939  -0.191111  0  3.953403  0
C  C48  1  0.82155059  0.54753214  0.09646932  1  0.108931  0  0.016718  0.05298  0  3.995499  0
C  C49  1  0.17847763  0.45246338  0.90353257  1  0.109486  0  0.016607  0.052947  0  3.995553  0
C  C50  1  0.31934389  0.89777522  0.44342935  1  0.128813  0  0.016671  0.053719  0  3.997155  0
C  C51  1  0.68065432  0.10221732  0.55655879  1  0.128996  0  0.016604  0.05376  0  3.997709  0
C  C52  1  0.80495063  0.58634292  0.13734076  1  0.113726  0  0.013593  0.063531  0  4.018544  0
C  C53  1  0.19506999  0.41365719  0.86265798  1  0.113752  0  0.013552  0.063541  0  4.018584  0
C  C54  1  0.30169239  0.85776602  0.40344826  1  0.139799  0  0.01359  0.059303  0  4.032886  0
C  C55  1  0.69830884  0.14222600  0.59654027  1  0.139169  0  0.013529  0.059253  0  4.031638  0
C  C56  1  0.95252724  0.63212842  0.14260224  1  0.063989  0  -0.009762  -0.061713  0  3.935674  0
C  C57  1  0.04749337  0.36787215  0.85740042  1  0.064137  0  -0.009753  -0.061865  0  3.935842  0
C  C58  1  0.45199247  0.85854597  0.36440114  1  0.011659  0  -0.010609  -0.063636  0  3.940092  0
C  C59  1  0.54800854  0.14145772  0.63559521  1  0.012441  0  -0.010653  -0.063929  0  3.939634  0
C  C60  1  0.11303287  0.63846492  0.10698265  1  0.039194  0  -0.088418  -0.163795  0  3.984286  0
C  C61  1  0.88699378  0.36153453  0.89301766  1  0.038873  0  -0.088376  -0.163659  0  3.984335  0
C  C62  1  0.61492223  0.89934560  0.36564209  1  0.022869  0  -0.088457  -0.166846  0  3.991778  0
C  C63  1  0.38508181  0.10065762  0.63435033  1  0.022637  0  -0.088597  -0.166966  0  3.991517  0
C  C64  1  0.12585768  0.60169860  0.06554782  1  0.095784  0  0.021353  0.119664  0  4.023126  0
C  C65  1  0.87416604  0.39829533  0.93445566  1  0.095848  0  0.021398  0.119723  0  4.023254  0
C  C66  1  0.62712584  0.94089017  0.40355650  1  0.089696  0  0.020711  0.119712  0  4.026288  0
C  C67  1  0.37287675  0.05911025  0.59643594  1  0.089898  0  0.020864  0.120031  0  4.026237  0
C  C68  1  0.98096847  0.55493326  0.05929938  1  0.167706  0  -0.005565  0.033642  0  4.072696  0
C  C69  1  0.01907480  0.44506036  0.94071040  1  0.167832  0  -0.005535  0.033402  0  4.072503  0
C  C70  1  0.48030401  0.94095031  0.44378722  1  0.166611  0  -0.0058  0.033241  0  4.075662  0
C  C71  1  0.51969548  0.05905441  0.55620834  1  0.165792  0  -0.005848  0.033001  0  4.076739  0
C  C72  1  0.99408359  0.51658149  0.01797270  1  -0.014353  0  -0.041297  -0.067621  0  4.118142  0
C  C73  1  0.00597633  0.48340447  0.98204615  1  -0.252892  0  -0.041437  -0.067737  0  4.117953  0
C  C74  1  0.49346229  0.98203205  0.48307771  1  -0.013895  0  -0.041451  -0.066991  0  4.121188  0
C  C75  1  0.50651158  0.01797471  0.51692453  1  -0.258133  0  -0.041389  -0.066551  0  4.121387  0
Cl  Cl76  1  0.64993131  0.48962608  0.09045357  1  -0.160835  0  0.009397  -0.04693  0  1.628453  0
Cl  Cl77  1  0.35007721  0.51037797  0.90954750  1  -0.161086  0  0.009464  -0.046849  0  1.62842  0
Cl  Cl78  1  0.14671954  0.89530272  0.49336035  1  -0.162918  0  0.006677  -0.051265  0  1.632445  0
Cl  Cl79  1  0.85324996  0.10469493  0.50663996  1  -0.16294  0  0.006895  -0.051022  0  1.632951  0
Cl  Cl80  1  0.60959279  0.57363178  0.18129991  1  -0.173717  0  0.018269  -0.034334  0  1.585122  0
Cl  Cl81  1  0.39039761  0.42637688  0.81869800  1  -0.173849  0  0.018273  -0.03435  0  1.585273  0
Cl  Cl82  1  0.10283382  0.80709529  0.40509068  1  -0.157646  0  0.023493  -0.019429  0  1.602927  0
Cl  Cl83  1  0.89720485  0.19290672  0.59490372  1  -0.157456  0  0.023391  -0.019536  0  1.60207  0
Cl  Cl84  1  0.32065166  0.61313432  0.02134626  1  -0.189382  0  0.000943  -0.059771  0  1.527097  0
Cl  Cl85  1  0.67935839  0.38686823  0.97865561  1  -0.189329  0  0.000962  -0.059713  0  1.527178  0
Cl  Cl86  1  0.82330241  0.99288326  0.40149760  1  -0.180524  0  -0.000952  -0.061893  0  1.535723  0
Cl  Cl87  1  0.17669857  0.00712164  0.59850426  1  -0.18031  0  -0.00095  -0.061928  0  1.535799  0
O  O88  1  0.61607284  0.81517197  0.19678304  1  -1.235674  0  -0.232355  -0.590039  0  2.280726  0
O  O89  1  0.38392372  0.18482832  0.80321451  1  -1.235949  0  -0.232297  -0.590044  0  2.280871  0
O  O90  1  0.12764864  0.69288310  0.30940882  1  -1.234808  0  -0.226507  -0.578375  0  2.306945  0
O  O91  1  0.87240654  0.30711891  0.69059699  1  -1.235289  0  -0.226576  -0.578542  0  2.307941  0
O  O92  1  0.28412057  0.80755435  0.29865725  1  -1.246164  0  -0.229888  -0.58622  0  2.3771  0
O  O93  1  0.71593916  0.19244763  0.70133715  1  -1.246473  0  -0.229888  -0.586151  0  2.377193  0
O  O94  1  0.77816721  0.69693397  0.19751445  1  -1.251386  0  -0.234585  -0.597804  0  2.389623  0
O  O95  1  0.22182630  0.30306870  0.80248270  1  -1.251513  0  -0.234607  -0.59778  0  2.389798  0
O  O96  1  0.27431886  0.80958185  0.19045129  1  -1.229748  0  -0.233786  -0.59055  0  2.272868  0
O  O97  1  0.72569884  0.19041346  0.80954471  1  -1.22964  0  -0.233806  -0.59055  0  2.272567  0
O  O98  1  0.78699016  0.68659678  0.30537632  1  -1.240124  0  -0.227158  -0.578371  0  2.288965  0
O  O99  1  0.21301241  0.31340322  0.69462359  1  -1.24012  0  -0.227281  -0.578588  0  2.288867  0
O  O100  1  0.11904263  0.69050347  0.20228226  1  -1.249902  0  -0.235184  -0.591944  0  2.331384  0
O  O101  1  0.88098865  0.30948783  0.79772359  1  -1.249655  0  -0.235293  -0.592161  0  2.331237  0
O  O102  1  0.62284510  0.79999038  0.30538314  1  -1.24306  0  -0.228079  -0.57645  0  2.339734  0
O  O103  1  0.37713182  0.20001438  0.69461242  1  -1.24269  0  -0.228158  -0.576617  0  2.339549  0
O  O104  1  0.45204065  0.71236484  0.25078693  1  -1.435141  0  -0.447569  -0.989661  0  2.211503  0
O  O105  1  0.54798298  0.28763540  0.74921456  1  -1.434995  0  -0.447582  -0.989848  0  2.211863  0
O  O106  1  0.94971836  0.78858766  0.24724009  1  -1.427628  0  -0.446724  -0.989162  0  2.190649  0
O  O107  1  0.05030077  0.21141264  0.75275707  1  -1.427613  0  -0.446705  -0.989031  0  2.190437  0
