# generated using pymatgen
data_ZnH20C21(NO2)3
_symmetry_space_group_name_H-M   'P 1'
_cell_length_a   11.82393121
_cell_length_b   15.97358725
_cell_length_c   17.06979203
_cell_angle_alpha   88.94394378
_cell_angle_beta   89.50211688
_cell_angle_gamma   89.58691901
_symmetry_Int_Tables_number   1
_chemical_formula_structural   ZnH20C21(NO2)3
_chemical_formula_sum   'Zn2 H40 C42 N6 O12'
_cell_volume   3223.23236357
_cell_formula_units_Z   2
loop_
 _symmetry_equiv_pos_site_id
 _symmetry_equiv_pos_as_xyz
  1  'x, y, z'
loop_
 _atom_site_type_symbol
 _atom_site_label
 _atom_site_symmetry_multiplicity
 _atom_site_fract_x
 _atom_site_fract_y
 _atom_site_fract_z
 _atom_site_occupancy
 _atom_site_pbe_bader_charge
 _atom_site_pbe_bader_spin_density
 _atom_site_pbe_cm5_charge
 _atom_site_pbe_ddec_charge
 _atom_site_pbe_ddec_spin_density
 _atom_site_pbe_ddec_sum_bond_order
 _atom_site_pbe_magmom
Zn  Zn0  1  0.50646366  0.59211970  0.50334180  1  1.29399  0  0.677113  0.850799  0  2.357673  0
Zn  Zn1  1  0.49424720  0.41241872  0.48863270  1  1.30466  0  0.682064  0.850291  0  2.403771  0
H  H2  1  0.38043544  0.59640557  0.74496850  1  0.091627  0  0.106675  0.1117  0  0.98398  0
H  H3  1  0.53944275  0.34859527  0.88685755  1  0.062119  0  0.104701  0.115685  0  1.033782  0
H  H4  1  0.38036535  0.69676378  0.32028432  1  0.073082  0  0.095156  0.067167  0  0.991367  0
H  H5  1  0.35724563  0.72610046  0.21963302  1  0.034263  0  0.091556  0.048105  0  0.980928  0
H  H6  1  0.53410532  0.80510931  0.32507667  1  0.036473  0  0.086492  0.077798  0  1.008422  0
H  H7  1  0.50378471  0.83615516  0.22759756  1  0.023282  0  0.089645  0.080129  0  0.971965  0
H  H8  1  0.30465476  0.87786394  0.26934902  1  0.007284  0  0.084546  0.109351  0  1.003391  0
H  H9  1  0.40757514  0.93249195  0.32305818  1  0.032869  0  0.082649  0.110763  0  1.007559  0
H  H10  1  0.33564861  0.84633805  0.36713645  1  0.00332  0  0.079353  0.103994  0  1.024168  0
H  H11  1  0.53516873  0.24305093  0.78620006  1  0.012165  0  0.093595  0.048342  0  0.989613  0
H  H12  1  0.67025311  0.28462042  0.80976426  1  0.027721  0  0.099398  0.062356  0  0.964917  0
H  H13  1  0.45660252  0.38824744  0.25807061  1  0.071304  0  0.104864  0.110702  0  0.995666  0
H  H14  1  0.60891177  0.23158520  0.64414710  1  0.0358  0  0.089836  0.085834  0  0.999298  0
H  H15  1  0.74452705  0.25510902  0.67835365  1  0.032112  0  0.098134  0.096096  0  0.959573  0
H  H16  1  0.73585334  0.12557425  0.76952424  1  -0.005632  0  0.085632  0.110632  0  1.002793  0
H  H17  1  0.72180867  0.09975100  0.66952330  1  0.040282  0  0.086153  0.114765  0  1.002166  0
H  H18  1  0.60055798  0.10281451  0.73132393  1  0.011671  0  0.08135  0.103965  0  1.011563  0
H  H19  1  0.84362506  0.70369475  0.45447941  1  0.101851  0  0.118936  0.094341  0  0.948871  0
H  H20  1  0.80353119  0.80635499  0.48374515  1  0.048839  0  0.102361  0.061624  0  0.981698  0
H  H21  1  0.77197265  0.73638742  0.31869598  1  0.037981  0  0.105353  0.110063  0  0.953515  0
H  H22  1  0.74483009  0.84089642  0.34529911  1  0.028764  0  0.089705  0.079525  0  0.989875  0
H  H23  1  0.95336865  0.85911975  0.37715679  1  0.011011  0  0.083754  0.104616  0  1.007626  0
H  H24  1  0.65911204  0.13281514  0.40140913  1  0.094598  0  0.118609  0.13249  0  0.985839  0
H  H25  1  0.93448355  0.82993563  0.27838949  1  0.057539  0  0.092423  0.121316  0  0.995313  0
H  H26  1  0.97953252  0.75421134  0.34899770  1  0.035227  0  0.091961  0.118246  0  0.996705  0
H  H27  1  0.38788630  0.24942103  0.68085884  1  0.027143  0  0.10336  0.067469  0  0.991525  0
H  H28  1  0.27047162  0.19366824  0.64147828  1  0.040088  0  0.098473  0.057074  0  0.975361  0
H  H29  1  0.27330436  0.38327315  0.66215603  1  0.071374  0  0.099355  0.106495  0  0.984163  0
H  H30  1  0.15472031  0.32233441  0.63816166  1  0.046875  0  0.095661  0.090731  0  0.965315  0
H  H31  1  0.16987397  0.24867432  0.77380636  1  -0.003829  0  0.080691  0.10059  0  1.011578  0
H  H32  1  0.14429153  0.35793383  0.77966304  1  0.026255  0  0.092816  0.12461  0  0.990012  0
H  H33  1  0.28228186  0.31780952  0.79578869  1  0.03332  0  0.08163  0.107613  0  1.02701  0
H  H34  1  0.65866011  0.89434707  0.46699246  1  0.117887  0  0.113672  0.129933  0  1.040914  0
H  H35  1  0.32393267  0.87540503  0.56765699  1  0.092336  0  0.117526  0.130495  0  0.98871  0
H  H36  1  0.39481528  0.11183334  0.57638215  1  0.098968  0  0.114353  0.131322  0  1.032895  0
H  H37  1  0.62217696  0.28990164  0.39693534  1  0.149441  0  0.134254  0.11229  0  0.958556  0
H  H38  1  0.34033064  0.71698925  0.55557950  1  0.144406  0  0.130401  0.112296  0  0.980056  0
H  H39  1  0.35641949  0.58152348  0.89130260  1  0.123447  0  0.102975  0.108595  0  1.018677  0
H  H40  1  0.42418854  0.38275867  0.11290891  1  0.096037  0  0.103214  0.107957  0  1.014238  0
H  H41  1  0.46929478  0.64963924  0.09785455  1  0.072524  0  0.110637  0.127712  0  0.99401  0
C  C42  1  0.50120595  0.51651361  0.34621169  1  1.588972  0  0.217178  0.612221  0  4.154368  0
C  C43  1  0.49107052  0.89422814  0.51814570  1  0.313196  0  0.10283  0.225359  0  4.056063  0
C  C44  1  0.59425815  0.16180211  0.43769773  1  0.055143  0  -0.082091  -0.217532  0  3.940617  0
C  C45  1  0.39972786  0.84547198  0.54444304  1  -0.00688  0  -0.084188  -0.221849  0  3.950526  0
C  C46  1  0.57347072  0.24743977  0.43460311  1  0.457239  0  0.067395  0.140797  0  3.924475  0
C  C47  1  0.40851209  0.75915469  0.53805334  1  0.52054  0  0.06531  0.134928  0  3.920735  0
C  C48  1  0.71811098  0.47953355  0.50593126  1  1.722128  0  0.217596  0.656445  0  4.261271  0
C  C49  1  0.28066257  0.51102124  0.49416590  1  1.723186  0  0.216278  0.653948  0  4.271194  0
C  C50  1  0.84027204  0.48076935  0.50953312  1  -0.102813  0  -0.020224  -0.147844  0  3.878377  0
C  C51  1  0.15892795  0.50717429  0.50132558  1  -0.089793  0  -0.022242  -0.150981  0  3.885449  0
C  C52  1  0.94316930  0.48867973  0.50903118  1  -0.119781  0  -0.031744  -0.000453  0  4.291231  0
C  C53  1  0.48546891  0.49505946  0.64680351  1  1.605236  0  0.215628  0.608287  0  4.173242  0
C  C54  1  0.05638896  0.49799202  0.50611522  1  -0.035183  0  -0.030074  0.002746  0  4.287113  0
C  C55  1  0.48201559  0.52065731  0.25948107  1  0.000748  0  -0.015602  -0.120835  0  3.896437  0
C  C56  1  0.47332547  0.48188422  0.73355644  1  -0.025514  0  -0.01753  -0.118653  0  3.912951  0
C  C57  1  0.45900051  0.44494048  0.22160033  1  0.007976  0  -0.081992  -0.062638  0  3.989031  0
C  C58  1  0.41462652  0.54223003  0.77683444  1  -0.04419  0  -0.083209  -0.067616  0  4.008066  0
C  C59  1  0.44084298  0.44158482  0.14167867  1  -0.019456  0  -0.09334  -0.165212  0  3.977322  0
C  C60  1  0.40077682  0.53430296  0.85742496  1  -0.049131  0  -0.099401  -0.177682  0  3.993282  0
C  C61  1  0.44542583  0.51626119  0.09680978  1  0.309666  0  0.085235  0.191279  0  4.070643  0
C  C62  1  0.44845584  0.46446602  0.89621239  1  0.34235  0  0.083442  0.196762  0  4.068097  0
C  C63  1  0.46483970  0.59239877  0.13355253  1  -0.019422  0  -0.090246  -0.259281  0  3.942748  0
C  C64  1  0.48467235  0.59534478  0.21397667  1  0.508202  0  0.089382  0.249845  0  4.038879  0
C  C65  1  0.50358509  0.40132231  0.85396658  1  -0.003318  0  -0.106102  -0.296885  0  3.970611  0
C  C66  1  0.42032872  0.72402797  0.26711907  1  0.388451  0  -0.068696  0.041833  0  3.892536  0
C  C67  1  0.46550530  0.81096343  0.28211176  1  -0.012832  0  -0.169164  -0.124296  0  3.982944  0
C  C68  1  0.37327898  0.87012012  0.31203135  1  -0.042628  0  -0.246346  -0.351906  0  3.98795  0
C  C69  1  0.61014052  0.27555413  0.76148985  1  0.451653  0  -0.062442  0.036219  0  3.907497  0
C  C70  1  0.66397651  0.22575994  0.69560839  1  0.011681  0  -0.167053  -0.129809  0  3.97643  0
C  C71  1  0.68157850  0.13359890  0.71788970  1  -0.056255  0  -0.244081  -0.353756  0  3.997213  0
C  C72  1  0.78620382  0.75652733  0.44173452  1  0.353591  0  -0.052627  0.041169  0  3.850432  0
C  C73  1  0.80024184  0.78648957  0.35713549  1  0.00233  0  -0.16548  -0.141114  0  3.977125  0
C  C74  1  0.92362269  0.80873652  0.33951075  1  -0.077038  0  -0.239803  -0.351535  0  3.980834  0
C  C75  1  0.51759226  0.41010966  0.77273787  1  0.525181  0  0.090909  0.247692  0  4.044376  0
C  C76  1  0.31245491  0.25505067  0.64354510  1  0.41664  0  -0.055569  0.049366  0  3.853489  0
C  C77  1  0.23255938  0.32252862  0.67303495  1  -0.020039  0  -0.165719  -0.132311  0  3.957678  0
C  C78  1  0.20583825  0.31070809  0.76029310  1  -0.043411  0  -0.242879  -0.350821  0  3.97725  0
C  C79  1  0.42942238  0.23654272  0.52853317  1  1.079436  0  0.22692  0.413982  0  4.061534  0
C  C80  1  0.59066336  0.76869747  0.48491558  1  1.10614  0  0.228729  0.416071  0  4.056017  0
C  C81  1  0.44593370  0.15005758  0.53662421  1  0.036044  0  -0.091282  -0.318726  0  3.917479  0
C  C82  1  0.58878293  0.85617696  0.48840686  1  0.002966  0  -0.092897  -0.326945  0  3.922861  0
C  C83  1  0.52828723  0.11276352  0.48917511  1  0.29499  0  0.103315  0.224319  0  4.055554  0
N  N84  1  0.43693609  0.52244750  0.01455825  1  -0.453503  0  -0.151139  -0.135586  0  3.290448  0
N  N85  1  0.45110526  0.45428624  0.97874268  1  -0.50469  0  -0.153684  -0.139853  0  3.257905  0
N  N86  1  0.49339234  0.28376447  0.47901125  1  -1.226252  0  -0.318233  -0.289402  0  3.457308  0
N  N87  1  0.50154363  0.72175659  0.50904721  1  -1.206985  0  -0.315298  -0.285791  0  3.442894  0
N  N88  1  0.54916168  0.02510290  0.48748373  1  -0.451097  0  -0.132035  -0.114358  0  3.225672  0
N  N89  1  0.47389223  0.98209941  0.52188836  1  -0.450882  0  -0.131181  -0.112636  0  3.23431  0
O  O90  1  0.48543787  0.58266731  0.38534302  1  -1.153671  0  -0.307009  -0.539251  0  2.366058  0
O  O91  1  0.57600996  0.35456732  0.72804076  1  -1.079179  0  -0.176711  -0.189314  0  2.575852  0
O  O92  1  0.67551833  0.72189742  0.45754460  1  -1.064118  0  -0.149717  -0.184846  0  2.574716  0
O  O93  1  0.34981456  0.28087054  0.56578982  1  -1.068103  0  -0.157041  -0.196399  0  2.561505  0
O  O94  1  0.46792684  0.43194616  0.60435366  1  -1.158685  0  -0.309417  -0.551642  0  2.415988  0
O  O95  1  0.52970760  0.44507603  0.37478310  1  -1.171301  0  -0.322407  -0.561081  0  2.32815  0
O  O96  1  0.50861764  0.56881421  0.62259770  1  -1.155461  0  -0.318995  -0.541956  0  2.280226  0
O  O97  1  0.67232738  0.55151765  0.49893575  1  -1.142105  0  -0.30475  -0.537289  0  2.317876  0
O  O98  1  0.32770265  0.44549389  0.46755893  1  -1.137221  0  -0.309392  -0.532156  0  2.275103  0
O  O99  1  0.66955788  0.40885111  0.50893493  1  -1.145336  0  -0.311284  -0.538902  0  2.24321  0
O  O100  1  0.32830458  0.57810725  0.51507869  1  -1.153775  0  -0.310904  -0.553386  0  2.272517  0
O  O101  1  0.51426339  0.67139897  0.24433081  1  -1.074115  0  -0.209958  -0.246616  0  2.512774  0
