# generated using pymatgen
data_CuH28(C2N)14
_symmetry_space_group_name_H-M   'P 1'
_cell_length_a   8.27135602
_cell_length_b   9.34599656
_cell_length_c   9.43581199
_cell_angle_alpha   104.67543660
_cell_angle_beta   90.40609588
_cell_angle_gamma   104.57406095
_symmetry_Int_Tables_number   1
_chemical_formula_structural   CuH28(C2N)14
_chemical_formula_sum   'Cu1 H28 C28 N14'
_cell_volume   680.96771999
_cell_formula_units_Z   1
loop_
 _symmetry_equiv_pos_site_id
 _symmetry_equiv_pos_as_xyz
  1  'x, y, z'
loop_
 _atom_site_type_symbol
 _atom_site_label
 _atom_site_symmetry_multiplicity
 _atom_site_fract_x
 _atom_site_fract_y
 _atom_site_fract_z
 _atom_site_occupancy
 _atom_site_hle17_ddec_charge
 _atom_site_hle17_ddec_spin_density
 _atom_site_hle17_ddec_sum_bond_order
 _atom_site_hle17_magmom
 _atom_site_hse06_10hf_ddec_charge
 _atom_site_hse06_10hf_ddec_spin_density
 _atom_site_hse06_10hf_ddec_sum_bond_order
 _atom_site_hse06_10hf_magmom
 _atom_site_hse06_ddec_charge
 _atom_site_hse06_ddec_spin_density
 _atom_site_hse06_ddec_sum_bond_order
 _atom_site_hse06_magmom
 _atom_site_pbe_cm5_charge
 _atom_site_pbe_ddec_charge
 _atom_site_pbe_ddec_spin_density
 _atom_site_pbe_ddec_sum_bond_order
 _atom_site_pbe_magmom
Cu  Cu0  1  0.49999969  0.49999653  0.49999869  1  0.801181  -0.70585  1.95285  -0.533  0.769868  -0.785329  2.335576  -0.638  0.84353  -0.84067  2.281189  -0.709  0.79986  0.72501  -0.746987  2.372092  -0.592
H  H1  1  0.30373329  0.17830103  0.56868189  1  0.105373  -1.3e-05  1.003807  0.0  0.104486  -0.000127  1.085243  0.0  0.107396  -7.4e-05  1.081116  0.0  0.12755  0.102242  -0.000193  1.088522  -0.001
H  H2  1  0.69626280  0.82169318  0.43131469  1  0.105422  0.0  1.003783  0.0  0.104537  -0.000127  1.085204  0.0  0.107445  -7.4e-05  1.081089  0.0  0.127572  0.10229  -0.000193  1.088483  -0.001
H  H3  1  0.90386868  0.38225349  0.69106067  1  0.11336  -0.000511  0.978614  -0.001  0.120783  -0.000425  1.044321  -0.001  0.122724  -0.000312  1.044878  0.0  0.116878  0.119397  -0.000504  1.043913  -0.001
H  H4  1  0.09613475  0.61774530  0.30894029  1  0.113368  -0.000505  0.978558  -0.001  0.12076  -0.000425  1.044299  -0.001  0.122721  -0.000312  1.044833  0.0  0.116852  0.119374  -0.000504  1.043891  -0.001
H  H5  1  0.16198181  0.58819196  0.59904379  1  0.104973  -0.000182  0.97285  -0.001  0.112331  -0.000358  1.035878  -0.001  0.113586  -0.000249  1.036214  -0.001  0.116589  0.111306  -0.000443  1.03567  -0.001
H  H6  1  0.83802492  0.41180569  0.40096010  1  0.10493  -0.000186  0.972835  -0.001  0.112319  -0.000358  1.035826  -0.001  0.113574  -0.000249  1.036161  -0.001  0.116569  0.111292  -0.000443  1.03562  -0.001
H  H7  1  0.06442139  0.02513723  0.66716201  1  0.101986  4.2e-05  0.958467  0.0  0.114104  1.5e-05  1.024775  0.0  0.115979  2.1e-05  1.022769  0.0  0.113828  0.113223  1.6e-05  1.025636  0.0
H  H8  1  0.93556986  0.97485699  0.33283771  1  0.101973  3.5e-05  0.958517  0.0  0.114102  1.5e-05  1.024812  0.0  0.115975  2.1e-05  1.022803  0.0  0.113849  0.113225  1.6e-05  1.025668  0.0
H  H9  1  0.88063499  0.04317555  0.57913381  1  0.085578  0.000139  0.970599  0.0  0.09498  7.2e-05  1.044661  0.0  0.095781  7.1e-05  1.044229  0.0  0.107928  0.094354  5.1e-05  1.044978  0.0
H  H10  1  0.11935757  0.95682325  0.42086706  1  0.085526  0.000146  0.970693  0.0  0.094957  7.2e-05  1.044716  0.0  0.095756  7.1e-05  1.044286  0.0  0.107943  0.09433  5.1e-05  1.045037  0.0
H  H11  1  0.65163955  0.06257773  0.69841641  1  0.103711  1.9e-05  0.967173  0.0  0.110703  -1.6e-05  1.033212  0.0  0.112508  -1.7e-05  1.033663  0.0  0.104986  0.109352  -1.6e-05  1.03341  0.0
H  H12  1  0.34835806  0.93743024  0.30158678  1  0.10375  1e-06  0.967134  0.0  0.110743  -1.7e-05  1.033159  0.0  0.112548  -1.7e-05  1.033609  0.0  0.105003  0.109393  -1.6e-05  1.033359  0.0
H  H13  1  0.50304542  0.11488758  0.92512769  1  0.088292  6e-06  0.963139  0.0  0.098284  1e-06  1.027132  0.0  0.100661  1e-06  1.027082  0.0  0.098214  0.096728  1e-06  1.027067  0.0
H  H14  1  0.49695427  0.88511925  0.07487735  1  0.088276  -1e-06  0.96315  0.0  0.098258  1e-06  1.027161  0.0  0.100634  1e-06  1.027109  0.0  0.098193  0.096702  1e-06  1.027094  0.0
H  H15  1  0.66680780  0.21893833  0.17031573  1  0.094614  5.3e-05  0.975342  0.0  0.101417  1.3e-05  1.042599  0.0  0.103477  1.4e-05  1.042499  0.0  0.100644  0.100263  1.2e-05  1.042503  0.0
H  H16  1  0.33319420  0.78106392  0.82968926  1  0.094617  6.1e-05  0.975367  0.0  0.101419  1.3e-05  1.042626  0.0  0.103479  1.4e-05  1.042525  0.0  0.100661  0.100263  1.2e-05  1.042528  0.0
H  H17  1  0.97449639  0.25747448  0.18428919  1  0.095023  3.4e-05  0.951796  0.0  0.107503  2.7e-05  1.009114  0.0  0.110316  2.5e-05  1.008282  0.0  0.1014  0.105396  2.6e-05  1.010111  0.0
H  H18  1  0.02550463  0.74252432  0.81571175  1  0.095042  3e-05  0.951771  0.0  0.107525  2.7e-05  1.009089  0.0  0.110338  2.5e-05  1.008256  0.0  0.101408  0.105415  2.6e-05  1.010083  0.0
H  H19  1  0.20001365  0.09413550  0.97832235  1  0.087906  -4.8e-05  0.944573  0.0  0.102506  -7.6e-05  1.01048  0.0  0.10195  -4.8e-05  1.012982  0.0  0.114864  0.102517  -4.9e-05  1.009532  0.0
H  H20  1  0.79998683  0.90586559  0.02167809  1  0.087853  -4.6e-05  0.944603  0.0  0.102479  -7.6e-05  1.0105  0.0  0.101921  -4.8e-05  1.013001  0.0  0.114852  0.102489  -4.9e-05  1.009551  0.0
H  H21  1  0.23116625  0.21236058  0.85738255  1  0.090317  -8.1e-05  0.942943  0.0  0.102381  -8.3e-05  1.009738  0.0  0.10338  -4.5e-05  1.008699  0.0  0.117099  0.101629  -9.3e-05  1.01035  0.0
H  H22  1  0.76883203  0.78763706  0.14261490  1  0.090342  -6.8e-05  0.942904  0.0  0.102418  -8.3e-05  1.009697  0.0  0.103416  -4.6e-05  1.008658  0.0  0.117119  0.101664  -9.3e-05  1.010314  0.0
H  H23  1  0.32237965  0.20970542  0.23685832  1  0.100351  1e-06  0.960951  0.0  0.10425  -9.4e-05  1.033814  0.0  0.105879  -4.8e-05  1.032164  0.0  0.13205  0.102004  -0.000139  1.036758  0.0
H  H24  1  0.67761995  0.79029682  0.76314134  1  0.100383  -5e-06  0.960918  0.0  0.104252  -9.5e-05  1.033811  0.0  0.105878  -4.8e-05  1.032158  0.0  0.132054  0.102001  -0.000139  1.036752  0.0
H  H25  1  0.42411691  0.68202009  0.26792909  1  0.108834  -0.000108  0.96941  0.0  0.113797  -0.0003  1.03705  -0.001  0.115237  -0.000196  1.036926  0.0  0.11761  0.112087  -0.000391  1.038807  -0.001
H  H26  1  0.57587961  0.31797985  0.73206997  1  0.108791  -0.000133  0.96936  -0.001  0.113769  -0.0003  1.036987  -0.001  0.11521  -0.000196  1.036861  0.0  0.117587  0.112061  -0.000391  1.038745  -0.001
H  H27  1  0.26046831  0.51870806  0.99228834  1  0.12163  -0.00059  0.952481  -0.001  0.131982  -0.000511  1.011221  -0.001  0.13409  -0.000379  1.011462  0.0  0.12292  0.13048  -0.00061  1.011243  -0.001
H  H28  1  0.73953304  0.48129188  0.00771076  1  0.121625  -0.000573  0.952452  -0.001  0.131955  -0.000511  1.011217  -0.001  0.134062  -0.000379  1.011458  0.0  0.122914  0.130453  -0.00061  1.01124  -0.001
C  C29  1  0.23196602  0.26333392  0.58826845  1  0.140502  0.008912  3.630924  0.005  0.088277  0.002644  3.894879  0.001  0.102679  0.004121  3.907639  0.002  0.13317  0.078566  0.001683  3.886278  0.0
C  C30  1  0.76803216  0.73665913  0.41172574  1  0.140378  0.008845  3.630891  0.005  0.088157  0.002644  3.894805  0.001  0.102554  0.004121  3.90757  0.002  0.133102  0.078447  0.001683  3.886197  0.0
C  C31  1  0.02474285  0.37257540  0.65249397  1  -0.068794  -0.004193  3.672483  -0.005  -0.107807  -0.002251  3.926453  -0.003  -0.106346  -0.001926  3.944867  -0.002  -0.004531  -0.107928  -0.002529  3.91301  -0.003
C  C32  1  0.97525938  0.62742340  0.34750804  1  -0.068873  -0.004252  3.6724  -0.005  -0.107874  -0.00225  3.926397  -0.003  -0.106433  -0.001926  3.944799  -0.002  -0.004551  -0.107995  -0.002528  3.912956  -0.003
C  C33  1  0.15248053  0.47302259  0.60727783  1  -0.008698  0.00185  3.755081  0.0  -0.038935  0.000352  4.026639  0.0  -0.035297  0.001422  4.046816  0.001  -0.007854  -0.041132  -0.000505  4.012594  -0.001
C  C34  1  0.84752378  0.52697506  0.39272497  1  -0.008618  0.001914  3.754909  0.001  -0.038882  0.000353  4.026449  0.0  -0.035244  0.00142  4.04663  0.001  -0.007819  -0.041078  -0.000506  4.012406  -0.001
C  C35  1  0.97862803  0.09838430  0.66949987  1  -0.067242  -0.000848  3.646815  -0.001  -0.133199  -0.000738  3.887773  -0.001  -0.129061  -0.000549  3.898604  -0.001  -0.058444  -0.135934  -0.000869  3.880088  -0.001
C  C36  1  0.02136661  0.90161336  0.33050074  1  -0.067237  -0.000843  3.646897  -0.001  -0.133217  -0.000736  3.887911  -0.001  -0.129069  -0.000548  3.898735  -0.001  -0.058492  -0.135951  -0.000869  3.880232  -0.001
C  C37  1  0.89622829  0.12851418  0.81204767  1  0.021347  0.000274  3.733899  0.0  0.040319  7.1e-05  3.966558  0.0  0.038576  0.000144  3.990951  0.0  -0.015302  0.041499  -0.000109  3.951107  0.0
C  C38  1  0.10376888  0.87148806  0.18795303  1  0.021327  0.000338  3.733809  0.0  0.040235  6.6e-05  3.966548  0.0  0.038482  0.000151  3.990948  0.0  -0.015284  0.041414  -0.000108  3.951108  0.0
C  C39  1  0.72198789  0.10463254  0.80562265  1  -0.120246  -0.000769  3.751525  -0.001  -0.137758  -0.000312  3.996347  0.0  -0.140201  -0.000239  4.018707  0.0  -0.091908  -0.13691  -0.000379  3.983831  0.0
C  C40  1  0.27801027  0.89537314  0.19438104  1  -0.120215  -0.000775  3.751502  -0.001  -0.137697  -0.00031  3.99634  0.0  -0.140137  -0.000242  4.0187  0.0  -0.091905  -0.136852  -0.000379  3.983832  0.0
C  C41  1  0.63881685  0.13531269  0.93343482  1  -0.071505  0.000536  3.779387  0.0  -0.085875  0.000116  4.029565  0.0  -0.088138  0.000163  4.05104  0.0  -0.094774  -0.083829  5.4e-05  4.015704  0.0
C  C42  1  0.36118284  0.86469414  0.06656916  1  -0.071541  0.000622  3.779359  0.0  -0.085903  0.000117  4.029542  0.0  -0.088165  0.000166  4.051018  0.0  -0.094769  -0.083856  5.4e-05  4.015681  0.0
C  C43  1  0.73027659  0.19229165  0.06982416  1  -0.074339  -0.000573  3.781624  -0.001  -0.089221  -0.000216  4.036403  0.0  -0.089991  -0.000154  4.056803  0.0  -0.092998  -0.08869  -0.000328  4.02239  0.0
C  C44  1  0.26972541  0.80771059  0.93017870  1  -0.07425  -0.000631  3.781562  -0.001  -0.089131  -0.000217  4.036338  0.0  -0.089902  -0.000156  4.056737  0.0  -0.092967  -0.088598  -0.000328  4.022319  0.0
C  C45  1  0.90406716  0.21472354  0.07719573  1  -0.122081  0.000131  3.760831  0.0  -0.144605  3.6e-05  4.015571  0.0  -0.147075  9.8e-05  4.036199  0.0  -0.095668  -0.142794  8.6e-05  4.00159  0.0
C  C46  1  0.09593418  0.78527640  0.92280549  1  -0.122207  0.000201  3.760809  0.0  -0.144726  3.7e-05  4.015543  0.0  -0.147198  0.000102  4.036173  0.0  -0.095746  -0.142912  8.6e-05  4.001554  0.0
C  C47  1  0.98849453  0.18242220  0.94972525  1  0.023924  -0.000251  3.711678  0.0  0.036446  -0.000183  3.953824  0.0  0.035918  -0.000121  3.97711  0.0  -0.014037  0.036981  -0.000276  3.93755  0.0
C  C48  1  0.01150649  0.81757658  0.05027251  1  0.023967  -0.000305  3.711591  0.0  0.036519  -0.000181  3.953776  0.0  0.035994  -0.000125  3.977064  0.0  -0.014014  0.037055  -0.000276  3.937501  0.0
C  C49  1  0.17571397  0.19870631  0.95982027  1  -0.041093  -0.001001  3.650312  -0.001  -0.10738  -0.000793  3.898708  -0.001  -0.102307  -0.000578  3.9085  -0.001  -0.045682  -0.110452  -0.000915  3.8916  -0.001
C  C50  1  0.82428464  0.80129248  0.04017747  1  -0.041042  -0.001026  3.650288  -0.001  -0.107381  -0.000792  3.898753  -0.001  -0.102305  -0.000578  3.908541  -0.001  -0.045706  -0.110458  -0.000915  3.891644  -0.001
C  C51  1  0.32613476  0.31650033  0.20971958  1  0.158301  0.010103  3.638546  0.006  0.103442  0.0034  3.905546  0.001  0.118539  0.004819  3.918422  0.002  0.142311  0.094066  0.002422  3.896985  0.001
C  C52  1  0.67386506  0.68349846  0.79027711  1  0.158267  0.010186  3.638627  0.006  0.103437  0.0034  3.905623  0.001  0.118539  0.00482  3.918495  0.002  0.14229  0.094064  0.002422  3.897052  0.001
C  C53  1  0.37777569  0.55978154  0.21973937  1  -0.009411  0.001579  3.751164  0.0  -0.038477  -1.9e-05  4.023304  -0.001  -0.03535  0.000999  4.043824  0.0  -0.004932  -0.040874  -0.000745  4.01107  -0.001
C  C54  1  0.62222631  0.44022070  0.78026244  1  -0.009414  0.001792  3.75118  0.0  -0.0385  -2e-05  4.023325  -0.001  -0.035373  0.001002  4.043844  0.0  -0.004935  -0.040901  -0.000745  4.011095  -0.001
C  C55  1  0.29742115  0.48053840  0.08386232  1  -0.064366  -0.004068  3.665529  -0.004  -0.10569  -0.002279  3.921501  -0.003  -0.103919  -0.001968  3.939907  -0.002  1.9e-05  -0.106897  -0.002518  3.90959  -0.003
C  C56  1  0.70258208  0.51946382  0.91613525  1  -0.064271  -0.004205  3.665517  -0.004  -0.105571  -0.002278  3.921485  -0.003  -0.103799  -0.001971  3.939892  -0.002  4.3e-05  -0.106779  -0.002518  3.909575  -0.003
N  N57  1  0.27978291  0.40340992  0.56772284  1  -0.337585  -0.071932  3.35693  -0.096  -0.295001  -0.053204  3.663254  -0.075  -0.324512  -0.043322  3.685324  -0.065  -0.373198  -0.276616  -0.059662  3.648707  -0.08
N  N58  1  0.72021900  0.59658773  0.43227570  1  -0.337577  -0.07193  3.356739  -0.096  -0.29497  -0.053204  3.663035  -0.075  -0.32448  -0.04332  3.685104  -0.065  -0.373162  -0.276585  -0.059663  3.648484  -0.08
N  N59  1  0.07722811  0.24106878  0.64020118  1  -0.053344  -0.000892  3.559246  -0.002  0.043804  -0.001086  3.768507  -0.002  0.028814  -0.000607  3.794813  -0.001  -0.244216  0.053795  -0.001505  3.750045  -0.002
N  N60  1  0.92277138  0.75892886  0.35979628  1  -0.053215  -0.000864  3.559074  -0.002  0.043952  -0.001087  3.768281  -0.002  0.028962  -0.000607  3.79459  -0.001  -0.244169  0.053942  -0.001505  3.749818  -0.002
N  N61  1  0.26616085  0.32691192  0.07939316  1  -0.059021  -0.0009  3.58942  -0.002  0.035359  -0.000949  3.804123  -0.002  0.020844  -0.000502  3.828867  -0.001  -0.243658  0.045069  -0.001302  3.786471  -0.002
N  N62  1  0.73384149  0.67309145  0.92060575  1  -0.059168  -0.00089  3.589447  -0.002  0.035218  -0.000951  3.804173  -0.002  0.020701  -0.000502  3.828916  -0.001  -0.243678  0.04493  -0.001302  3.786515  -0.002
N  N63  1  0.39410464  0.45592045  0.29627408  1  -0.330355  -0.073136  3.355087  -0.097  -0.290538  -0.052528  3.663167  -0.074  -0.319906  -0.042942  3.684864  -0.064  -0.368443  -0.271613  -0.058851  3.648119  -0.079
N  N64  1  0.60589672  0.54407949  0.70372502  1  -0.330265  -0.073178  3.355138  -0.097  -0.290438  -0.052527  3.663204  -0.074  -0.319807  -0.042942  3.6849  -0.064  -0.368395  -0.271513  -0.058849  3.648154  -0.079
N  N65  1  0.54939094  0.23417096  0.42967301  1  -0.554381  -0.007178  2.527144  -0.011  -0.562205  0.001625  2.806909  0.0  -0.57767  0.001764  2.812756  0.0  -0.282125  -0.551838  0.001398  2.803479  0.0
N  N66  1  0.45060777  0.76583242  0.57032905  1  -0.554462  -0.00718  2.527116  -0.011  -0.562248  0.001633  2.806918  0.0  -0.577713  0.001764  2.812764  0.0  -0.282139  -0.551882  0.001397  2.803485  0.0
N  N67  1  0.62507937  0.13915235  0.40666006  1  0.375369  0.003634  4.321577  0.004  0.425463  0.000257  4.606808  0.0  0.440975  0.000224  4.634435  0.0  0.053584  0.415281  0.000254  4.588511  0.0
N  N68  1  0.37492055  0.86085103  0.59333989  1  0.375456  0.003626  4.321718  0.004  0.425465  0.000256  4.607021  0.0  0.440976  0.000226  4.634648  0.0  0.053574  0.415283  0.000254  4.588721  0.0
N  N69  1  0.69896757  0.04290158  0.38078520  1  -0.539523  -0.007194  2.462023  -0.009  -0.540888  0.000586  2.709545  0.0  -0.551324  0.000722  2.717125  0.0  -0.283795  -0.533251  0.000422  2.704728  0.0
N  N70  1  0.30103643  0.95709491  0.61920883  1  -0.539528  -0.007197  2.462168  -0.009  -0.540846  0.000577  2.709725  0.0  -0.551281  0.00072  2.717304  0.0  -0.283792  -0.533211  0.000422  2.704906  0.0
