# generated using pymatgen
data_ZnH8(CO2)4
_symmetry_space_group_name_H-M   'P 1'
_cell_length_a   6.72585301
_cell_length_b   8.04924645
_cell_length_c   8.04924563
_cell_angle_alpha   111.77190890
_cell_angle_beta   95.53317112
_cell_angle_gamma   95.53280047
_symmetry_Int_Tables_number   1
_chemical_formula_structural   ZnH8(CO2)4
_chemical_formula_sum   'Zn2 H16 C8 O16'
_cell_volume   398.66072168
_cell_formula_units_Z   2
loop_
 _symmetry_equiv_pos_site_id
 _symmetry_equiv_pos_as_xyz
  1  'x, y, z'
loop_
 _atom_site_type_symbol
 _atom_site_label
 _atom_site_symmetry_multiplicity
 _atom_site_fract_x
 _atom_site_fract_y
 _atom_site_fract_z
 _atom_site_occupancy
 _atom_site_pbe_bader_spin_density
 _atom_site_pbe_cm5_charge
 _atom_site_pbe_ddec_charge
 _atom_site_pbe_ddec_spin_density
 _atom_site_pbe_ddec_sum_bond_order
 _atom_site_pbe_magmom
Zn  Zn0  1  0.99999843  0.99999930  0.50000093  1  0  0.674839  1.035463  0  2.166166  0
Zn  Zn1  1  0.50000160  0.50000045  0.99999950  1  0  0.67479  1.035395  0  2.166136  0
H  H2  1  0.37619548  0.14111613  0.44484961  1  0  0.295255  0.391767  0  0.938978  0
H  H3  1  0.12380317  0.55515016  0.85888385  1  0  0.295258  0.391758  0  0.938989  0
H  H4  1  0.62380092  0.85888279  0.55515129  1  0  0.29524  0.391712  0  0.939053  0
H  H5  1  0.87619899  0.44484743  0.14111329  1  0  0.295233  0.391747  0  0.939006  0
H  H6  1  0.38430078  0.15406912  0.64951993  1  0  0.296996  0.392529  0  0.942741  0
H  H7  1  0.11569867  0.35048031  0.84593136  1  0  0.296991  0.392497  0  0.94279  0
H  H8  1  0.61569711  0.84592980  0.35048109  1  0  0.29703  0.392594  0  0.942665  0
H  H9  1  0.88430370  0.64951864  0.15406878  1  0  0.297013  0.392567  0  0.942715  0
H  H10  1  0.95186519  0.28162097  0.40481242  1  0  0.288919  0.375511  0  0.966204  0
H  H11  1  0.54813456  0.59518883  0.71838018  1  0  0.288891  0.375482  0  0.966245  0
H  H12  1  0.04813440  0.71837931  0.59518924  1  0  0.288892  0.37547  0  0.966266  0
H  H13  1  0.45186482  0.40481010  0.28161972  1  0  0.288877  0.375464  0  0.966278  0
H  H14  1  0.75721000  0.23230955  0.47833883  1  0  0.303965  0.389231  0  0.928962  0
H  H15  1  0.74278873  0.52165941  0.76769090  1  0  0.303959  0.389238  0  0.928961  0
H  H16  1  0.24278640  0.76768937  0.52166207  1  0  0.303971  0.389248  0  0.928955  0
H  H17  1  0.25721234  0.47834088  0.23230467  1  0  0.303957  0.389262  0  0.928928  0
C  C18  1  0.00657958  0.05167558  0.89942537  1  0  0.10067  0.16388  0  4.135951  0
C  C19  1  0.49342095  0.10058242  0.94831198  1  0  0.100539  0.163746  0  4.136487  0
C  C20  1  0.99342301  0.94832471  0.10057901  1  0  0.100628  0.163909  0  4.136044  0
C  C21  1  0.50657605  0.89942055  0.05168427  1  0  0.100539  0.163776  0  4.13647  0
C  C22  1  0.00180278  0.13073629  0.09550289  1  0  0.099541  0.150263  0  4.147381  0
C  C23  1  0.49819571  0.90448575  0.86925183  1  0  0.099634  0.150413  0  4.147506  0
C  C24  1  0.99819831  0.86926399  0.90450013  1  0  0.099552  0.150281  0  4.147395  0
C  C25  1  0.50180665  0.09551319  0.13074458  1  0  0.099586  0.150308  0  4.147447  0
O  O26  1  0.30498034  0.09917612  0.52712554  1  0  -0.585829  -0.789149  0  2.160545  0
O  O27  1  0.19501963  0.47287398  0.90082328  1  0  -0.585844  -0.789108  0  2.160591  0
O  O28  1  0.69501605  0.90082280  0.47287536  1  0  -0.58584  -0.789145  0  2.160509  0
O  O29  1  0.80498551  0.52712363  0.09917037  1  0  -0.58583  -0.789182  0  2.160525  0
O  O30  1  0.90482496  0.24866984  0.50468465  1  0  -0.572039  -0.749098  0  2.115878  0
O  O31  1  0.59517505  0.49531325  0.75132780  1  0  -0.571994  -0.749062  0  2.115882  0
O  O32  1  0.09517292  0.75132908  0.49531513  1  0  -0.572013  -0.749055  0  2.115878  0
O  O33  1  0.40482752  0.50468704  0.24866789  1  0  -0.571998  -0.749104  0  2.115875  0
O  O34  1  0.01498604  0.12055021  0.78234757  1  0  -0.282123  -0.417284  0  2.45081  0
O  O35  1  0.48502446  0.21764469  0.87945157  1  0  -0.282058  -0.417282  0  2.451788  0
O  O36  1  0.98501335  0.87944872  0.21765729  1  0  -0.282086  -0.417336  0  2.450954  0
O  O37  1  0.51497662  0.78235560  0.12054648  1  0  -0.282107  -0.417364  0  2.451694  0
O  O38  1  0.00265422  0.28968224  0.20858510  1  0  -0.282752  -0.425369  0  2.317904  0
O  O39  1  0.49734651  0.79142287  0.71032984  1  0  -0.282752  -0.42533  0  2.318457  0
O  O40  1  0.99734900  0.71032210  0.79142209  1  0  -0.282749  -0.425353  0  2.317926  0
O  O41  1  0.50265606  0.20857743  0.28966957  1  0  -0.28275  -0.42529  0  2.318392  0
