# generated using pymatgen
data_CuH7C7INO
_symmetry_space_group_name_H-M   'P 1'
_cell_length_a   4.01799770
_cell_length_b   8.11542013
_cell_length_c   26.19324707
_cell_angle_alpha   89.99936856
_cell_angle_beta   90.00169782
_cell_angle_gamma   89.99938862
_symmetry_Int_Tables_number   1
_chemical_formula_structural   CuH7C7INO
_chemical_formula_sum   'Cu4 H28 C28 I4 N4 O4'
_cell_volume   854.10257450
_cell_formula_units_Z   4
loop_
 _symmetry_equiv_pos_site_id
 _symmetry_equiv_pos_as_xyz
  1  'x, y, z'
loop_
 _atom_site_type_symbol
 _atom_site_label
 _atom_site_symmetry_multiplicity
 _atom_site_fract_x
 _atom_site_fract_y
 _atom_site_fract_z
 _atom_site_occupancy
 _atom_site_hle17_bader_spin_density
 _atom_site_hle17_ddec_charge
 _atom_site_hle17_ddec_spin_density
 _atom_site_hle17_ddec_sum_bond_order
 _atom_site_hle17_magmom
 _atom_site_hse06_10hf_bader_spin_density
 _atom_site_hse06_10hf_ddec_charge
 _atom_site_hse06_10hf_ddec_spin_density
 _atom_site_hse06_10hf_ddec_sum_bond_order
 _atom_site_hse06_10hf_magmom
 _atom_site_hse06_bader_spin_density
 _atom_site_hse06_ddec_charge
 _atom_site_hse06_ddec_spin_density
 _atom_site_hse06_ddec_sum_bond_order
 _atom_site_hse06_magmom
 _atom_site_pbe_bader_spin_density
 _atom_site_pbe_cm5_charge
 _atom_site_pbe_ddec_charge
 _atom_site_pbe_ddec_spin_density
 _atom_site_pbe_ddec_sum_bond_order
 _atom_site_pbe_magmom
Cu  Cu0  1  0.46252091  0.73303839  0.96505997  1  0  0.238856  0  2.205501  0  0  0.15778  0  2.692623  0  0  0.169525  0  2.635869  0  0  0.248629  0.152382  0  2.730133  0
Cu  Cu1  1  0.03747799  0.26696018  0.46505918  1  0  0.238933  0  2.205456  0  0  0.157834  0  2.692576  0  0  0.16961  0  2.635823  0  0  0.248646  0.152426  0  2.730109  0
Cu  Cu2  1  0.96251456  0.76694042  0.03494118  1  0  0.238881  0  2.205565  0  0  0.157764  0  2.692698  0  0  0.169587  0  2.635935  0  0  0.248669  0.152352  0  2.730285  0
Cu  Cu3  1  0.53749771  0.23307273  0.53494062  1  0  0.238883  0  2.205513  0  0  0.157753  0  2.692668  0  0  0.169548  0  2.635906  0  0  0.248635  0.152345  0  2.730197  0
H  H4  1  0.66778732  0.38357615  0.95298543  1  0  0.079142  0  0.947726  0  0  0.084399  0  1.017363  0  0  0.088199  0  1.013704  0  0  0.101351  0.081247  0  1.020493  0
H  H5  1  0.83218247  0.61641886  0.45297675  1  0  0.078955  0  0.947803  0  0  0.084248  0  1.017425  0  0  0.088053  0  1.013766  0  0  0.101278  0.081096  0  1.02056  0
H  H6  1  0.16775348  0.11640922  0.04701535  1  0  0.078985  0  0.947725  0  0  0.084281  0  1.017343  0  0  0.088076  0  1.013683  0  0  0.101317  0.081135  0  1.020478  0
H  H7  1  0.33221074  0.88361365  0.54701692  1  0  0.078998  0  0.947748  0  0  0.084305  0  1.017343  0  0  0.088106  0  1.013681  0  0  0.101367  0.081155  0  1.020476  0
H  H8  1  0.59615841  0.16027908  0.88975638  1  0  0.097584  0  1.006349  0  0  0.109035  0  1.068413  0  0  0.111648  0  1.068877  0  0  0.087066  0.106916  0  1.0685  0
H  H9  1  0.90380932  0.83971319  0.38974610  1  0  0.097464  0  1.006288  0  0  0.108907  0  1.068382  0  0  0.111512  0  1.068885  0  0  0.086987  0.106782  0  1.068476  0
H  H10  1  0.09614438  0.33970421  0.11024636  1  0  0.097434  0  1.006277  0  0  0.108904  0  1.068368  0  0  0.111511  0  1.06887  0  0  0.086967  0.106781  0  1.06847  0
H  H11  1  0.40381195  0.66031277  0.61024599  1  0  0.097581  0  1.006086  0  0  0.109004  0  1.068218  0  0  0.111611  0  1.068718  0  0  0.086987  0.106882  0  1.068313  0
H  H12  1  0.07340518  0.51026158  0.79378097  1  0  0.114815  0  0.982602  0  0  0.116423  0  1.055419  0  0  0.12081  0  1.052477  0  0  0.107541  0.113311  0  1.057642  0
H  H13  1  0.42660844  0.48973057  0.29378272  1  0  0.114787  0  0.98257  0  0  0.116383  0  1.05541  0  0  0.120775  0  1.052461  0  0  0.107538  0.113268  0  1.057625  0
H  H14  1  0.57342427  0.98971812  0.20621877  1  0  0.114845  0  0.982427  0  0  0.116458  0  1.055255  0  0  0.120843  0  1.052312  0  0  0.107578  0.113347  0  1.057477  0
H  H15  1  0.92661807  0.01027556  0.70622079  1  0  0.114781  0  0.98246  0  0  0.116344  0  1.055357  0  0  0.120746  0  1.0524  0  0  0.107483  0.113227  0  1.057581  0
H  H16  1  0.16257828  0.71792902  0.86180483  1  0  0.075546  0  0.961437  0  0  0.083459  0  1.027464  0  0  0.086093  0  1.025513  0  0  0.104377  0.081508  0  1.028858  0
H  H17  1  0.33744081  0.28206695  0.36180728  1  0  0.075557  0  0.961438  0  0  0.083444  0  1.027509  0  0  0.086077  0  1.025558  0  0  0.104368  0.081492  0  1.028907  0
H  H18  1  0.66258378  0.78205266  0.13819494  1  0  0.075672  0  0.961473  0  0  0.083584  0  1.027518  0  0  0.086219  0  1.025565  0  0  0.104395  0.081637  0  1.028918  0
H  H19  1  0.83747799  0.21794337  0.63819543  1  0  0.075685  0  0.961341  0  0  0.083586  0  1.027416  0  0  0.086221  0  1.025463  0  0  0.104415  0.081638  0  1.028817  0
H  H20  1  0.36598369  0.97380339  0.84393039  1  0  0.124527  0  0.97748  0  0  0.140511  0  1.048194  0  0  0.14354  0  1.046734  0  0  0.08543  0.137832  0  1.049613  0
H  H21  1  0.13408675  0.02619074  0.34392440  1  0  0.124491  0  0.977209  0  0  0.140468  0  1.047941  0  0  0.143491  0  1.046484  0  0  0.085412  0.137786  0  1.04936  0
H  H22  1  0.86601534  0.52618211  0.15607184  1  0  0.124437  0  0.977405  0  0  0.140415  0  1.048157  0  0  0.143435  0  1.046704  0  0  0.085403  0.137732  0  1.049579  0
H  H23  1  0.63395526  0.47382932  0.65607240  1  0  0.12457  0  0.977339  0  0  0.140532  0  1.048086  0  0  0.143547  0  1.046634  0  0  0.085439  0.137851  0  1.049507  0
H  H24  1  0.66061341  0.01386667  0.79536337  1  0  0.148206  0  0.944194  0  0  0.169489  0  1.002781  0  0  0.171001  0  1.003136  0  0  0.104709  0.168277  0  1.002638  0
H  H25  1  0.83939610  0.98613502  0.29536374  1  0  0.148131  0  0.944183  0  0  0.169364  0  1.002834  0  0  0.170876  0  1.003186  0  0  0.10467  0.168155  0  1.002685  0
H  H26  1  0.16065909  0.48610518  0.20463890  1  0  0.148147  0  0.944279  0  0  0.169475  0  1.002809  0  0  0.17099  0  1.003165  0  0  0.104714  0.168261  0  1.002672  0
H  H27  1  0.33932016  0.51390977  0.70463799  1  0  0.148249  0  0.944217  0  0  0.169559  0  1.002764  0  0  0.171074  0  1.003118  0  0  0.10478  0.168342  0  1.002628  0
H  H28  1  0.26852641  0.92830129  0.77841985  1  0  0.14836  0  0.954301  0  0  0.164079  0  1.018324  0  0  0.167476  0  1.015812  0  0  0.099877  0.1616  0  1.020179  0
H  H29  1  0.23147433  0.07168647  0.27841224  1  0  0.148308  0  0.954156  0  0  0.164031  0  1.018174  0  0  0.167426  0  1.015661  0  0  0.099888  0.16156  0  1.020024  0
H  H30  1  0.76858699  0.57167612  0.22158307  1  0  0.148292  0  0.954287  0  0  0.163991  0  1.018337  0  0  0.16739  0  1.015825  0  0  0.099838  0.161518  0  1.020184  0
H  H31  1  0.73138113  0.42831949  0.72158387  1  0  0.148328  0  0.954297  0  0  0.164036  0  1.018319  0  0  0.167432  0  1.015806  0  0  0.099871  0.161569  0  1.020155  0
C  C32  1  0.53867459  0.40660489  0.91704529  1  0  0.117112  0  3.677045  0  0  0.089549  0  3.926491  0  0  0.095703  0  3.942133  0  0  0.03634  0.085161  0  3.917256  0
C  C33  1  0.96130580  0.59339013  0.41703844  1  0  0.11713  0  3.677014  0  0  0.089499  0  3.926512  0  0  0.095648  0  3.942162  0  0  0.036289  0.085123  0  3.917287  0
C  C34  1  0.03865801  0.09337872  0.08295680  1  0  0.117207  0  3.676994  0  0  0.089564  0  3.926453  0  0  0.095728  0  3.942094  0  0  0.036278  0.085176  0  3.917246  0
C  C35  1  0.46133047  0.90663428  0.58295698  1  0  0.117412  0  3.676804  0  0  0.089743  0  3.926294  0  0  0.095899  0  3.941938  0  0  0.036342  0.085364  0  3.917067  0
C  C36  1  0.49647982  0.28198977  0.88123084  1  0  -0.123317  0  3.719128  0  0  -0.144217  0  3.962447  0  0  -0.150049  0  3.984964  0  0  -0.084546  -0.140891  0  3.948238  0
C  C37  1  0.00350314  0.71800183  0.38122334  1  0  -0.12297  0  3.718951  0  0  -0.14384  0  3.962232  0  0  -0.149679  0  3.984739  0  0  -0.08437  -0.140518  0  3.948015  0
C  C38  1  0.99646305  0.21799256  0.11876993  1  0  -0.122985  0  3.718655  0  0  -0.143863  0  3.961945  0  0  -0.149701  0  3.984446  0  0  -0.084303  -0.140538  0  3.947741  0
C  C39  1  0.50351538  0.78201769  0.61877149  1  0  -0.123322  0  3.718562  0  0  -0.144178  0  3.961926  0  0  -0.150018  0  3.984431  0  0  -0.084409  -0.140858  0  3.947717  0
C  C40  1  0.32641034  0.31528074  0.83573202  1  0  -0.011942  0  3.728931  0  0  0.003284  0  3.963148  0  0  0.002159  0  3.9845  0  0  -0.006306  0.004285  0  3.948818  0
C  C41  1  0.17358388  0.68471244  0.33572733  1  0  -0.012003  0  3.729053  0  0  0.003205  0  3.963255  0  0  0.002086  0  3.984605  0  0  -0.006299  0.004211  0  3.948903  0
C  C42  1  0.82641287  0.18470130  0.16426988  1  0  -0.011952  0  3.729038  0  0  0.003218  0  3.96328  0  0  0.002097  0  3.984633  0  0  -0.006423  0.004231  0  3.948933  0
C  C43  1  0.67358417  0.81530615  0.66427248  1  0  -0.012037  0  3.729058  0  0  0.003169  0  3.963263  0  0  0.002044  0  3.984618  0  0  -0.006491  0.004179  0  3.94891  0
C  C44  1  0.20757514  0.47593461  0.82829367  1  0  -0.108998  0  3.69158  0  0  -0.131036  0  3.941341  0  0  -0.136756  0  3.962345  0  0  -0.074459  -0.127243  0  3.927214  0
C  C45  1  0.29242762  0.52405882  0.32829200  1  0  -0.108926  0  3.691616  0  0  -0.130938  0  3.941356  0  0  -0.136661  0  3.962351  0  0  -0.074432  -0.127141  0  3.927205  0
C  C46  1  0.70758243  0.02405300  0.17170577  1  0  -0.10888  0  3.691558  0  0  -0.13092  0  3.941346  0  0  -0.136636  0  3.962347  0  0  -0.074389  -0.127131  0  3.927213  0
C  C47  1  0.79245087  0.97594680  0.67170645  1  0  -0.108807  0  3.691472  0  0  -0.130805  0  3.941243  0  0  -0.136536  0  3.962236  0  0  -0.074264  -0.127014  0  3.927101  0
C  C48  1  0.25885678  0.59310828  0.86595290  1  0  0.121638  0  3.664256  0  0  0.095246  0  3.9099  0  0  0.100308  0  3.927806  0  0  0.039645  0.091812  0  3.89832  0
C  C49  1  0.24114816  0.40688754  0.36595256  1  0  0.121714  0  3.664538  0  0  0.0953  0  3.910164  0  0  0.100369  0  3.92807  0  0  0.039674  0.091876  0  3.898591  0
C  C50  1  0.75885392  0.90687534  0.13404769  1  0  0.121382  0  3.664338  0  0  0.094942  0  3.909976  0  0  0.100009  0  3.927889  0  0  0.039518  0.091518  0  3.898414  0
C  C51  1  0.74118217  0.09312823  0.63404779  1  0  0.121422  0  3.664134  0  0  0.094972  0  3.90979  0  0  0.100038  0  3.927698  0  0  0.039487  0.091546  0  3.898224  0
C  C52  1  0.25941437  0.18596605  0.79630743  1  0  0.496638  0  3.652353  0  0  0.483345  0  3.919135  0  0  0.505391  0  3.919273  0  0  0.169193  0.46743  0  3.91977  0
C  C53  1  0.24058977  0.81401863  0.29630298  1  0  0.49678  0  3.652496  0  0  0.483512  0  3.919196  0  0  0.505548  0  3.919348  0  0  0.169294  0.467603  0  3.919823  0
C  C54  1  0.75944411  0.31400772  0.20369569  1  0  0.496586  0  3.65294  0  0  0.483365  0  3.919612  0  0  0.5054  0  3.919771  0  0  0.169315  0.467447  0  3.920237  0
C  C55  1  0.74055296  0.68598974  0.70369676  1  0  0.496825  0  3.652777  0  0  0.483582  0  3.919442  0  0  0.505628  0  3.919575  0  0  0.16938  0.467666  0  3.920073  0
C  C56  1  0.39307800  0.01487151  0.80417800  1  0  -0.439972  0  3.656671  0  0  -0.520568  0  3.889722  0  0  -0.526512  0  3.892041  0  0  -0.249982  -0.515843  0  3.888559  0
C  C57  1  0.10694506  0.98511413  0.30417348  1  0  -0.439887  0  3.656207  0  0  -0.520423  0  3.889301  0  0  -0.526352  0  3.891625  0  0  -0.249982  -0.51572  0  3.888176  0
C  C58  1  0.89311513  0.48509784  0.19582382  1  0  -0.43982  0  3.656661  0  0  -0.520426  0  3.889651  0  0  -0.526363  0  3.89199  0  0  -0.249997  -0.515712  0  3.888528  0
C  C59  1  0.60686302  0.51490360  0.69582450  1  0  -0.440146  0  3.656727  0  0  -0.520735  0  3.889753  0  0  -0.526665  0  3.892085  0  0  -0.250174  -0.516029  0  3.888632  0
I  I60  1  0.95942898  0.94010729  0.94975910  1  0  -0.352577  0  1.791961  0  0  -0.298596  0  2.250333  0  0  -0.316964  0  2.2078  0  0  -0.163541  -0.283898  0  2.279511  0
I  I61  1  0.54056011  0.05988784  0.44976020  1  0  -0.352612  0  1.791843  0  0  -0.298637  0  2.250255  0  0  -0.31701  0  2.207736  0  0  -0.163551  -0.283924  0  2.279417  0
I  I62  1  0.45943177  0.55987277  0.05024394  1  0  -0.352616  0  1.791951  0  0  -0.298614  0  2.250348  0  0  -0.317004  0  2.207839  0  0  -0.163567  -0.283905  0  2.279539  0
I  I63  1  0.04057537  0.44013642  0.55024114  1  0  -0.352588  0  1.791898  0  0  -0.29856  0  2.250223  0  0  -0.316942  0  2.207714  0  0  -0.163544  -0.283845  0  2.279386  0
N  N64  1  0.42039202  0.56057888  0.91013686  1  0  -0.250281  0  3.348018  0  0  -0.17646  0  3.629799  0  0  -0.188185  0  3.639375  0  0  -0.352745  -0.16994  0  3.624158  0
N  N65  1  0.07960888  0.43941296  0.41013489  1  0  -0.250462  0  3.348265  0  0  -0.17658  0  3.630037  0  0  -0.188317  0  3.639632  0  0  -0.35278  -0.170091  0  3.624445  0
N  N66  1  0.92036764  0.93940632  0.08986142  1  0  -0.250358  0  3.348104  0  0  -0.176426  0  3.629816  0  0  -0.188178  0  3.639431  0  0  -0.352703  -0.169931  0  3.624249  0
N  N67  1  0.57963267  0.06060370  0.58986243  1  0  -0.250438  0  3.348123  0  0  -0.176476  0  3.629852  0  0  -0.188216  0  3.639445  0  0  -0.3527  -0.169984  0  3.624253  0
O  O68  1  0.09259595  0.22149213  0.75815516  1  0  -0.475312  0  1.911366  0  0  -0.425693  0  2.109617  0  0  -0.443377  0  2.106511  0  0  -0.252579  -0.413906  0  2.112184  0
O  O69  1  0.40739099  0.77850372  0.25815313  1  0  -0.475393  0  1.911534  0  0  -0.425785  0  2.109756  0  0  -0.443461  0  2.106649  0  0  -0.252632  -0.413998  0  2.112322  0
O  O70  1  0.59263865  0.27850104  0.24184527  1  0  -0.475263  0  1.91171  0  0  -0.425726  0  2.109979  0  0  -0.4434  0  2.106875  0  0  -0.252603  -0.413932  0  2.112542  0
O  O71  1  0.90736816  0.72149634  0.74184662  1  0  -0.475411  0  1.911709  0  0  -0.425838  0  2.109958  0  0  -0.443518  0  2.106847  0  0  -0.252609  -0.414046  0  2.112522  0
