# generated using pymatgen
data_AlH10C16O5
_symmetry_space_group_name_H-M   'P 1'
_cell_length_a   6.68554314
_cell_length_b   22.42293257
_cell_length_c   23.82143264
_cell_angle_alpha   112.81621314
_cell_angle_beta   89.95019220
_cell_angle_gamma   89.79828549
_symmetry_Int_Tables_number   1
_chemical_formula_structural   AlH10C16O5
_chemical_formula_sum   'Al4 H40 C64 O20'
_cell_volume   3291.60558985
_cell_formula_units_Z   4
loop_
 _symmetry_equiv_pos_site_id
 _symmetry_equiv_pos_as_xyz
  1  'x, y, z'
loop_
 _atom_site_type_symbol
 _atom_site_label
 _atom_site_symmetry_multiplicity
 _atom_site_fract_x
 _atom_site_fract_y
 _atom_site_fract_z
 _atom_site_occupancy
 _atom_site_pbe_bader_charge
 _atom_site_pbe_bader_spin_density
 _atom_site_pbe_cm5_charge
 _atom_site_pbe_ddec_charge
 _atom_site_pbe_ddec_spin_density
 _atom_site_pbe_ddec_sum_bond_order
 _atom_site_pbe_magmom
Al  Al0  1  0.10141270  0.49940352  0.49878952  1  2.503144  0  0.400942  1.652894  0  2.572653  0
Al  Al1  1  0.60136518  0.50079919  0.50157415  1  2.504547  0  0.400175  1.652602  0  2.576412  0
Al  Al2  1  0.70771543  0.00067142  0.00127850  1  2.503418  0  0.400957  1.652059  0  2.574785  0
Al  Al3  1  0.20775356  0.99907842  0.99838970  1  2.504231  0  0.400815  1.653537  0  2.573547  0
H  H4  1  0.62671735  0.10537466  0.89904933  1  0.098972  0  0.108199  0.112029  0  1.008272  0
H  H5  1  0.60739646  0.17144029  0.83589581  1  0.037678  0  0.097339  0.093474  0  1.028975  0
H  H6  1  0.25017160  0.16731991  0.82208596  1  0.036875  0  0.096828  0.091797  0  1.030233  0
H  H7  1  0.26683048  0.10278029  0.88686774  1  0.091305  0  0.107138  0.110417  0  1.0073  0
H  H8  1  0.18679873  0.26695229  0.82199263  1  0.067229  0  0.102054  0.101606  0  1.003397  0
H  H9  1  0.16614050  0.33133034  0.75893577  1  0.054574  0  0.101819  0.10083  0  1.005016  0
H  H10  1  0.62245516  0.23298390  0.67774843  1  0.071048  0  0.102301  0.101639  0  1.002733  0
H  H11  1  0.64270618  0.16872083  0.74094440  1  0.051284  0  0.101784  0.100945  0  1.004667  0
H  H12  1  0.55857906  0.33266137  0.67771885  1  0.045727  0  0.096762  0.092291  0  1.030415  0
H  H13  1  0.54225070  0.39710951  0.61282396  1  0.089524  0  0.10735  0.110278  0  1.007297  0
H  H14  1  0.18231554  0.39450847  0.60075035  1  0.101702  0  0.108422  0.112309  0  1.007848  0
H  H15  1  0.20143420  0.32856129  0.66406212  1  0.040982  0  0.09723  0.093178  0  1.029151  0
H  H16  1  0.14387716  0.32305221  0.34864002  1  0.118648  0  0.108689  0.113706  0  1.001935  0
H  H17  1  0.53453926  0.37183529  0.32701340  1  0.114154  0  0.110331  0.117853  0  0.993957  0
H  H18  1  0.29723514  0.22288114  0.27226635  1  0.065888  0  0.102639  0.102857  0  1.011779  0
H  H19  1  0.51295751  0.27734149  0.22766402  1  0.064342  0  0.102674  0.102894  0  1.011931  0
H  H20  1  0.27576012  0.12835759  0.17288780  1  0.116797  0  0.110123  0.117494  0  0.994549  0
H  H21  1  0.66618825  0.17696032  0.15134149  1  0.118356  0  0.108733  0.113837  0  1.00219  0
H  H22  1  0.64235890  0.67583099  0.65076674  1  0.087734  0  0.108776  0.113699  0  1.001424  0
H  H23  1  0.03211792  0.63002715  0.67385694  1  0.102074  0  0.110152  0.117014  0  0.994183  0
H  H24  1  0.79745937  0.77550077  0.72665664  1  0.056139  0  0.102541  0.103491  0  1.011271  0
H  H25  1  0.01308440  0.72450183  0.77346854  1  0.056928  0  0.102392  0.10295  0  1.011999  0
H  H26  1  0.77814584  0.87002273  0.82619869  1  0.101596  0  0.110045  0.117091  0  0.993761  0
H  H27  1  0.16813916  0.82401951  0.84931933  1  0.08691  0  0.108811  0.113999  0  1.002032  0
H  H28  1  0.12860285  0.89422378  0.10012578  1  0.106354  0  0.107925  0.11146  0  1.008471  0
H  H29  1  0.10866702  0.82846133  0.16351867  1  0.040711  0  0.097322  0.093433  0  1.02875  0
H  H30  1  0.75106083  0.83259350  0.17827186  1  0.030028  0  0.096609  0.091589  0  1.030545  0
H  H31  1  0.76832365  0.89689220  0.11332052  1  0.086577  0  0.106777  0.109605  0  1.008086  0
H  H32  1  0.68921849  0.73310572  0.17858864  1  0.067966  0  0.101975  0.101839  0  1.003105  0
H  H33  1  0.66791069  0.66880504  0.24165754  1  0.054534  0  0.101852  0.100521  0  1.00508  0
H  H34  1  0.11980877  0.76696043  0.32166434  1  0.065648  0  0.102039  0.101761  0  1.002533  0
H  H35  1  0.14077938  0.83113451  0.25847872  1  0.044701  0  0.101827  0.101097  0  1.004708  0
H  H36  1  0.05793955  0.66730263  0.32180984  1  0.065202  0  0.096509  0.091636  0  1.030178  0
H  H37  1  0.04089804  0.60293606  0.38672030  1  0.085989  0  0.107028  0.109983  0  1.007448  0
H  H38  1  0.68049155  0.60582886  0.40006211  1  0.098295  0  0.107956  0.11149  0  1.008435  0
H  H39  1  0.70035568  0.67166213  0.33672491  1  0.045496  0  0.097409  0.093525  0  1.029038  0
H  H40  1  0.35512817  0.41494067  0.47478537  1  0.614628  0  0.356559  0.433967  0  0.846461  0
H  H41  1  0.85277625  0.58516596  0.52344802  1  0.609181  0  0.356923  0.433792  0  0.846735  0
H  H42  1  0.45345523  0.08503024  0.02510144  1  0.616231  0  0.357123  0.434273  0  0.845637  0
H  H43  1  0.95582156  0.91483950  0.97657769  1  0.609244  0  0.356975  0.434168  0  0.846269  0
C  C44  1  0.34767122  0.59203897  0.59698579  1  1.580285  0  0.268941  0.644757  0  4.091473  0
C  C45  1  0.35202926  0.56278864  0.43678503  1  1.580812  0  0.264274  0.638276  0  4.106711  0
C  C46  1  0.84995516  0.40820109  0.40325327  1  1.576415  0  0.267892  0.64377  0  4.093866  0
C  C47  1  0.85345770  0.43745789  0.56350523  1  1.580965  0  0.265147  0.638199  0  4.108458  0
C  C48  1  0.76211276  0.11937296  0.88186644  1  -0.0891  0  -0.080979  -0.082322  0  3.981732  0
C  C49  1  0.75244324  0.15574230  0.84618242  1  0.033888  0  -0.092153  -0.136992  0  3.987442  0
C  C50  1  0.92755403  0.17422684  0.82438023  1  -0.089253  0  -0.00211  0.079248  0  3.997006  0
C  C51  1  0.11299827  0.15469686  0.83969482  1  0.01758  0  -0.092791  -0.138402  0  3.986201  0
C  C52  1  0.12328646  0.11832404  0.87547943  1  -0.070869  0  -0.080752  -0.081695  0  3.979672  0
C  C53  1  0.94773019  0.10042181  0.89704333  1  -0.015196  0  -0.018213  -0.050325  0  3.978444  0
C  C54  1  0.06404567  0.25850042  0.78972221  1  -0.08679  0  -0.091313  -0.126671  0  3.996284  0
C  C55  1  0.05241901  0.29489203  0.75402762  1  -0.002185  0  -0.09127  -0.127058  0  3.996458  0
C  C56  1  0.89264288  0.28723764  0.71345154  1  -0.055474  0  -0.008946  0.063438  0  4.008348  0
C  C57  1  0.74488132  0.24150584  0.71014166  1  -0.092421  0  -0.091545  -0.126505  0  3.997708  0
C  C58  1  0.75642343  0.20515513  0.74587037  1  0.002094  0  -0.091154  -0.127122  0  3.99834  0
C  C59  1  0.91616152  0.21281836  0.78646504  1  0.011369  0  -0.009295  0.06294  0  4.008309  0
C  C60  1  0.69580971  0.34527837  0.66014968  1  0.006937  0  -0.092182  -0.138864  0  3.986378  0
C  C61  1  0.68564709  0.38157945  0.62430941  1  -0.080778  0  -0.080736  -0.080904  0  3.980037  0
C  C62  1  0.86126929  0.39946578  0.60277876  1  -0.016368  0  -0.018742  -0.051024  0  3.979752  0
C  C63  1  0.04689100  0.38054963  0.61797265  1  -0.08211  0  -0.080445  -0.081747  0  3.980621  0
C  C64  1  0.05642308  0.34425479  0.65373226  1  0.008781  0  -0.092397  -0.137022  0  3.98796  0
C  C65  1  0.88127033  0.32580455  0.67552134  1  -0.001639  0  -0.002987  0.078275  0  3.996662  0
C  C66  1  0.84115436  0.35206172  0.34353464  1  -0.048012  0  -0.015429  -0.040485  0  3.9948  0
C  C67  1  0.96875562  0.14798292  0.15645151  1  -0.049365  0  -0.015436  -0.040329  0  3.994247  0
C  C68  1  0.16073507  0.21343636  0.24514974  1  -0.028623  0  -0.088483  -0.133169  0  3.999393  0
C  C69  1  0.14908814  0.16102554  0.19058341  1  -0.047474  0  -0.086091  -0.101582  0  3.995197  0
C  C70  1  0.80420246  0.18811354  0.17773218  1  -0.051641  0  -0.074889  -0.13488  0  3.92989  0
C  C71  1  0.81391451  0.24354405  0.23267111  1  0.021255  0  -0.004017  0.078817  0  4.000387  0
C  C72  1  0.99601346  0.25654362  0.26727345  1  -0.07541  0  -0.003917  0.078195  0  3.999615  0
C  C73  1  0.00578413  0.31194202  0.32225863  1  -0.05142  0  -0.074739  -0.134381  0  3.928353  0
C  C74  1  0.66102213  0.33908306  0.30933668  1  -0.054354  0  -0.086411  -0.102238  0  3.996371  0
C  C75  1  0.64934167  0.28669884  0.25477855  1  -0.021049  0  -0.088423  -0.133046  0  4.000428  0
C  C76  1  0.33912484  0.64834318  0.65660511  1  -0.065852  0  -0.01552  -0.04142  0  3.994346  0
C  C77  1  0.47106182  0.85167332  0.84342773  1  -0.070923  0  -0.015542  -0.041003  0  3.994285  0
C  C78  1  0.66142059  0.78548338  0.75418219  1  -0.06989  0  -0.088767  -0.13473  0  3.998023  0
C  C79  1  0.65093085  0.83788480  0.80882612  1  -0.028557  0  -0.085449  -0.100134  0  3.993386  0
C  C80  1  0.30585846  0.81224361  0.82257649  1  -0.000118  0  -0.074744  -0.134409  0  3.930534  0
C  C81  1  0.31448230  0.75683233  0.76759051  1  0.061118  0  -0.003692  0.0789  0  4.00149  0
C  C82  1  0.49606019  0.74308724  0.73247872  1  -0.025197  0  -0.003599  0.078682  0  4.000646  0
C  C83  1  0.50454623  0.68767645  0.67747163  1  -0.008767  0  -0.074551  -0.133321  0  3.927645  0
C  C84  1  0.15933207  0.66213938  0.69122796  1  -0.028952  0  -0.085849  -0.100439  0  3.994755  0
C  C85  1  0.14902796  0.71448739  0.74590441  1  -0.06904  0  -0.088488  -0.133879  0  3.998767  0
C  C86  1  0.26377119  0.88034244  0.11762521  1  -0.087273  0  -0.080798  -0.081628  0  3.982369  0
C  C87  1  0.25374868  0.84413277  0.15344226  1  0.015373  0  -0.09234  -0.137208  0  3.987973  0
C  C88  1  0.42858820  0.82574098  0.17560616  1  -0.062306  0  -0.002722  0.078858  0  3.997325  0
C  C89  1  0.61406567  0.84519047  0.16046563  1  0.010879  0  -0.092216  -0.137914  0  3.985024  0
C  C90  1  0.62470729  0.88143541  0.12456035  1  -0.070733  0  -0.080061  -0.080719  0  3.978631  0
C  C91  1  0.44940462  0.89925855  0.10266304  1  -0.017724  0  -0.019032  -0.051206  0  3.979127  0
C  C92  1  0.56543054  0.74156760  0.21064533  1  -0.081324  0  -0.090897  -0.127035  0  3.99693  0
C  C93  1  0.55336632  0.70520575  0.24634694  1  -0.006658  0  -0.091577  -0.126407  0  3.995477  0
C  C94  1  0.39222964  0.71282554  0.28662256  1  -0.050643  0  -0.008878  0.063586  0  4.006521  0
C  C95  1  0.24349816  0.75847508  0.28955202  1  -0.087501  0  -0.091055  -0.126481  0  3.996153  0
C  C96  1  0.25550317  0.79480173  0.25381392  1  -0.001188  0  -0.091496  -0.127455  0  3.997133  0
C  C97  1  0.41670501  0.78721956  0.21357778  1  0.015331  0  -0.009056  0.062955  0  4.00828  0
C  C98  1  0.19491798  0.65479774  0.33969260  1  -0.025118  0  -0.092276  -0.138485  0  3.985034  0
C  C99  1  0.18437821  0.61853904  0.37557128  1  -0.074622  0  -0.080399  -0.080884  0  3.979928  0
C  C100  1  0.35969908  0.60076868  0.39748394  1  -0.021802  0  -0.019279  -0.051631  0  3.980709  0
C  C101  1  0.54531972  0.61973717  0.38258820  1  -0.044366  0  -0.080276  -0.080742  0  3.982569  0
C  C102  1  0.55527748  0.65597085  0.34679481  1  -0.035866  0  -0.092434  -0.137554  0  3.989405  0
C  C103  1  0.38042704  0.67431763  0.32461507  1  0.017498  0  -0.002513  0.07872  0  3.996391  0
C  C104  1  0.45698312  0.93715620  0.06327231  1  1.582161  0  0.264921  0.63853  0  4.107121  0
C  C105  1  0.46201745  0.90796980  0.90303540  1  1.578767  0  0.268642  0.644264  0  4.092316  0
C  C106  1  0.95555190  0.06245799  0.93636428  1  1.561411  0  0.264287  0.636726  0  4.107534  0
C  C107  1  0.95973039  0.09179608  0.09675705  1  1.575367  0  0.26832  0.643816  0  4.093878  0
O  O108  1  0.51974348  0.54937280  0.45457101  1  -1.263544  0  -0.238125  -0.599211  0  2.364316  0
O  O109  1  0.18052919  0.56962230  0.57233260  1  -1.262816  0  -0.234801  -0.593262  0  2.346555  0
O  O110  1  0.02101732  0.45104936  0.54592563  1  -1.264603  0  -0.238164  -0.598502  0  2.365768  0
O  O111  1  0.18050371  0.54741691  0.45037889  1  -1.258527  0  -0.239422  -0.59692  0  2.332265  0
O  O112  1  0.02174449  0.42855619  0.42546532  1  -1.264525  0  -0.236945  -0.594738  0  2.332044  0
O  O113  1  0.51979912  0.57130259  0.57476310  1  -1.262103  0  -0.237626  -0.595655  0  2.336218  0
O  O114  1  0.35247092  0.46173741  0.49189421  1  -1.418011  0  -0.447924  -0.996924  0  2.214051  0
O  O115  1  0.68237004  0.43082000  0.42800904  1  -1.260964  0  -0.234722  -0.594115  0  2.351959  0
O  O116  1  0.68173668  0.45268977  0.54972352  1  -1.256316  0  -0.239228  -0.595542  0  2.332746  0
O  O117  1  0.85156692  0.53843019  0.50836431  1  -1.412422  0  -0.448442  -0.996646  0  2.215496  0
O  O118  1  0.28979615  0.92855861  0.92525554  1  -1.261188  0  -0.23724  -0.595446  0  2.336017  0
O  O119  1  0.62849904  0.95253940  0.04963527  1  -1.256004  0  -0.239686  -0.596935  0  2.330845  0
O  O120  1  0.78779550  0.07149265  0.07458217  1  -1.263864  0  -0.237505  -0.595288  0  2.330368  0
O  O121  1  0.62906362  0.93050905  0.92769757  1  -1.262879  0  -0.234838  -0.593034  0  2.348399  0
O  O122  1  0.78797948  0.04893760  0.95399945  1  -1.250048  0  -0.238154  -0.597262  0  2.364162  0
O  O123  1  0.28929686  0.95052707  0.04546964  1  -1.265554  0  -0.238805  -0.599376  0  2.365227  0
O  O124  1  0.45660119  0.03823636  0.00813469  1  -1.420036  0  -0.448777  -0.997299  0  2.213348  0
O  O125  1  0.12719957  0.04720412  0.95018224  1  -1.250769  0  -0.238969  -0.595571  0  2.331772  0
O  O126  1  0.12716087  0.06909782  0.07197479  1  -1.261029  0  -0.234482  -0.593648  0  2.353684  0
O  O127  1  0.95751722  0.96157559  0.99168753  1  -1.411719  0  -0.448044  -0.997039  0  2.216224  0
