# generated using pymatgen
data_ZnH15C16I(N3O2)2
_symmetry_space_group_name_H-M   'P 1'
_cell_length_a   7.80661874
_cell_length_b   17.28175567
_cell_length_c   17.07695089
_cell_angle_alpha   90.00012474
_cell_angle_beta   90.00009711
_cell_angle_gamma   91.13025132
_symmetry_Int_Tables_number   1
_chemical_formula_structural   ZnH15C16I(N3O2)2
_chemical_formula_sum   'Zn4 H60 C64 I4 N24 O16'
_cell_volume   2303.43867157
_cell_formula_units_Z   4
loop_
 _symmetry_equiv_pos_site_id
 _symmetry_equiv_pos_as_xyz
  1  'x, y, z'
loop_
 _atom_site_type_symbol
 _atom_site_label
 _atom_site_symmetry_multiplicity
 _atom_site_fract_x
 _atom_site_fract_y
 _atom_site_fract_z
 _atom_site_occupancy
 _atom_site_pbe_bader_charge
 _atom_site_pbe_bader_spin_density
 _atom_site_pbe_cm5_charge
 _atom_site_pbe_ddec_charge
 _atom_site_pbe_ddec_spin_density
 _atom_site_pbe_ddec_sum_bond_order
 _atom_site_pbe_magmom
Zn  Zn0  1  0.40206947  0.28179314  0.69039537  1  1.260834  0  0.692476  0.786358  0  2.437169  0
Zn  Zn1  1  0.09793090  0.21820612  0.19039375  1  1.26056  0  0.692467  0.786334  0  2.437222  0
Zn  Zn2  1  0.59793392  0.71820796  0.30960486  1  1.260715  0  0.692461  0.786312  0  2.437197  0
Zn  Zn3  1  0.90206456  0.78179215  0.80960648  1  1.26071  0  0.692469  0.786331  0  2.437212  0
H  H4  1  0.50489949  0.88049471  0.91438920  1  0.106933  0  0.101002  0.113707  0  1.01801  0
H  H5  1  0.99509679  0.61950509  0.41439059  1  0.106924  0  0.100979  0.113731  0  1.017983  0
H  H6  1  0.49509858  0.11950412  0.08561337  1  0.106968  0  0.101014  0.113706  0  1.01796  0
H  H7  1  0.00490891  0.38049310  0.58560847  1  0.106873  0  0.100952  0.113694  0  1.017973  0
H  H8  1  0.63652477  0.10839971  0.82414631  1  0.108524  0  0.105382  0.117766  0  1.027114  0
H  H9  1  0.86347827  0.39159870  0.32414761  1  0.108487  0  0.105363  0.117786  0  1.027115  0
H  H10  1  0.36346828  0.89160032  0.17585626  1  0.108471  0  0.105384  0.117797  0  1.027021  0
H  H11  1  0.13652246  0.60840126  0.67584794  1  0.108529  0  0.105426  0.117796  0  1.027158  0
H  H12  1  0.15523886  0.00022065  0.76439647  1  0.117214  0  0.101564  0.108544  0  1.02674  0
H  H13  1  0.34475821  0.49978170  0.26439564  1  0.117337  0  0.101572  0.108481  0  1.026848  0
H  H14  1  0.84476187  0.99977931  0.23560317  1  0.117222  0  0.101541  0.108413  0  1.026864  0
H  H15  1  0.65524769  0.50021880  0.73560459  1  0.117385  0  0.101513  0.108393  0  1.026911  0
H  H16  1  0.31372134  0.44720173  0.77339218  1  0.137481  0  0.139747  0.113514  0  0.968635  0
H  H17  1  0.18627561  0.05279890  0.27339554  1  0.137493  0  0.139783  0.113619  0  0.968579  0
H  H18  1  0.68627948  0.55279939  0.22660747  1  0.137505  0  0.139759  0.113531  0  0.968634  0
H  H19  1  0.81371980  0.94719880  0.72660820  1  0.137548  0  0.139749  0.113543  0  0.968651  0
H  H20  1  0.03050042  0.23808966  0.77225288  1  0.184703  0  0.148635  0.132504  0  0.99621  0
H  H21  1  0.46950288  0.26191033  0.27224871  1  0.184705  0  0.148656  0.132537  0  0.996296  0
H  H22  1  0.96950281  0.76190970  0.22774793  1  0.184705  0  0.148656  0.132543  0  0.996265  0
H  H23  1  0.53049386  0.73808793  0.72774976  1  0.184631  0  0.148651  0.132495  0  0.996392  0
H  H24  1  0.75708835  0.38241713  0.86727379  1  0.068673  0  0.118861  0.104778  0  0.9614  0
H  H25  1  0.74291264  0.11758544  0.36727265  1  0.068727  0  0.118836  0.104706  0  0.961349  0
H  H26  1  0.24291361  0.61758224  0.13272585  1  0.068659  0  0.118878  0.104814  0  0.961379  0
H  H27  1  0.25708808  0.88241452  0.63272700  1  0.068732  0  0.118853  0.104758  0  0.961311  0
H  H28  1  0.88928156  0.34549579  0.94313043  1  0.051988  0  0.117578  0.101772  0  0.953231  0
H  H29  1  0.61071825  0.15450465  0.44313044  1  0.051982  0  0.117598  0.101784  0  0.953241  0
H  H30  1  0.11071907  0.65450301  0.05686980  1  0.051983  0  0.117617  0.101795  0  0.953256  0
H  H31  1  0.38928375  0.84549530  0.55686979  1  0.051947  0  0.117591  0.101767  0  0.953254  0
H  H32  1  0.70690846  0.25074709  0.81368619  1  0.085453  0  0.097988  0.108016  0  1.000921  0
H  H33  1  0.79309228  0.24925479  0.31368713  1  0.08546  0  0.097987  0.108011  0  1.000901  0
H  H34  1  0.29308971  0.74925290  0.18631286  1  0.085469  0  0.097999  0.108016  0  1.000913  0
H  H35  1  0.20690722  0.75074576  0.68631193  1  0.085486  0  0.097984  0.107991  0  1.00097  0
H  H36  1  0.85987398  0.21178739  0.87875989  1  0.052766  0  0.095405  0.089546  0  1.003235  0
H  H37  1  0.64012450  0.28821523  0.37876138  1  0.05268  0  0.095395  0.089525  0  1.003191  0
H  H38  1  0.14012285  0.78821203  0.12123800  1  0.052714  0  0.0954  0.089497  0  1.003218  0
H  H39  1  0.35987628  0.71178531  0.62123768  1  0.052679  0  0.095394  0.089505  0  1.003217  0
H  H40  1  0.68029973  0.23736764  0.99320768  1  0.109237  0  0.093287  0.105849  0  1.019968  0
H  H41  1  0.81970284  0.26263289  0.49320866  1  0.109227  0  0.093321  0.105962  0  1.019875  0
H  H42  1  0.31970489  0.76263287  0.00679255  1  0.108929  0  0.093296  0.105877  0  1.019892  0
H  H43  1  0.18030055  0.73736821  0.50678981  1  0.109164  0  0.0933  0.1059  0  1.019913  0
H  H44  1  0.56408998  0.18400928  0.92217557  1  0.043799  0  0.096074  0.099101  0  1.004052  0
H  H45  1  0.93590586  0.31599057  0.42217735  1  0.043644  0  0.096077  0.099112  0  1.004099  0
H  H46  1  0.43590952  0.81599127  0.07782524  1  0.043381  0  0.096089  0.09911  0  1.004013  0
H  H47  1  0.06409368  0.68401056  0.57782171  1  0.043669  0  0.096099  0.099144  0  1.004057  0
H  H48  1  0.43159245  0.30927046  0.87472281  1  0.083036  0  0.118968  0.107084  0  0.993319  0
H  H49  1  0.06841022  0.19073267  0.37472286  1  0.083001  0  0.118933  0.10701  0  0.993441  0
H  H50  1  0.56840971  0.69073123  0.12527918  1  0.082965  0  0.118942  0.107022  0  0.993352  0
H  H51  1  0.93159051  0.80926729  0.62527854  1  0.082976  0  0.118936  0.107035  0  0.993365  0
H  H52  1  0.52615784  0.35693876  0.95695830  1  0.066408  0  0.118025  0.096147  0  0.957745  0
H  H53  1  0.97384596  0.14306284  0.45695622  1  0.066484  0  0.118002  0.096054  0  0.95785  0
H  H54  1  0.47384554  0.64306234  0.04304427  1  0.066462  0  0.118031  0.09615  0  0.957743  0
H  H55  1  0.02615220  0.85693715  0.54304460  1  0.067222  0  0.118016  0.096113  0  0.957779  0
H  H56  1  0.41071887  0.30594592  0.10060451  1  0.215154  0  0.154112  0.142004  0  0.968849  0
H  H57  1  0.08928263  0.19405543  0.60060278  1  0.215212  0  0.154099  0.141979  0  0.968828  0
H  H58  1  0.58928299  0.69405229  0.89939689  1  0.215156  0  0.154114  0.142012  0  0.968853  0
H  H59  1  0.91071441  0.80594630  0.39939686  1  0.215172  0  0.154087  0.14197  0  0.968868  0
H  H60  1  0.99119680  0.18039462  0.00792938  1  0.162382  0  0.131286  0.103229  0  1.01814  0
H  H61  1  0.50880909  0.31960594  0.50793020  1  0.162333  0  0.131276  0.103199  0  1.018175  0
H  H62  1  0.00880393  0.81960535  0.99206967  1  0.162371  0  0.131288  0.103265  0  1.01811  0
H  H63  1  0.49119548  0.68039399  0.49207002  1  0.162362  0  0.131288  0.103225  0  1.018173  0
C  C64  1  0.34241346  0.13429136  0.74798333  1  1.579937  0  0.201207  0.573894  0  4.209874  0
C  C65  1  0.15758857  0.36570975  0.24798032  1  1.579574  0  0.2012  0.573865  0  4.2099  0
C  C66  1  0.65757964  0.86570925  0.25201689  1  1.579781  0  0.201187  0.573895  0  4.209727  0
C  C67  1  0.84241994  0.63429130  0.75201757  1  1.579596  0  0.201229  0.574002  0  4.209842  0
C  C68  1  0.20189183  0.86326605  0.84137486  1  1.568818  0  0.191105  0.557125  0  4.243597  0
C  C69  1  0.29809960  0.63673648  0.34137497  1  1.568588  0  0.191157  0.557168  0  4.243377  0
C  C70  1  0.79810127  0.13673455  0.15862478  1  1.568808  0  0.191047  0.557091  0  4.243573  0
C  C71  1  0.70190383  0.36326520  0.65862701  1  1.568601  0  0.191021  0.556913  0  4.243583  0
C  C72  1  0.32073984  0.93275212  0.83815426  1  -0.056648  0  -0.02232  -0.030697  0  3.981088  0
C  C73  1  0.17925778  0.56724804  0.33815531  1  -0.05648  0  -0.022365  -0.030868  0  3.980969  0
C  C74  1  0.67925842  0.06724902  0.16184655  1  -0.056692  0  -0.022359  -0.030793  0  3.981076  0
C  C75  1  0.82074408  0.43275018  0.66184609  1  -0.056512  0  -0.022355  -0.030639  0  3.980879  0
C  C76  1  0.47561721  0.93143645  0.87979934  1  -0.018919  0  -0.091594  -0.134949  0  3.978159  0
C  C77  1  0.02438298  0.56856204  0.37980261  1  -0.018866  0  -0.091534  -0.134899  0  3.97786  0
C  C78  1  0.52438337  0.06856177  0.12020089  1  -0.018879  0  -0.09156  -0.134907  0  3.978059  0
C  C79  1  0.97561631  0.43143620  0.62019761  1  -0.017275  0  -0.091543  -0.134922  0  3.978073  0
C  C80  1  0.58763801  0.99498049  0.87463342  1  -0.296005  0  -0.051382  0.049821  0  3.950496  0
C  C81  1  0.91236431  0.50501684  0.37463568  1  -0.296006  0  -0.051366  0.04987  0  3.950438  0
C  C82  1  0.41236148  0.00502006  0.12536856  1  -0.296193  0  -0.051401  0.04989  0  3.950486  0
C  C83  1  0.08762987  0.49498144  0.62535986  1  -0.297746  0  -0.051341  0.049811  0  3.950675  0
C  C84  1  0.54721220  0.05978970  0.83045356  1  -0.003771  0  -0.090863  -0.136639  0  3.972213  0
C  C85  1  0.95279081  0.44020815  0.33045327  1  -0.003771  0  -0.090887  -0.136761  0  3.972211  0
C  C86  1  0.45278469  0.94021030  0.16954901  1  -0.003458  0  -0.090888  -0.136722  0  3.972174  0
C  C87  1  0.04720858  0.55979125  0.66954286  1  -0.003775  0  -0.090903  -0.136694  0  3.972562  0
C  C88  1  0.38909351  0.06237319  0.79203856  1  -0.010463  0  -0.015672  -0.010689  0  3.959195  0
C  C89  1  0.11090602  0.43762688  0.29203742  1  -0.010353  0  -0.015611  -0.010558  0  3.959042  0
C  C90  1  0.61090475  0.93762795  0.20795991  1  -0.010732  0  -0.015634  -0.010664  0  3.959126  0
C  C91  1  0.88909859  0.56237363  0.70795988  1  -0.010421  0  -0.01571  -0.010727  0  3.95925  0
C  C92  1  0.27710968  0.99846397  0.79519231  1  0.053347  0  -0.080016  -0.112803  0  3.941724  0
C  C93  1  0.22288664  0.50153783  0.29519149  1  0.053292  0  -0.079999  -0.112696  0  3.941854  0
C  C94  1  0.72288603  0.00153719  0.20480908  1  0.05329  0  -0.079972  -0.112616  0  3.941781  0
C  C95  1  0.77711802  0.49846325  0.70480756  1  0.053211  0  -0.079932  -0.112657  0  3.941697  0
C  C96  1  0.21491633  0.40410438  0.78632824  1  1.001133  0  0.145883  0.14089  0  4.007684  0
C  C97  1  0.28507944  0.09589687  0.28633001  1  1.001105  0  0.145892  0.140785  0  4.007721  0
C  C98  1  0.78508317  0.59589617  0.21367081  1  1.001128  0  0.145876  0.140865  0  4.007587  0
C  C99  1  0.71491601  0.90410140  0.71367256  1  1.000761  0  0.145953  0.140923  0  4.007712  0
C  C100  1  0.07145511  0.29727523  0.78397285  1  1.018677  0  0.169378  0.090559  0  3.88762  0
C  C101  1  0.42854695  0.20272480  0.28397086  1  1.018615  0  0.16934  0.090467  0  3.887807  0
C  C102  1  0.92854817  0.70272471  0.21602737  1  1.018701  0  0.169359  0.090459  0  3.88787  0
C  C103  1  0.57144973  0.79727288  0.71602937  1  1.018586  0  0.169332  0.09049  0  3.887861  0
C  C104  1  0.84610089  0.33626825  0.88241348  1  0.324775  0  -0.044382  -0.083078  0  3.885323  0
C  C105  1  0.65389253  0.16373500  0.38241354  1  0.324824  0  -0.044383  -0.083005  0  3.885126  0
C  C106  1  0.15389979  0.66373113  0.11758617  1  0.325057  0  -0.044429  -0.08317  0  3.885323  0
C  C107  1  0.34610824  0.83626554  0.61758552  1  0.325119  0  -0.04439  -0.083038  0  3.885168  0
C  C108  1  0.76242645  0.25655509  0.87265811  1  -0.057708  0  -0.162963  -0.178101  0  3.943832  0
C  C109  1  0.73756945  0.24344754  0.37265723  1  -0.057533  0  -0.162949  -0.178011  0  3.943527  0
C  C110  1  0.23757305  0.74344546  0.12734154  1  -0.057931  0  -0.162952  -0.178005  0  3.943666  0
C  C111  1  0.26242877  0.75655302  0.62734124  1  -0.05753  0  -0.162966  -0.178037  0  3.943686  0
C  C112  1  0.62404227  0.24082554  0.93425627  1  -0.034895  0  -0.165093  -0.177756  0  3.919938  0
C  C113  1  0.87595883  0.25917545  0.43425670  1  -0.034756  0  -0.165133  -0.177946  0  3.919959  0
C  C114  1  0.37596101  0.75917440  0.06574396  1  -0.034187  0  -0.165127  -0.177811  0  3.919836  0
C  C115  1  0.12404322  0.74082509  0.56574235  1  -0.03475  0  -0.165117  -0.177854  0  3.919953  0
C  C116  1  0.48232603  0.30061960  0.93386335  1  0.294846  0  -0.043733  -0.083295  0  3.869902  0
C  C117  1  0.01767550  0.19938252  0.43386280  1  0.294853  0  -0.043761  -0.08322  0  3.870106  0
C  C118  1  0.51767475  0.69938094  0.06613805  1  0.294864  0  -0.043745  -0.083269  0  3.869898  0
C  C119  1  0.98232272  0.80061805  0.56613743  1  0.29412  0  -0.043738  -0.083296  0  3.870001  0
C  C120  1  0.32365245  0.27656165  0.06038005  1  0.966684  0  0.173889  0.095025  0  3.854536  0
C  C121  1  0.17635135  0.22343844  0.56037845  1  0.966665  0  0.173973  0.095157  0  3.854346  0
C  C122  1  0.67635064  0.72343597  0.93962135  1  0.9669  0  0.173905  0.095015  0  3.854443  0
C  C123  1  0.82364819  0.77656270  0.43962178  1  0.966686  0  0.173957  0.095128  0  3.854397  0
C  C124  1  0.11102312  0.21300555  0.01140453  1  0.964987  0  0.14357  0.12918  0  4.021374  0
C  C125  1  0.38897935  0.28699617  0.51140615  1  0.964877  0  0.143555  0.129174  0  4.021402  0
C  C126  1  0.88897765  0.78699499  0.98859570  1  0.96497  0  0.14347  0.12901  0  4.021471  0
C  C127  1  0.61102137  0.71300379  0.48859407  1  0.964929  0  0.143538  0.129133  0  4.021392  0
I  I128  1  0.82960851  0.99513767  0.93025761  1  0.078063  0  0.08543  -0.013711  0  1.646939  0
I  I129  1  0.67039531  0.50485977  0.43025910  1  0.078077  0  0.085406  -0.013742  0  1.646982  0
I  I130  1  0.17039350  0.00486228  0.06974437  1  0.078379  0  0.085421  -0.013755  0  1.646989  0
I  I131  1  0.32959768  0.49513968  0.56974230  1  0.078317  0  0.085399  -0.013719  0  1.647013  0
N  N132  1  0.21150426  0.33180247  0.75357700  1  -1.263909  0  -0.355206  -0.333878  0  3.578775  0
N  N133  1  0.28849640  0.16819750  0.25357717  1  -1.263916  0  -0.355195  -0.333798  0  3.578735  0
N  N134  1  0.78849779  0.66819806  0.24642264  1  -1.263939  0  -0.355251  -0.333904  0  3.578783  0
N  N135  1  0.71149900  0.83180019  0.74642481  1  -1.263958  0  -0.355223  -0.333838  0  3.578814  0
N  N136  1  0.08587687  0.41574428  0.83496043  1  -0.674103  0  -0.232075  -0.274495  0  3.075742  0
N  N137  1  0.41411920  0.08425823  0.33496168  1  -0.674052  0  -0.23211  -0.274547  0  3.075886  0
N  N138  1  0.91412376  0.58425452  0.16503922  1  -0.674139  0  -0.232038  -0.274441  0  3.075582  0
N  N139  1  0.58587636  0.91574119  0.66504089  1  -0.673594  0  -0.232108  -0.274585  0  3.075723  0
N  N140  1  0.99602996  0.34727409  0.83236655  1  -0.83051  0  -0.130994  0.169838  0  3.738293  0
N  N141  1  0.50396686  0.15272613  0.33236648  1  -0.830671  0  -0.130979  0.169889  0  3.738415  0
N  N142  1  0.00397072  0.65272530  0.16763309  1  -0.830486  0  -0.130993  0.169902  0  3.738329  0
N  N143  1  0.49602987  0.84727213  0.66763433  1  -0.83099  0  -0.13097  0.169916  0  3.738279  0
N  N144  1  0.33864197  0.27416665  0.98220738  1  -0.816967  0  -0.128723  0.173679  0  3.731391  0
N  N145  1  0.16135979  0.22583615  0.48220582  1  -0.817042  0  -0.128739  0.173699  0  3.731353  0
N  N146  1  0.66135876  0.72583331  0.01779519  1  -0.817174  0  -0.128743  0.173692  0  3.731317  0
N  N147  1  0.83863976  0.77416498  0.51779499  1  -0.817081  0  -0.128766  0.173704  0  3.731425  0
N  N148  1  0.20474033  0.23350528  0.94986311  1  -0.678869  0  -0.220538  -0.260409  0  3.095605  0
N  N149  1  0.29526381  0.26649685  0.44986291  1  -0.678693  0  -0.22047  -0.260355  0  3.095621  0
N  N150  1  0.79526172  0.76649525  0.05013771  1  -0.678723  0  -0.220426  -0.260312  0  3.095731  0
N  N151  1  0.70473825  0.73350368  0.55013673  1  -0.678684  0  -0.220468  -0.260366  0  3.095699  0
N  N152  1  0.17953855  0.23830028  0.08070970  1  -1.225638  0  -0.350491  -0.316519  0  3.602356  0
N  N153  1  0.32046409  0.26170045  0.58071063  1  -1.225878  0  -0.350509  -0.316596  0  3.602357  0
N  N154  1  0.82046335  0.76169852  0.91929053  1  -1.22579  0  -0.350483  -0.316464  0  3.602382  0
N  N155  1  0.67953545  0.73830069  0.41929019  1  -1.225806  0  -0.350494  -0.316543  0  3.602393  0
O  O156  1  0.46321736  0.18720168  0.74565808  1  -1.17237  0  -0.338547  -0.555  0  2.33132  0
O  O157  1  0.03678204  0.31279887  0.24565369  1  -1.172272  0  -0.338535  -0.554953  0  2.331295  0
O  O158  1  0.53677568  0.81279835  0.25434332  1  -1.17228  0  -0.338531  -0.554952  0  2.331458  0
O  O159  1  0.96322263  0.68720222  0.75434303  1  -1.172242  0  -0.338517  -0.554961  0  2.331394  0
O  O160  1  0.19699540  0.14034789  0.71792757  1  -1.18894  0  -0.336409  -0.571653  0  2.10715  0
O  O161  1  0.30300661  0.35965431  0.21792348  1  -1.18881  0  -0.336415  -0.571686  0  2.107215  0
O  O162  1  0.80299918  0.85965502  0.28207559  1  -1.188828  0  -0.336427  -0.571721  0  2.106996  0
O  O163  1  0.69700278  0.64034211  0.78207499  1  -1.188633  0  -0.336438  -0.571725  0  2.107111  0
O  O164  1  0.07440975  0.86460500  0.79224836  1  -1.19238  0  -0.34511  -0.572302  0  2.346287  0
O  O165  1  0.42559020  0.63539446  0.29225325  1  -1.192069  0  -0.345079  -0.572245  0  2.346166  0
O  O166  1  0.92558718  0.13539558  0.20774777  1  -1.192139  0  -0.345066  -0.572265  0  2.346316  0
O  O167  1  0.57441442  0.36460605  0.70774522  1  -1.192071  0  -0.345057  -0.572189  0  2.346349  0
O  O168  1  0.22737378  0.80959378  0.88887392  1  -1.183717  0  -0.334733  -0.563958  0  2.130505  0
O  O169  1  0.27260144  0.69041190  0.38886886  1  -1.183841  0  -0.334821  -0.563975  0  2.130397  0
O  O170  1  0.77261424  0.19040745  0.11112631  1  -1.183802  0  -0.334727  -0.563952  0  2.130456  0
O  O171  1  0.72740677  0.30958568  0.61112903  1  -1.183882  0  -0.334714  -0.56389  0  2.13031  0
