# generated using pymatgen
data_NaH5C5N2O5
_symmetry_space_group_name_H-M   'P 1'
_cell_length_a   3.55431327
_cell_length_b   10.60298548
_cell_length_c   17.87068623
_cell_angle_alpha   90.00041870
_cell_angle_beta   90.00009004
_cell_angle_gamma   91.66942368
_symmetry_Int_Tables_number   1
_chemical_formula_structural   NaH5C5N2O5
_chemical_formula_sum   'Na4 H20 C20 N8 O20'
_cell_volume   673.19475448
_cell_formula_units_Z   4
loop_
 _symmetry_equiv_pos_site_id
 _symmetry_equiv_pos_as_xyz
  1  'x, y, z'
loop_
 _atom_site_type_symbol
 _atom_site_label
 _atom_site_symmetry_multiplicity
 _atom_site_fract_x
 _atom_site_fract_y
 _atom_site_fract_z
 _atom_site_occupancy
 _atom_site_pbe_bader_charge
 _atom_site_pbe_bader_spin_density
 _atom_site_pbe_cm5_charge
 _atom_site_pbe_ddec_charge
 _atom_site_pbe_ddec_spin_density
 _atom_site_pbe_ddec_sum_bond_order
 _atom_site_pbe_magmom
Na  Na0  1  0.28976471  0.13185706  0.53256167  1  0.880051  0  0.68763  0.857724  0  0.555498  0
Na  Na1  1  0.21023699  0.36814626  0.03256014  1  0.880066  0  0.687621  0.857728  0  0.555468  0
Na  Na2  1  0.71022444  0.86814615  0.46743961  1  0.880071  0  0.687623  0.857708  0  0.555484  0
Na  Na3  1  0.78977163  0.63185413  0.96743834  1  0.880079  0  0.687634  0.857719  0  0.555492  0
H  H4  1  0.09807765  0.49144562  0.24065307  1  0.562369  0  0.318528  0.306278  0  0.970434  0
H  H5  1  0.40193065  0.00854638  0.74064974  1  0.562309  0  0.318511  0.306175  0  0.970575  0
H  H6  1  0.90193370  0.50855383  0.75934933  1  0.561158  0  0.318501  0.30625  0  0.970471  0
H  H7  1  0.59806952  0.99145401  0.25934931  1  0.562333  0  0.318509  0.306167  0  0.970604  0
H  H8  1  0.61549027  0.55530497  0.44530801  1  0.53637  0  0.313974  0.301462  0  0.975729  0
H  H9  1  0.88450107  0.94469417  0.94530584  1  0.536413  0  0.313976  0.301534  0  0.975686  0
H  H10  1  0.38449904  0.44470013  0.55469104  1  0.5361  0  0.31398  0.301512  0  0.975726  0
H  H11  1  0.11550489  0.05530811  0.05469265  1  0.53613  0  0.313959  0.301498  0  0.975678  0
H  H12  1  0.05429575  0.26660688  0.25850288  1  0.230052  0  0.134475  0.120523  0  1.015167  0
H  H13  1  0.44573145  0.23338529  0.75849581  1  0.230107  0  0.134458  0.120466  0  1.015306  0
H  H14  1  0.94570747  0.73339634  0.74150120  1  0.229968  0  0.1345  0.120508  0  1.015135  0
H  H15  1  0.55428021  0.76661793  0.24150211  1  0.230062  0  0.134444  0.120488  0  1.015305  0
H  H16  1  0.87666155  0.21159957  0.64467748  1  0.645588  0  0.290573  0.386679  0  0.956102  0
H  H17  1  0.62334613  0.28840539  0.14467923  1  0.645594  0  0.290577  0.38664  0  0.956155  0
H  H18  1  0.12333628  0.78840647  0.35532213  1  0.645593  0  0.290573  0.386683  0  0.95609  0
H  H19  1  0.37665975  0.71159594  0.85532093  1  0.645582  0  0.290552  0.386586  0  0.956227  0
H  H20  1  0.89296903  0.06187700  0.64530214  1  0.632525  0  0.283472  0.370966  0  0.982474  0
H  H21  1  0.60703582  0.43812797  0.14530242  1  0.632426  0  0.283469  0.370959  0  0.982462  0
H  H22  1  0.10702029  0.93812810  0.35469914  1  0.632443  0  0.283444  0.370912  0  0.982532  0
H  H23  1  0.39297006  0.56187336  0.85469607  1  0.63242  0  0.283456  0.370916  0  0.98252  0
C  C24  1  0.84826190  0.54128692  0.33984056  1  1.850122  0  0.348602  0.644417  0  4.138683  0
C  C25  1  0.65174776  0.95870656  0.83983511  1  1.850006  0  0.348689  0.644532  0  4.13885  0
C  C26  1  0.15175492  0.45871065  0.66015625  1  1.850103  0  0.34855  0.644376  0  4.138884  0
C  C27  1  0.34825522  0.04129383  0.16016561  1  1.849959  0  0.348669  0.64454  0  4.138838  0
C  C28  1  0.66089835  0.36328483  0.42301742  1  1.265391  0  0.238393  0.527422  0  4.111952  0
C  C29  1  0.83910800  0.13671889  0.92301573  1  1.265408  0  0.238426  0.527554  0  4.111896  0
C  C30  1  0.33907682  0.63671932  0.57698163  1  1.265423  0  0.238354  0.527331  0  4.111969  0
C  C31  1  0.16090062  0.86328150  0.07698163  1  1.265273  0  0.238409  0.527462  0  4.111766  0
C  C32  1  0.79570440  0.27706711  0.36672236  1  0.013668  0  -0.042335  -0.303658  0  3.962279  0
C  C33  1  0.70430130  0.22293232  0.86671858  1  0.013759  0  -0.042377  -0.303707  0  3.962181  0
C  C34  1  0.20429046  0.72293704  0.63327668  1  0.01343  0  -0.042271  -0.303517  0  3.962163  0
C  C35  1  0.29569911  0.77707090  0.13328047  1  0.013904  0  -0.042424  -0.303798  0  3.962368  0
C  C36  1  0.94484197  0.32791515  0.30195516  1  0.382282  0  0.072593  0.141357  0  3.900651  0
C  C37  1  0.55516611  0.17207803  0.80194962  1  0.382003  0  0.072618  0.1414  0  3.900924  0
C  C38  1  0.05515531  0.67208429  0.69804500  1  0.382413  0  0.072549  0.141293  0  3.900643  0
C  C39  1  0.44483977  0.82792330  0.19804998  1  0.382118  0  0.072692  0.141471  0  3.900967  0
C  C40  1  0.81217656  0.13683251  0.37812616  1  1.634941  0  0.214643  0.639323  0  4.206423  0
C  C41  1  0.68782856  0.36316608  0.87812476  1  1.634869  0  0.214669  0.639377  0  4.206509  0
C  C42  1  0.18780408  0.86316975  0.62187400  1  1.635074  0  0.214462  0.639044  0  4.206664  0
C  C43  1  0.31217451  0.63683525  0.12187428  1  1.634967  0  0.214673  0.639413  0  4.206531  0
N  N44  1  0.97129428  0.45366968  0.28892077  1  -1.286783  0  -0.372122  -0.330073  0  3.571252  0
N  N45  1  0.52871727  0.04632433  0.78891618  1  -1.286684  0  -0.372113  -0.329998  0  3.57148  0
N  N46  1  0.02871707  0.54632977  0.71107827  1  -1.28547  0  -0.372071  -0.32999  0  3.571152  0
N  N47  1  0.47128579  0.95367700  0.21108342  1  -1.28672  0  -0.372101  -0.329995  0  3.571664  0
N  N48  1  0.70253889  0.49082974  0.40502521  1  -1.260886  0  -0.384697  -0.451574  0  3.482394  0
N  N49  1  0.79745668  0.00917003  0.90502275  1  -1.260662  0  -0.38474  -0.451803  0  3.482457  0
N  N50  1  0.29745035  0.50917442  0.59497271  1  -1.26066  0  -0.384617  -0.451556  0  3.482468  0
N  N51  1  0.20254912  0.99083035  0.09497686  1  -1.260322  0  -0.384723  -0.451706  0  3.482295  0
O  O52  1  0.86584662  0.65613712  0.32766340  1  -1.175518  0  -0.281575  -0.521214  0  2.193043  0
O  O53  1  0.63414685  0.84385812  0.82765674  1  -1.175617  0  -0.281624  -0.52124  0  2.193229  0
O  O54  1  0.13417067  0.34386610  0.67233676  1  -1.175483  0  -0.281583  -0.521208  0  2.193166  0
O  O55  1  0.36586192  0.15614415  0.17234231  1  -1.175627  0  -0.281639  -0.521296  0  2.193181  0
O  O56  1  0.50760302  0.33530489  0.48429740  1  -1.17346  0  -0.328487  -0.535282  0  2.195346  0
O  O57  1  0.99241164  0.16469655  0.98429511  1  -1.17347  0  -0.328477  -0.535259  0  2.195371  0
O  O58  1  0.49237222  0.66470020  0.51570164  1  -1.173488  0  -0.328525  -0.535271  0  2.195306  0
O  O59  1  0.00758299  0.83530478  0.01570225  1  -1.173542  0  -0.328459  -0.535214  0  2.195203  0
O  O60  1  0.76327020  0.09358161  0.44366516  1  -1.222431  0  -0.461908  -0.698794  0  2.220932  0
O  O61  1  0.73673195  0.40641662  0.94366523  1  -1.222385  0  -0.461947  -0.698823  0  2.220855  0
O  O62  1  0.23671622  0.90642254  0.55633557  1  -1.222954  0  -0.461853  -0.698667  0  2.220938  0
O  O63  1  0.26329371  0.59358566  0.05633270  1  -1.222455  0  -0.461904  -0.698842  0  2.221061  0
O  O64  1  0.89515214  0.07028196  0.32117975  1  -1.203439  0  -0.320165  -0.576932  0  2.224773  0
O  O65  1  0.60485799  0.42971234  0.82117795  1  -1.203356  0  -0.320166  -0.576988  0  2.224863  0
O  O66  1  0.10483421  0.92972125  0.67882153  1  -1.202969  0  -0.320056  -0.57678  0  2.224716  0
O  O67  1  0.39514757  0.57028522  0.17881998  1  -1.203351  0  -0.320199  -0.577015  0  2.224833  0
O  O68  1  0.76921190  0.13485048  0.62120239  1  -1.310828  0  -0.711589  -0.878634  0  2.005695  0
O  O69  1  0.73079955  0.36515333  0.12120257  1  -1.310809  0  -0.711575  -0.878552  0  2.005718  0
O  O70  1  0.23078304  0.86515462  0.37879890  1  -1.310784  0  -0.711559  -0.878552  0  2.005703  0
O  O71  1  0.26920625  0.63484705  0.87879648  1  -1.310771  0  -0.71155  -0.878456  0  2.005781  0
