# generated using pymatgen
data_CuH26C26(NO)4
_symmetry_space_group_name_H-M   'P 1'
_cell_length_a   6.86568712
_cell_length_b   9.59824991
_cell_length_c   10.98581604
_cell_angle_alpha   79.73370613
_cell_angle_beta   73.06430959
_cell_angle_gamma   68.16052123
_symmetry_Int_Tables_number   1
_chemical_formula_structural   CuH26C26(NO)4
_chemical_formula_sum   'Cu1 H26 C26 N4 O4'
_cell_volume   640.85644559
_cell_formula_units_Z   1
loop_
 _symmetry_equiv_pos_site_id
 _symmetry_equiv_pos_as_xyz
  1  'x, y, z'
loop_
 _atom_site_type_symbol
 _atom_site_label
 _atom_site_symmetry_multiplicity
 _atom_site_fract_x
 _atom_site_fract_y
 _atom_site_fract_z
 _atom_site_occupancy
 _atom_site_hle17_ddec_charge
 _atom_site_hle17_ddec_spin_density
 _atom_site_hle17_ddec_sum_bond_order
 _atom_site_hle17_magmom
 _atom_site_hse06_10hf_ddec_charge
 _atom_site_hse06_10hf_ddec_spin_density
 _atom_site_hse06_10hf_ddec_sum_bond_order
 _atom_site_hse06_10hf_magmom
 _atom_site_hse06_ddec_charge
 _atom_site_hse06_ddec_spin_density
 _atom_site_hse06_ddec_sum_bond_order
 _atom_site_hse06_magmom
 _atom_site_pbe_cm5_charge
 _atom_site_pbe_ddec_charge
 _atom_site_pbe_ddec_spin_density
 _atom_site_pbe_ddec_sum_bond_order
 _atom_site_pbe_magmom
Cu  Cu0  1  0.49999433  0.50000494  0.00000214  1  0.829327  0.676106  1.79988  0.502  0.801041  0.765394  2.19796  0.613  0.895336  0.82776  2.121902  0.693  0.743424  0.743212  0.723508  2.249029  0.563
H  H1  1  0.21362757  0.31395633  0.06747103  1  0.316465  -0.00028  0.840506  0.0  0.304165  -6.9e-05  0.889931  0.0  0.311106  -8.4e-05  0.884291  0.0  0.350497  0.298934  -6.7e-05  0.894437  0.0
H  H2  1  0.78634912  0.68604508  0.93254045  1  0.316494  -0.00028  0.840612  0.0  0.304145  -6.9e-05  0.890088  0.0  0.311079  -8.3e-05  0.884456  0.0  0.350555  0.298921  -6.7e-05  0.894588  0.0
H  H3  1  0.76644656  0.33758570  0.65151209  1  0.120786  -0.000428  0.935483  0.0  0.142879  -0.000226  0.99354  0.0  0.145034  -0.000261  0.992824  0.0  0.098233  0.141525  -0.000203  0.993572  0.0
H  H4  1  0.23354559  0.66242526  0.34849187  1  0.120829  -0.000414  0.935366  0.0  0.142903  -0.000227  0.993447  0.0  0.14506  -0.000261  0.992732  0.0  0.098198  0.141556  -0.000204  0.993478  0.0
H  H5  1  0.93217355  0.16902969  0.71658332  1  0.106512  -0.000284  0.965311  0.0  0.128827  -0.000163  1.028549  0.0  0.129964  -0.000171  1.028793  0.0  0.092364  0.12795  -0.000163  1.028498  0.0
H  H6  1  0.06779835  0.83099500  0.28341320  1  0.106531  -0.000266  0.965103  0.0  0.128819  -0.000166  1.028406  0.0  0.129972  -0.000171  1.028631  0.0  0.09239  0.127945  -0.000163  1.028349  0.0
H  H7  1  0.86049739  0.34248437  0.78469205  1  0.12835  -0.000199  0.940698  0.0  0.147441  -0.000234  1.000968  0.0  0.149844  -0.000257  0.998787  0.0  0.10001  0.145401  -0.000177  1.003096  0.0
H  H8  1  0.13948269  0.65752240  0.21531143  1  0.12836  -0.000191  0.940682  0.0  0.147404  -0.000235  1.000996  0.0  0.149804  -0.000257  0.99882  0.0  0.099967  0.145363  -0.000177  1.003129  0.0
H  H9  1  0.03782696  0.13620653  0.03795967  1  0.140066  1.3e-05  0.978455  0.0  0.159146  2.4e-05  1.038379  0.0  0.161786  2.1e-05  1.03706  0.0  0.09773  0.157108  1.7e-05  1.039596  0.0
H  H10  1  0.96216124  0.86378102  0.96203917  1  0.14008  1e-05  0.978351  0.0  0.159138  2.4e-05  1.038313  0.0  0.161777  2.1e-05  1.036995  0.0  0.097733  0.157105  1.7e-05  1.039528  0.0
H  H11  1  0.25040271  0.96234455  0.99369738  1  0.121942  -0.000416  0.965172  0.0  0.138086  -0.000214  1.031338  0.0  0.139508  -0.000236  1.032488  0.0  0.094852  0.13723  -0.000192  1.030356  0.0
H  H12  1  0.74960857  0.03764771  0.00628232  1  0.121955  -0.000419  0.965087  0.0  0.138074  -0.000214  1.031323  0.0  0.139494  -0.000236  1.032472  0.0  0.094888  0.137215  -0.000192  1.030341  0.0
H  H13  1  0.11206387  0.08108587  0.88040310  1  0.11416  2.9e-05  0.957449  0.0  0.136263  5.3e-05  1.018761  0.0  0.137138  6e-06  1.01955  0.0  0.095398  0.135534  6.5e-05  1.018295  0.0
H  H14  1  0.88792585  0.91891821  0.11958615  1  0.114175  2.2e-05  0.957204  0.0  0.136281  5.3e-05  1.018529  0.0  0.137156  7e-06  1.019316  0.0  0.09542  0.135556  6.5e-05  1.01806  0.0
H  H15  1  0.49035771  0.96195026  0.74426092  1  0.090672  -4.8e-05  0.945536  0.0  0.108016  -1e-06  1.007481  0.0  0.10846  -1e-05  1.008488  0.0  0.099007  0.107792  0.000214  1.006764  0.0
H  H16  1  0.50964792  0.03805026  0.25573760  1  0.090638  -5.6e-05  0.945507  0.0  0.107987  -1e-06  1.007476  0.0  0.108433  -1e-05  1.008488  0.0  0.098984  0.107788  0.000214  1.006731  0.0
H  H17  1  0.75681531  0.95610974  0.71813171  1  0.085195  -6e-06  0.928025  0.0  0.103114  1.5e-05  0.987887  0.0  0.104221  1.9e-05  0.986906  0.0  0.097713  0.10204  -5e-06  0.988769  0.0
H  H18  1  0.24317453  0.04389696  0.28188074  1  0.08513  -1.6e-05  0.927915  0.0  0.10315  1.4e-05  0.987707  0.0  0.104262  1.9e-05  0.986726  0.0  0.097725  0.102071  -6e-06  0.988592  0.0
H  H19  1  0.28722011  0.29111383  0.64504174  1  0.092645  -3e-06  0.951064  0.0  0.10594  -6e-06  1.005974  0.0  0.108453  -8e-06  1.005852  0.0  0.099976  0.104187  7e-06  1.005851  0.0
H  H20  1  0.71280827  0.70890308  0.35496844  1  0.092845  -4e-06  0.951177  0.0  0.106154  -6e-06  1.006037  0.0  0.108669  -8e-06  1.005909  0.0  0.100044  0.104411  7e-06  1.005925  0.0
H  H21  1  0.28527495  0.41278022  0.42508827  1  0.092815  0.000174  0.953156  0.0  0.105358  0.000249  1.010653  0.0  0.10869  0.000166  1.008303  0.0  0.101507  0.103044  0.000304  1.011903  0.0
H  H22  1  0.71474721  0.58722560  0.57491691  1  0.092896  0.00018  0.953149  0.0  0.105466  0.000249  1.010596  0.0  0.108798  0.000166  1.008246  0.0  0.101519  0.10315  0.000305  1.011844  0.0
H  H23  1  0.89629853  0.07818142  0.27892703  1  0.081522  -9.6e-05  0.976774  0.0  0.090527  -2.4e-05  1.045538  0.0  0.093549  -1.7e-05  1.043148  0.0  0.09662  0.088339  -3e-06  1.047451  0.0
H  H24  1  0.10370927  0.92180803  0.72107937  1  0.081589  -9.4e-05  0.976738  0.0  0.090546  -2.4e-05  1.045543  0.0  0.09357  -1.7e-05  1.043149  0.0  0.096616  0.088359  -3e-06  1.047455  0.0
H  H25  1  0.88125619  0.94172672  0.49605234  1  0.087364  0.000107  0.970332  0.0  0.098754  7.4e-05  1.031631  0.0  0.101075  4.3e-05  1.031789  0.0  0.098069  0.097164  0.000104  1.031468  0.0
H  H26  1  0.11874938  0.05826512  0.50396046  1  0.08737  0.000105  0.970191  0.0  0.09883  7.4e-05  1.031409  0.0  0.101149  4.3e-05  1.031567  0.0  0.098091  0.097236  0.000104  1.031243  0.0
C  C27  1  0.33416229  0.16037461  0.92235205  1  0.234168  -0.005549  3.732463  -0.003  0.217957  -0.001696  4.003307  0.0  0.229243  -0.002605  4.020022  -0.001  0.104434  0.210535  -0.000942  3.991456  0.0
C  C28  1  0.66582910  0.83962946  0.07763960  1  0.233949  -0.005538  3.732876  -0.003  0.218009  -0.001696  4.003414  0.0  0.229292  -0.002606  4.020129  -0.001  0.104447  0.21057  -0.00094  3.991583  0.0
C  C29  1  0.51484174  0.14248777  0.81925583  1  -0.147202  0.003431  3.764329  0.004  -0.134687  0.001803  4.017238  0.002  -0.144638  0.001548  4.041034  0.002  -0.03765  -0.128654  0.002046  4.001145  0.003
C  C30  1  0.48516450  0.85751037  0.18073478  1  -0.147059  0.003423  3.763867  0.004  -0.134722  0.001807  4.016907  0.002  -0.144671  0.00155  4.040716  0.002  -0.03757  -0.128668  0.002047  4.000797  0.003
C  C31  1  0.60641944  0.24884568  0.82856248  1  0.219062  -0.005015  3.739193  -0.002  0.218055  -0.000882  4.006763  0.001  0.230044  -0.002355  4.02569  0.0  0.102152  0.210426  0.000119  3.993817  0.002
C  C32  1  0.39357170  0.75114836  0.17142916  1  0.218979  -0.005004  3.739106  -0.002  0.218058  -0.000886  4.006652  0.001  0.230028  -0.002357  4.02561  0.0  0.102128  0.210424  0.000117  3.993704  0.002
C  C33  1  0.80215962  0.27631602  0.74143000  1  -0.342452  -0.000201  3.724168  0.0  -0.425257  -0.000118  3.96392  0.0  -0.42827  -0.000188  3.970375  0.0  -0.232659  -0.422994  -4.8e-05  3.959802  0.0
C  C34  1  0.19783289  0.72368585  0.25856455  1  -0.342491  -0.000253  3.724036  0.0  -0.425231  -0.000113  3.963797  0.0  -0.428252  -0.000188  3.970249  0.0  -0.23257  -0.422969  -4.7e-05  3.95968  0.0
C  C35  1  0.17503703  0.08055742  0.96156630  1  -0.367583  0.000592  3.716889  0.001  -0.443169  0.000346  3.953352  0.001  -0.447182  0.000217  3.960912  0.0  -0.239495  -0.440202  0.00044  3.947978  0.001
C  C36  1  0.82494941  0.91944004  0.03842296  1  -0.367502  0.000609  3.716837  0.001  -0.443142  0.000345  3.953213  0.001  -0.447151  0.000217  3.960768  0.0  -0.23956  -0.440175  0.000439  3.947845  0.001
C  C37  1  0.59129641  0.03394905  0.71921390  1  -0.151009  0.000854  3.743081  0.001  -0.199611  0.000638  3.987649  0.001  -0.199086  0.000482  4.000896  0.001  -0.150724  -0.199741  0.000799  3.978704  0.001
C  C38  1  0.40872530  0.96604999  0.28078527  1  -0.151003  0.000881  3.742516  0.001  -0.199738  0.000637  3.987344  0.001  -0.199216  0.000482  4.000587  0.001  -0.150746  -0.199886  0.000799  3.97839  0.001
C  C39  1  0.58685664  0.10922524  0.58602345  1  0.109629  0.000527  3.718615  0.0  0.129796  0.000313  3.955192  0.0  0.130371  0.000135  3.980378  0.0  -0.00483  0.129279  0.000328  3.938128  0.0
C  C40  1  0.41315583  0.89076410  0.41398294  1  0.109675  0.000487  3.718593  0.0  0.129863  0.000314  3.955228  0.0  0.13044  0.000134  3.980418  0.0  -0.004851  0.129341  0.000328  3.93817  0.0
C  C41  1  0.41890270  0.24177041  0.56440421  1  -0.125414  -0.000349  3.746585  0.0  -0.143153  -3.7e-05  3.994341  0.0  -0.1478  -2.1e-05  4.017504  0.0  -0.093319  -0.139318  -5e-06  3.976622  0.0
C  C42  1  0.58114084  0.75822611  0.43560831  1  -0.125604  -0.000294  3.746936  0.0  -0.143358  -3.6e-05  3.99468  0.0  -0.148008  -2.1e-05  4.017841  0.0  -0.093338  -0.139539  -4e-06  3.976987  0.0
C  C43  1  0.41873598  0.31155501  0.44167359  1  -0.069818  0.000154  3.75231  0.0  -0.093195  0.00025  3.998076  0.0  -0.092114  2.7e-05  4.017458  0.0  -0.087248  -0.093069  0.000398  3.982244  0.0
C  C44  1  0.58126876  0.68844908  0.55833722  1  -0.07004  0.000105  3.752777  0.0  -0.093457  0.00025  3.998557  0.0  -0.092378  2.6e-05  4.017942  0.0  -0.087366  -0.09333  0.000398  3.982727  0.0
C  C45  1  0.59370108  0.25461695  0.33854352  1  -0.063089  0.008644  3.773723  0.009  -0.038384  0.005203  3.999916  0.006  -0.045702  0.003613  4.021343  0.004  -0.023517  -0.033272  0.006575  3.984956  0.007
C  C46  1  0.40630057  0.74536806  0.66145579  1  -0.062914  0.008669  3.773657  0.009  -0.038203  0.005205  3.999776  0.006  -0.045519  0.003616  4.021204  0.004  -0.023382  -0.033086  0.006577  3.984801  0.007
C  C47  1  0.76091044  0.12177489  0.35977747  1  -0.08428  0.000879  3.779894  0.001  -0.109844  0.000837  4.033273  0.001  -0.109747  0.000441  4.053229  0.001  -0.092097  -0.110315  0.000866  4.020561  0.001
C  C48  1  0.23909224  0.87822575  0.64022435  1  -0.084436  0.000848  3.779805  0.001  -0.109972  0.000838  4.033211  0.001  -0.109875  0.000439  4.053167  0.001  -0.092151  -0.110441  0.000866  4.020488  0.001
C  C49  1  0.75369898  0.04757308  0.48114822  1  -0.131889  0.000306  3.770947  0.0  -0.150952  0.000206  4.021634  0.0  -0.155318  0.000135  4.044874  0.0  -0.095252  -0.148081  0.000623  4.006067  0.001
C  C50  1  0.24632615  0.95241806  0.51885074  1  -0.131842  0.000344  3.770943  0.0  -0.150953  0.000205  4.021632  0.0  -0.155321  0.000136  4.044875  0.0  -0.095236  -0.148082  0.000622  4.006057  0.001
C  C51  1  0.60798796  0.33230802  0.20677641  1  0.627723  -0.008847  3.918057  -0.008  0.587213  -0.003232  4.219372  -0.004  0.623631  -0.003703  4.214247  -0.004  0.191412  0.562495  -0.002735  4.222309  -0.004
C  C52  1  0.39200282  0.66768517  0.79323003  1  0.627574  -0.008846  3.918314  -0.008  0.587147  -0.003229  4.219509  -0.004  0.623564  -0.003703  4.214378  -0.004  0.19149  0.562427  -0.002736  4.222462  -0.004
N  N53  1  0.48883925  0.32593275  0.93225981  1  -0.269733  0.06103  3.225334  0.079  -0.252738  0.045754  3.545711  0.062  -0.279028  0.03845  3.563875  0.056  -0.278914  -0.237164  0.04979  3.534849  0.065
N  N54  1  0.51114286  0.67407488  0.06773127  1  -0.269439  0.061016  3.22539  0.079  -0.252515  0.045747  3.545807  0.062  -0.278795  0.038446  3.563969  0.056  -0.278925  -0.236943  0.049781  3.534957  0.065
N  N55  1  0.32556382  0.27054451  0.98761402  1  -0.197146  0.001926  3.446996  0.002  -0.14638  0.001373  3.692598  0.001  -0.156343  0.000991  3.709661  0.001  -0.280643  -0.139481  0.001663  3.681273  0.002
N  N56  1  0.67441153  0.72946106  0.01237787  1  -0.197303  0.001922  3.447216  0.002  -0.146534  0.001372  3.692828  0.001  -0.15649  0.000991  3.709877  0.001  -0.280743  -0.139642  0.001662  3.681513  0.002
O  O57  1  0.42463088  0.40485649  0.17660993  1  -0.601224  0.106938  2.011262  0.146  -0.579676  0.068743  2.286968  0.102  -0.624103  0.0525  2.280115  0.084  -0.335198  -0.550764  0.079209  2.291834  0.111
O  O58  1  0.57536298  0.59511543  0.82339598  1  -0.601154  0.107002  2.011165  0.146  -0.579655  0.068777  2.286854  0.102  -0.624093  0.052528  2.280001  0.084  -0.33531  -0.550741  0.07924  2.291726  0.111
O  O59  1  0.78917129  0.32435868  0.13255997  1  -0.632962  -0.001966  1.905395  0.001  -0.605032  -0.00169  2.133116  0.001  -0.630473  -0.002769  2.122451  -0.001  -0.340132  -0.587558  -0.000793  2.140301  0.002
O  O60  1  0.21084748  0.67564380  0.86744102  1  -0.632886  -0.001967  1.905946  0.001  -0.604994  -0.001692  2.13364  0.001  -0.630425  -0.002771  2.122963  -0.001  -0.340168  -0.587522  -0.000795  2.140835  0.002
