# generated using pymatgen
data_CdH40C34S2(N7O)2
_symmetry_space_group_name_H-M   'P 1'
_cell_length_a   9.34100832
_cell_length_b   9.45212247
_cell_length_c   11.27274122
_cell_angle_alpha   109.42801663
_cell_angle_beta   96.61129927
_cell_angle_gamma   91.92926596
_symmetry_Int_Tables_number   1
_chemical_formula_structural   CdH40C34S2(N7O)2
_chemical_formula_sum   'Cd1 H40 C34 S2 N14 O2'
_cell_volume   929.62799334
_cell_formula_units_Z   1
loop_
 _symmetry_equiv_pos_site_id
 _symmetry_equiv_pos_as_xyz
  1  'x, y, z'
loop_
 _atom_site_type_symbol
 _atom_site_label
 _atom_site_symmetry_multiplicity
 _atom_site_fract_x
 _atom_site_fract_y
 _atom_site_fract_z
 _atom_site_occupancy
 _atom_site_hle17_bader_spin_density
 _atom_site_hle17_ddec_charge
 _atom_site_hle17_ddec_spin_density
 _atom_site_hle17_ddec_sum_bond_order
 _atom_site_hle17_magmom
 _atom_site_hse06_10hf_bader_spin_density
 _atom_site_hse06_10hf_ddec_charge
 _atom_site_hse06_10hf_ddec_spin_density
 _atom_site_hse06_10hf_ddec_sum_bond_order
 _atom_site_hse06_10hf_magmom
 _atom_site_hse06_bader_spin_density
 _atom_site_hse06_ddec_charge
 _atom_site_hse06_ddec_spin_density
 _atom_site_hse06_ddec_sum_bond_order
 _atom_site_hse06_magmom
 _atom_site_pbe_bader_spin_density
 _atom_site_pbe_cm5_charge
 _atom_site_pbe_ddec_charge
 _atom_site_pbe_ddec_spin_density
 _atom_site_pbe_ddec_sum_bond_order
 _atom_site_pbe_magmom
Cd  Cd0  1  0.50000011  0.50000019  0.50000020  1  0  1.043748  0  1.90016  0  0  0.847689  0  2.365382  0  0  0.893634  0  2.327116  0  0  0.804845  0.815916  0  2.391263  0
H  H1  1  0.65143738  0.06220349  0.98929777  1  0  0.353695  0  0.93528  0  0  0.318532  0  1.029693  0  0  0.329835  0  1.016964  0  0  0.301482  0.31022  0  1.039375  0
H  H2  1  0.34856377  0.93779466  0.01070208  1  0  0.353679  0  0.935286  0  0  0.318494  0  1.029751  0  0  0.329797  0  1.017018  0  0  0.301451  0.31018  0  1.039432  0
H  H3  1  0.83481949  0.38164419  0.38126470  1  0  0.099509  0  0.972691  0  0  0.103574  0  1.047204  0  0  0.105051  0  1.044949  0  0  0.130394  0.102052  0  1.048651  0
H  H4  1  0.16517957  0.61835507  0.61873439  1  0  0.099494  0  0.972722  0  0  0.103572  0  1.047227  0  0  0.105048  0  1.044976  0  0  0.13039  0.102052  0  1.048676  0
H  H5  1  0.41292307  0.22048344  0.19885508  1  0  0.100601  0  0.946898  0  0  0.108392  0  1.012804  0  0  0.110569  0  1.009687  0  0  0.13737  0.106723  0  1.015046  0
H  H6  1  0.58707914  0.77951471  0.80114132  1  0  0.100726  0  0.946735  0  0  0.108483  0  1.012695  0  0  0.110674  0  1.009575  0  0  0.137392  0.106815  0  1.014936  0
H  H7  1  0.85894276  0.01685515  0.13222685  1  0  0.094715  0  0.943513  0  0  0.105811  0  1.013719  0  0  0.106276  0  1.013427  0  0  0.117136  0.105258  0  1.013288  0
H  H8  1  0.14105838  0.98314299  0.86777389  1  0  0.094735  0  0.94351  0  0  0.105823  0  1.013706  0  0  0.106286  0  1.013413  0  0  0.117152  0.10527  0  1.013277  0
H  H9  1  0.96945863  0.17899130  0.23054682  1  0  0.094903  0  0.939377  0  0  0.108286  0  1.004876  0  0  0.108492  0  1.004277  0  0  0.114604  0.107991  0  1.00447  0
H  H10  1  0.03054375  0.82100910  0.76945378  1  0  0.094909  0  0.939404  0  0  0.108283  0  1.004894  0  0  0.108486  0  1.004296  0  0  0.114617  0.107988  0  1.004494  0
H  H11  1  0.03181028  0.22381090  0.73577196  1  0  0.086585  0  0.995029  0  0  0.096969  0  1.063012  0  0  0.099529  0  1.061686  0  0  0.08846  0.095031  0  1.064212  0
H  H12  1  0.96818679  0.77619060  0.26422845  1  0  0.086577  0  0.995032  0  0  0.096951  0  1.063036  0  0  0.099509  0  1.061712  0  0  0.088436  0.095012  0  1.064233  0
H  H13  1  0.10870320  0.29966143  0.13693270  1  0  0.096215  0  0.96405  0  0  0.109079  0  1.024353  0  0  0.111457  0  1.023383  0  0  0.100446  0.107247  0  1.025286  0
H  H14  1  0.89129794  0.70033671  0.86306626  1  0  0.096208  0  0.964007  0  0  0.109078  0  1.024304  0  0  0.111456  0  1.023335  0  0  0.100435  0.107244  0  1.025244  0
H  H15  1  0.84837666  0.03281711  0.60883309  1  0  0.078764  0  0.945635  0  0  0.089923  0  1.017031  0  0  0.090628  0  1.016509  0  0  0.103286  0.089056  0  1.018039  0
H  H16  1  0.15162041  0.96718439  0.39116732  1  0  0.078733  0  0.945645  0  0  0.089897  0  1.017051  0  0  0.090603  0  1.016526  0  0  0.103277  0.08903  0  1.018058  0
H  H17  1  0.72172083  0.95134903  0.67797650  1  0  0.108499  0  0.916791  0  0  0.121437  0  0.981251  0  0  0.122828  0  0.980034  0  0  0.122483  0.120339  0  0.982135  0
H  H18  1  0.27827731  0.04865247  0.32202401  1  0  0.108502  0  0.916762  0  0  0.121425  0  0.981261  0  0  0.122817  0  0.98004  0  0  0.122479  0.120328  0  0.982144  0
H  H19  1  0.45528125  0.29859572  0.92529607  1  0  0.098391  0  0.960365  0  0  0.120506  0  1.021039  0  0  0.121931  0  1.021249  0  0  0.08283  0.119213  0  1.021712  0
H  H20  1  0.54471873  0.70140129  0.07470247  1  0  0.098369  0  0.960421  0  0  0.120486  0  1.021096  0  0  0.121911  0  1.021305  0  0  0.082829  0.119192  0  1.021769  0
H  H21  1  0.32143680  0.16352389  0.82074482  1  0  0.101153  0  0.95871  0  0  0.120652  0  1.022269  0  0  0.122167  0  1.022253  0  0  0.082829  0.119459  0  1.022699  0
H  H22  1  0.67856127  0.83647649  0.17925448  1  0  0.101177  0  0.958682  0  0  0.120653  0  1.022256  0  0  0.122167  0  1.022239  0  0  0.082832  0.119458  0  1.022685  0
H  H23  1  0.35163369  0.18130143  0.98334110  1  0  0.09097  0  0.985553  0  0  0.106931  0  1.060101  0  0  0.108394  0  1.060199  0  0  0.080187  0.105871  0  1.06013  0
H  H24  1  0.64836306  0.81869558  0.01665714  1  0  0.090946  0  0.985593  0  0  0.106911  0  1.060145  0  0  0.108372  0  1.060244  0  0  0.080176  0.105849  0  1.060176  0
H  H25  1  0.14786112  0.53012783  0.87090444  1  0  0.09471  0  0.977701  0  0  0.112901  0  1.045171  0  0  0.113639  0  1.046965  0  0  0.078345  0.112665  0  1.043433  0
H  H26  1  0.85214042  0.46987594  0.12909790  1  0  0.094716  0  0.977714  0  0  0.112915  0  1.04517  0  0  0.113655  0  1.046962  0  0  0.078353  0.112679  0  1.04343  0
H  H27  1  0.20452661  0.37256816  0.75352451  1  0  0.080328  0  1.008568  0  0  0.095695  0  1.083705  0  0  0.096376  0  1.084734  0  0  0.070763  0.095376  0  1.082657  0
H  H28  1  0.79547385  0.62743561  0.24647596  1  0  0.080367  0  1.008489  0  0  0.095745  0  1.08361  0  0  0.096427  0  1.084636  0  0  0.070787  0.095424  0  1.082562  0
H  H29  1  0.33535826  0.50732237  0.86247927  1  0  0.097954  0  0.952463  0  0  0.118716  0  1.014483  0  0  0.11992  0  1.015298  0  0  0.081803  0.117999  0  1.013724  0
H  H30  1  0.66464312  0.49267914  0.13752154  1  0  0.097956  0  0.952493  0  0  0.118746  0  1.014474  0  0  0.11995  0  1.01529  0  0  0.081817  0.118029  0  1.013715  0
H  H31  1  0.29540719  0.42497809  0.15471477  1  0  0.091984  0  0.977255  0  0  0.11033  0  1.046477  0  0  0.111139  0  1.046741  0  0  0.080241  0.10971  0  1.046197  0
H  H32  1  0.70459172  0.57501892  0.84528544  1  0  0.091978  0  0.977295  0  0  0.110307  0  1.046527  0  0  0.111114  0  1.046793  0  0  0.080242  0.10969  0  1.046244  0
H  H33  1  0.19616703  0.55853143  0.10671791  1  0  0.095745  0  0.975503  0  0  0.112839  0  1.045367  0  0  0.113204  0  1.047963  0  0  0.080296  0.112496  0  1.043544  0
H  H34  1  0.80383304  0.44146671  0.89328273  1  0  0.095741  0  0.97548  0  0  0.112841  0  1.04534  0  0  0.113208  0  1.047933  0  0  0.080292  0.112493  0  1.04352  0
H  H35  1  0.38059465  0.53990579  0.08391185  1  0  0.097276  0  0.962935  0  0  0.118692  0  1.024652  0  0  0.120363  0  1.024366  0  0  0.083078  0.117697  0  1.024281  0
H  H36  1  0.61940549  0.46009348  0.91608822  1  0  0.097267  0  0.962925  0  0  0.118689  0  1.02463  0  0  0.12036  0  1.024343  0  0  0.083071  0.117693  0  1.024261  0
H  H37  1  0.78073330  0.32692800  0.61643062  1  0  0.105262  0  0.939247  0  0  0.114899  0  1.00548  0  0  0.117094  0  1.002783  0  0  0.134658  0.112783  0  1.008016  0
H  H38  1  0.21926584  0.67307238  0.38356790  1  0  0.105272  0  0.939266  0  0  0.114927  0  1.005472  0  0  0.117115  0  1.002797  0  0  0.134663  0.11281  0  1.008008  0
H  H39  1  0.33824979  0.21131157  0.59819595  1  0  0.083794  0  0.952451  0  0  0.093533  0  1.015644  0  0  0.094858  0  1.014508  0  0  0.126171  0.092091  0  1.01703  0
H  H40  1  0.66175060  0.78869107  0.40180597  1  0  0.083774  0  0.952445  0  0  0.093514  0  1.015648  0  0  0.094837  0  1.014513  0  0  0.126168  0.092087  0  1.017022  0
C  C41  1  0.74208949  0.32110896  0.31420866  1  0  0.181897  0  3.643699  0  0  0.106162  0  3.906228  0  0  0.130639  0  3.922513  0  0  0.166424  0.097177  0  3.89693  0
C  C42  1  0.25790958  0.67889030  0.68579131  1  0  0.181895  0  3.643797  0  0  0.106136  0  3.90633  0  0  0.130615  0  3.922617  0  0  0.166407  0.097145  0  3.897042  0
C  C43  1  0.52964575  0.23743730  0.21883617  1  0  0.229407  0  3.674338  0  0  0.168098  0  3.965934  0  0  0.182361  0  3.973144  0  0  0.158214  0.158717  0  3.959155  0
C  C44  1  0.47035531  0.76255971  0.78116247  1  0  0.229363  0  3.674214  0  0  0.168055  0  3.9658  0  0  0.182296  0  3.973033  0  0  0.158217  0.158674  0  3.959026  0
C  C45  1  0.87873806  0.13872931  0.15386532  1  0  -0.051189  0  3.662747  0  0  -0.129838  0  3.91064  0  0  -0.114895  0  3.923046  0  0  -0.044826  -0.132901  0  3.903906  0
C  C46  1  0.12126315  0.86126996  0.84613396  1  0  -0.051179  0  3.662734  0  0  -0.12979  0  3.910562  0  0  -0.114837  0  3.922951  0  0  -0.044849  -0.132858  0  3.903841  0
C  C47  1  0.91254713  0.17201801  0.03786064  1  0  -0.058567  0  3.783576  0  0  -0.041824  0  4.034095  0  0  -0.046378  0  4.056458  0  0  -0.032716  -0.038936  0  4.017639  0
C  C48  1  0.08745401  0.82798013  0.96213922  1  0  -0.058667  0  3.783621  0  0  -0.041918  0  4.034115  0  0  -0.046475  0  4.056479  0  0  -0.032739  -0.039034  0  4.01767  0
C  C49  1  0.82216680  0.11209346  0.92091288  1  0  0.248708  0  3.784759  0  0  0.229612  0  4.047771  0  0  0.239911  0  4.064325  0  0  0.081787  0.222225  0  4.035506  0
C  C50  1  0.17783334  0.88790581  0.07908630  1  0  0.248668  0  3.78471  0  0  0.229561  0  4.047731  0  0  0.239857  0  4.064287  0  0  0.081775  0.222174  0  4.035466  0
C  C51  1  0.86772421  0.13035920  0.81171857  1  0  -0.044181  0  3.754167  0  0  -0.026534  0  4.003063  0  0  -0.031524  0  4.027941  0  0  -0.029597  -0.023018  0  3.985711  0
C  C52  1  0.13227494  0.86964119  0.18828084  1  0  -0.044154  0  3.75414  0  0  -0.026491  0  4.003035  0  0  -0.031488  0  4.027917  0  0  -0.029653  -0.022977  0  3.985682  0
C  C53  1  0.99862024  0.21274305  0.82227846  1  0  -0.143173  0  3.738216  0  0  -0.171783  0  3.985051  0  0  -0.172572  0  4.005431  0  0  -0.093513  -0.171089  0  3.971807  0
C  C54  1  0.00137899  0.78725847  0.17772216  1  0  -0.143132  0  3.738248  0  0  -0.171745  0  3.985064  0  0  -0.17253  0  4.005445  0  0  -0.093438  -0.171047  0  3.971815  0
C  C55  1  0.08760064  0.27899365  0.93846904  1  0  0.032363  0  3.683652  0  0  0.051997  0  3.91344  0  0  0.050644  0  3.93743  0  0  -0.015086  0.052283  0  3.897858  0
C  C56  1  0.91240043  0.72100337  0.06153049  1  0  0.0323  0  3.683637  0  0  0.051959  0  3.913421  0  0  0.050613  0  3.937401  0  0  -0.015105  0.052248  0  3.897832  0
C  C57  1  0.04164307  0.25513795  0.04471167  1  0  -0.130706  0  3.729806  0  0  -0.159576  0  3.976849  0  0  -0.159952  0  3.996901  0  0  -0.089948  -0.159336  0  3.963733  0
C  C58  1  0.95835816  0.74486131  0.95528850  1  0  -0.130595  0  3.729694  0  0  -0.159478  0  3.976724  0  0  -0.159855  0  3.996775  0  0  -0.08989  -0.159239  0  3.963615  0
C  C59  1  0.77820480  0.05731919  0.68383054  1  0  -0.041809  0  3.64678  0  0  -0.123719  0  3.899163  0  0  -0.118593  0  3.908828  0  0  -0.047646  -0.126848  0  3.892134  0
C  C60  1  0.22179227  0.94268232  0.31616987  1  0  -0.041804  0  3.646766  0  0  -0.123766  0  3.899197  0  0  -0.118641  0  3.908863  0  0  -0.047654  -0.126895  0  3.892166  0
C  C61  1  0.23395854  0.36216664  0.94745736  1  0  0.20745  0  3.600524  0  0  0.245714  0  3.813645  0  0  0.246225  0  3.834206  0  0  -0.01455  0.245299  0  3.800131  0
C  C62  1  0.76604160  0.63783262  0.05254182  1  0  0.207572  0  3.600336  0  0  0.245773  0  3.813574  0  0  0.24628  0  3.834121  0  0  -0.014525  0.245358  0  3.800055  0
C  C63  1  0.34684004  0.24462926  0.91744769  1  0  -0.341777  0  3.658215  0  0  -0.421778  0  3.894569  0  0  -0.425419  0  3.905959  0  0  -0.250114  -0.419636  0  3.888128  0
C  C64  1  0.65315794  0.75537000  0.08255130  1  0  -0.341761  0  3.658203  0  0  -0.421729  0  3.894551  0  0  -0.425379  0  3.905963  0  0  -0.250112  -0.419585  0  3.888109  0
C  C65  1  0.22941432  0.44727660  0.85260944  1  0  -0.341442  0  3.671341  0  0  -0.418808  0  3.907961  0  0  -0.421962  0  3.919289  0  0  -0.254213  -0.416205  0  3.899406  0
C  C66  1  0.77058706  0.55272492  0.14739138  1  0  -0.341546  0  3.671287  0  0  -0.418943  0  3.907934  0  0  -0.422097  0  3.919259  0  0  -0.254272  -0.416341  0  3.899377  0
C  C67  1  0.27836094  0.47717541  0.08110408  1  0  -0.342192  0  3.667331  0  0  -0.421518  0  3.904269  0  0  -0.42442  0  3.91532  0  0  -0.249588  -0.418611  0  3.895782  0
C  C68  1  0.72164029  0.52282386  0.91889698  1  0  -0.342198  0  3.667284  0  0  -0.421506  0  3.904218  0  0  -0.424404  0  3.915266  0  0  -0.249574  -0.418592  0  3.895738  0
C  C69  1  0.67835335  0.27154220  0.62007289  1  0  0.170977  0  3.641204  0  0  0.096789  0  3.900792  0  0  0.110606  0  3.91334  0  0  0.159125  0.088132  0  3.892273  0
C  C70  1  0.32164696  0.72845932  0.37992872  1  0  0.170983  0  3.641239  0  0  0.096768  0  3.900821  0  0  0.110579  0  3.913369  0  0  0.159137  0.088112  0  3.8923  0
C  C71  1  0.45513866  0.21042492  0.61229899  1  0  0.200305  0  3.71414  0  0  0.149283  0  4.004078  0  0  0.159906  0  4.017767  0  0  0.141992  0.142585  0  3.994482  0
C  C72  1  0.54486065  0.78957772  0.38770283  1  0  0.20036  0  3.71405  0  0  0.149333  0  4.004005  0  0  0.159959  0  4.01769  0  0  0.141955  0.142618  0  3.994397  0
C  C73  1  0.17151927  0.33231208  0.44715628  1  0  0.282373  0  4.076412  0  0  0.266453  0  4.380086  0  0  0.288029  0  4.393773  0  0  0.129585  0.251974  0  4.369924  0
C  C74  1  0.82848575  0.66769508  0.55284822  1  0  0.282317  0  4.076468  0  0  0.266391  0  4.380153  0  0  0.287969  0  4.393843  0  0  0.129547  0.251913  0  4.369989  0
S  S75  1  0.04377195  0.26196867  0.50178481  1  0  -0.388727  0  2.028659  0  0  -0.369752  0  2.319457  0  0  -0.383453  0  2.313353  0  0  -0.168808  -0.359506  0  2.32443  0
S  S76  1  0.95622149  0.73802720  0.49821369  1  0  -0.388621  0  2.029018  0  0  -0.369638  0  2.319796  0  0  -0.383343  0  2.31371  0  0  -0.168748  -0.359395  0  2.324768  0
N  N77  1  0.60250224  0.34222561  0.32473242  1  0  -0.407049  0  3.181556  0  0  -0.334849  0  3.472105  0  0  -0.357061  0  3.483651  0  0  -0.343229  -0.319705  0  3.461327  0
N  N78  1  0.39749790  0.65777366  0.67526499  1  0  -0.407054  0  3.181571  0  0  -0.33484  0  3.47211  0  0  -0.357047  0  3.483661  0  0  -0.343199  -0.319697  0  3.461344  0
N  N79  1  0.61690353  0.15346509  0.14369815  1  0  -0.271228  0  2.931911  0  0  -0.248975  0  3.187561  0  0  -0.24946  0  3.205348  0  0  -0.208138  -0.242191  0  3.179737  0
N  N80  1  0.38309768  0.84653418  0.85630025  1  0  -0.271171  0  2.932001  0  0  -0.248893  0  3.187622  0  0  -0.249377  0  3.205422  0  0  -0.208105  -0.242113  0  3.179803  0
N  N81  1  0.75154892  0.20766157  0.20635851  1  0  0.045231  0  3.545911  0  0  0.163489  0  3.728751  0  0  0.122836  0  3.788996  0  0  -0.131935  0.169958  0  3.713249  0
N  N82  1  0.24845338  0.79233770  0.79364177  1  0  0.045118  0  3.546094  0  0  0.163364  0  3.728928  0  0  0.122707  0  3.789168  0  0  -0.131995  0.169856  0  3.713392  0
N  N83  1  0.66433105  0.14767327  0.65277705  1  0  0.050083  0  3.532718  0  0  0.170783  0  3.721705  0  0  0.16013  0  3.744771  0  0  -0.12596  0.176728  0  3.707487  0
N  N84  1  0.33566726  0.85233049  0.34722677  1  0  0.050056  0  3.53276  0  0  0.17082  0  3.721696  0  0  0.160181  0  3.744736  0  0  -0.125931  0.176766  0  3.707476  0
N  N85  1  0.54705537  0.31440628  0.59386836  1  0  -0.412329  0  3.195152  0  0  -0.340128  0  3.48473  0  0  -0.361978  0  3.500649  0  0  -0.34849  -0.325662  0  3.473604  0
N  N86  1  0.45294601  0.68559523  0.40613334  1  0  -0.412334  0  3.195122  0  0  -0.340139  0  3.484714  0  0  -0.361988  0  3.500633  0  0  -0.348486  -0.325672  0  3.47359  0
N  N87  1  0.52211338  0.10696700  0.64846666  1  0  -0.260087  0  2.832918  0  0  -0.266213  0  3.102139  0  0  -0.272104  0  3.114313  0  0  -0.223136  -0.261964  0  3.093972  0
N  N88  1  0.47788486  0.89303564  0.35153684  1  0  -0.260112  0  2.832906  0  0  -0.266256  0  3.102118  0  0  -0.272149  0  3.114289  0  0  -0.223129  -0.262007  0  3.093956  0
N  N89  1  0.26636571  0.38218281  0.40678977  1  0  -0.574215  0  2.793409  0  0  -0.520369  0  3.063378  0  0  -0.5391  0  3.068082  0  0  -0.410379  -0.506895  0  3.059492  0
N  N90  1  0.73362706  0.61781867  0.59321379  1  0  -0.574289  0  2.793196  0  0  -0.520407  0  3.063116  0  0  -0.539144  0  3.067827  0  0  -0.410384  -0.506933  0  3.059229  0
O  O91  1  0.69392239  0.03212460  0.90732495  1  0  -0.513056  0  2.166176  0  0  -0.46426  0  2.399214  0  0  -0.48298  0  2.39062  0  0  -0.354559  -0.449813  0  2.40529  0
O  O92  1  0.30607875  0.96787354  0.09267490  1  0  -0.513006  0  2.166132  0  0  -0.464201  0  2.399199  0  0  -0.482919  0  2.390595  0  0  -0.354515  -0.449758  0  2.405268  0
