# generated using pymatgen
data_ZnH28C26N4O5
_symmetry_space_group_name_H-M   'P 1'
_cell_length_a   9.37346161
_cell_length_b   12.33448793
_cell_length_c   12.68940000
_cell_angle_alpha   64.70295128
_cell_angle_beta   71.95977407
_cell_angle_gamma   77.15538630
_symmetry_Int_Tables_number   1
_chemical_formula_structural   ZnH28C26N4O5
_chemical_formula_sum   'Zn2 H56 C52 N8 O10'
_cell_volume   1254.28462575
_cell_formula_units_Z   2
loop_
 _symmetry_equiv_pos_site_id
 _symmetry_equiv_pos_as_xyz
  1  'x, y, z'
loop_
 _atom_site_type_symbol
 _atom_site_label
 _atom_site_symmetry_multiplicity
 _atom_site_fract_x
 _atom_site_fract_y
 _atom_site_fract_z
 _atom_site_occupancy
 _atom_site_hle17_bader_spin_density
 _atom_site_hle17_ddec_charge
 _atom_site_hle17_ddec_spin_density
 _atom_site_hle17_ddec_sum_bond_order
 _atom_site_hle17_magmom
 _atom_site_hse06_10hf_bader_spin_density
 _atom_site_hse06_10hf_ddec_charge
 _atom_site_hse06_10hf_ddec_spin_density
 _atom_site_hse06_10hf_ddec_sum_bond_order
 _atom_site_hse06_10hf_magmom
 _atom_site_hse06_bader_spin_density
 _atom_site_hse06_ddec_charge
 _atom_site_hse06_ddec_spin_density
 _atom_site_hse06_ddec_sum_bond_order
 _atom_site_hse06_magmom
 _atom_site_pbe_bader_charge
 _atom_site_pbe_bader_spin_density
 _atom_site_pbe_cm5_charge
 _atom_site_pbe_ddec_charge
 _atom_site_pbe_ddec_spin_density
 _atom_site_pbe_ddec_sum_bond_order
 _atom_site_pbe_magmom
Zn  Zn0  1  0.20427991  0.39449825  0.46850476  1  0  1.018488  0  1.855322  0  0  0.835916  0  2.315277  0  0  0.886964  0  2.258624  0  1.316707  0  0.675181  0.800525  0  2.353755  0
Zn  Zn1  1  0.79572102  0.60550023  0.53149621  1  0  1.01853  0  1.855334  0  0  0.835929  0  2.315313  0  0  0.886979  0  2.258659  0  1.3168  0  0.675182  0.80054  0  2.353789  0
H  H2  1  0.73979402  0.94635217  0.85061683  1  0  0.263197  0  0.898229  0  0  0.250007  0  0.956856  0  0  0.257275  0  0.951994  0  0.437859  0  0.323104  0.24463  0  0.960679  0
H  H3  1  0.26020567  0.05364722  0.14938405  1  0  0.263211  0  0.898274  0  0  0.250008  0  0.956901  0  0  0.257274  0  0.952041  0  0.437812  0  0.323118  0.244632  0  0.960723  0
H  H4  1  0.54124934  0.07104332  0.43184206  1  0  0.101557  0  0.953291  0  0  0.116778  0  1.011755  0  0  0.11869  0  1.011051  0  0.05865  0  0.097679  0.115349  0  1.012474  0
H  H5  1  0.45875259  0.92895607  0.56815752  1  0  0.101587  0  0.953276  0  0  0.116803  0  1.011745  0  0  0.118717  0  1.011039  0  0.058508  0  0.097685  0.115373  0  1.012463  0
H  H6  1  0.60734482  0.10832415  0.52862064  1  0  0.092589  0  0.929159  0  0  0.1061  0  0.989677  0  0  0.108857  0  0.987507  0  0.016357  0  0.090296  0.103901  0  0.991859  0
H  H7  1  0.39265723  0.89167433  0.47137929  1  0  0.092625  0  0.929143  0  0  0.106132  0  0.989661  0  0  0.108892  0  0.987492  0  0.016386  0  0.090304  0.10393  0  0.991846  0
H  H8  1  0.75207499  0.30155765  0.42599684  1  0  0.071192  0  0.946786  0  0  0.08813  0  1.010688  0  0  0.088843  0  1.010996  0  -0.006558  0  0.086685  0.087511  0  1.010721  0
H  H9  1  0.24792593  0.69844084  0.57400413  1  0  0.0712  0  0.946779  0  0  0.08812  0  1.010716  0  0  0.088831  0  1.011023  0  -0.006541  0  0.086679  0.087499  0  1.01075  0
H  H10  1  0.63030192  0.38633534  0.33151956  1  0  0.083237  0  0.944691  0  0  0.0996  0  1.005571  0  0  0.100167  0  1.007488  0  0.033162  0  0.090232  0.099077  0  1.004552  0
H  H11  1  0.36969889  0.61366404  0.66848027  1  0  0.083239  0  0.944634  0  0  0.099616  0  1.005506  0  0  0.100183  0  1.00742  0  0.033332  0  0.090238  0.099091  0  1.004489  0
H  H12  1  0.10249374  0.32252620  0.17116897  1  0  0.064096  0  0.929252  0  0  0.082173  0  0.991003  0  0  0.083307  0  0.990669  0  0.002804  0  0.083442  0.081278  0  0.991376  0
H  H13  1  0.89750483  0.67747318  0.82883216  1  0  0.064078  0  0.929244  0  0  0.082149  0  0.990983  0  0  0.083283  0  0.990645  0  0.002786  0  0.083438  0.081253  0  0.991358  0
H  H14  1  0.04029256  0.26466724  0.32875908  1  0  0.082849  0  0.947636  0  0  0.099885  0  1.008121  0  0  0.101154  0  1.007965  0  0.041612  0  0.089185  0.098818  0  1.008481  0
H  H15  1  0.95971050  0.73533214  0.67124182  1  0  0.082831  0  0.947644  0  0  0.099849  0  1.008141  0  0  0.101099  0  1.008006  0  0.041656  0  0.089183  0.098795  0  1.008486  0
H  H16  1  0.07743216  0.10024420  0.25764141  1  0  0.008601  0  0.958147  0  0  0.023184  0  1.022195  0  0  0.02375  0  1.021927  0  -0.031955  0  0.07602  0.02286  0  1.022416  0
H  H17  1  0.92256977  0.89975518  0.74235896  1  0  0.00862  0  0.958155  0  0  0.023201  0  1.022225  0  0  0.023769  0  1.021954  0  -0.031955  0  0.076015  0.022874  0  1.022451  0
H  H18  1  0.86834113  0.09122290  0.43611433  1  0  0.063529  0  0.932591  0  0  0.080803  0  0.994031  0  0  0.081819  0  0.994029  0  -0.009525  0  0.084246  0.08007  0  0.99409  0
H  H19  1  0.13166068  0.90877738  0.56388727  1  0  0.063499  0  0.932482  0  0  0.080755  0  0.993959  0  0  0.081769  0  0.993954  0  -0.009472  0  0.084198  0.080022  0  0.994018  0
H  H20  1  0.82241762  0.02804583  0.35039812  1  0  0.076972  0  0.924446  0  0  0.095535  0  0.981106  0  0  0.09641  0  0.982128  0  0.019651  0  0.089163  0.094819  0  0.980587  0
H  H21  1  0.17758432  0.97195355  0.64960146  1  0  0.076983  0  0.924421  0  0  0.095545  0  0.981078  0  0  0.096415  0  0.9821  0  0.019649  0  0.089176  0.094829  0  0.980558  0
H  H22  1  0.56214228  0.29357688  0.20863541  1  0  0.068291  0  0.953858  0  0  0.081326  0  1.025524  0  0  0.082604  0  1.025135  0  0.039077  0  0.081651  0.080471  0  1.025577  0
H  H23  1  0.43785853  0.70642250  0.79136521  1  0  0.068283  0  0.953866  0  0  0.081317  0  1.025534  0  0  0.082595  0  1.025144  0  0.039054  0  0.081648  0.080462  0  1.025587  0
H  H24  1  0.64454122  0.14738490  0.21557112  1  0  0.081104  0  0.929057  0  0  0.098848  0  0.987681  0  0  0.100553  0  0.986664  0  0.01663  0  0.088984  0.097581  0  0.988495  0
H  H25  1  0.35545846  0.85261448  0.78442976  1  0  0.081082  0  0.929064  0  0  0.098824  0  0.987693  0  0  0.100528  0  0.986675  0  0.016449  0  0.088953  0.097556  0  0.988507  0
H  H26  1  0.77508728  0.30405890  0.02712504  1  0  0.03526  0  0.938422  0  0  0.049773  0  0.998155  0  0  0.050012  0  0.999256  0  -0.000657  0  0.084615  0.049667  0  0.997323  0
H  H27  1  0.22491365  0.69593958  0.97287593  1  0  0.035241  0  0.938483  0  0  0.049779  0  0.998209  0  0  0.050019  0  0.999311  0  -0.000675  0  0.08462  0.049671  0  0.997376  0
H  H28  1  0.03707258  0.23143224  0.04997975  1  0  0.055515  0  0.946172  0  0  0.0712  0  1.01404  0  0  0.071795  0  1.014834  0  0.0104  0  0.078397  0.070754  0  1.013536  0
H  H29  1  0.96292823  0.76856714  0.95002087  1  0  0.055503  0  0.946147  0  0  0.071189  0  1.014023  0  0  0.071783  0  1.014814  0  0.010444  0  0.078402  0.070744  0  1.013517  0
H  H30  1  0.92044076  0.11100034  0.12249620  1  0  0.07112  0  0.9609  0  0  0.084795  0  1.032391  0  0  0.086011  0  1.0325  0  0.045613  0  0.083256  0.083885  0  1.032497  0
H  H31  1  0.07955993  0.88899995  0.87750487  1  0  0.07108  0  0.960936  0  0  0.084769  0  1.032414  0  0  0.085984  0  1.032522  0  0.045597  0  0.083253  0.083859  0  1.032521  0
H  H32  1  0.72671270  0.46737107  0.10635879  1  0  0.059492  0  0.955176  0  0  0.075819  0  1.021968  0  0  0.076368  0  1.023287  0  -0.021738  0  0.079865  0.075441  0  1.021077  0
H  H33  1  0.27328811  0.53262831  0.89364105  1  0  0.059494  0  0.95517  0  0  0.075821  0  1.021955  0  0  0.07637  0  1.023271  0  -0.021755  0  0.079867  0.075443  0  1.021065  0
H  H34  1  0.92101596  0.44232963  0.04018373  1  0  0.057613  0  0.974807  0  0  0.074338  0  1.042498  0  0  0.075285  0  1.042173  0  -0.017196  0  0.081536  0.073462  0  1.043073  0
H  H35  1  0.07898609  0.55766885  0.95981619  1  0  0.057626  0  0.974812  0  0  0.07435  0  1.042494  0  0  0.075295  0  1.04217  0  -0.017051  0  0.08154  0.073474  0  1.043069  0
H  H36  1  0.98526953  0.53365172  0.15731657  1  0  0.100188  0  0.93644  0  0  0.114874  0  0.996755  0  0  0.117062  0  0.995861  0  0.046871  0  0.094661  0.113438  0  0.997286  0
H  H37  1  0.01473016  0.46634767  0.84268352  1  0  0.100211  0  0.936402  0  0  0.114893  0  0.996719  0  0  0.117082  0  0.995825  0  0.04687  0  0.094655  0.113457  0  0.997251  0
H  H38  1  0.78804447  0.55857414  0.22111080  1  0  0.093731  0  0.95668  0  0  0.105731  0  1.023856  0  0  0.107494  0  1.02427  0  0.013361  0  0.089825  0.104778  0  1.023178  0
H  H39  1  0.21195522  0.44142525  0.77888850  1  0  0.093727  0  0.956713  0  0  0.105713  0  1.023898  0  0  0.107477  0  1.024312  0  0.013349  0  0.089795  0.104761  0  1.023221  0
H  H40  1  0.18683826  0.26159882  0.72867533  1  0  0.09429  0  0.932475  0  0  0.102666  0  0.994008  0  0  0.105239  0  0.991974  0  0.130592  0  0.125196  0.100718  0  0.995594  0
H  H41  1  0.81316019  0.73840146  0.27132704  1  0  0.094326  0  0.932444  0  0  0.102709  0  0.993969  0  0  0.105283  0  0.991934  0  0.130609  0  0.12523  0.100758  0  0.995563  0
H  H42  1  0.01353375  0.13602645  0.91834082  1  0  0.116976  0  0.953065  0  0  0.125488  0  1.014488  0  0  0.128691  0  1.013712  0  0.117812  0  0.114644  0.12311  0  1.015308  0
H  H43  1  0.98646594  0.86397294  0.08166084  1  0  0.11698  0  0.953031  0  0  0.125477  0  1.014462  0  0  0.128679  0  1.013687  0  0.117839  0  0.114635  0.123099  0  1.015283  0
H  H44  1  0.75238400  0.12751189  0.69500090  1  0  0.107763  0  0.941827  0  0  0.119639  0  0.998788  0  0  0.123047  0  0.997267  0  0.072252  0  0.113501  0.11664  0  1.000934  0
H  H45  1  0.24761469  0.87248659  0.30500059  1  0  0.107811  0  0.941759  0  0  0.119672  0  0.998738  0  0  0.123078  0  0.99722  0  0.072269  0  0.113505  0.116675  0  1.000882  0
H  H46  1  0.93011038  0.25807867  0.51823674  1  0  0.079377  0  0.961207  0  0  0.085987  0  1.029039  0  0  0.088434  0  1.026912  0  0.09992  0  0.119379  0.084232  0  1.030565  0
H  H47  1  0.06988807  0.74192162  0.48176562  1  0  0.079408  0  0.961137  0  0  0.086052  0  1.028947  0  0  0.088499  0  1.026817  0  0.099878  0  0.119391  0.084294  0  1.030479  0
H  H48  1  0.60700707  0.78648441  0.93092131  1  0  0.082382  0  0.905376  0  0  0.096573  0  0.961183  0  0  0.100292  0  0.957437  0  0.088315  0  0.122639  0.093954  0  0.963762  0
H  H49  1  0.39299126  0.21351677  0.06907834  1  0  0.082327  0  0.905361  0  0  0.096526  0  0.96118  0  0  0.100244  0  0.957433  0  0.088323  0  0.122613  0.093906  0  0.963758  0
H  H50  1  0.55172990  0.74373760  0.26069291  1  0  0.126521  0  0.948104  0  0  0.130454  0  1.016528  0  0  0.135187  0  1.012997  0  0.123563  0  0.112849  0.126908  0  1.019491  0
H  H51  1  0.44826595  0.25626539  0.73930735  1  0  0.126509  0  0.94815  0  0  0.130459  0  1.016558  0  0  0.135189  0  1.013029  0  0.123562  0  0.112841  0.126912  0  1.019521  0
H  H52  1  0.40235564  0.58543516  0.43078727  1  0  0.103225  0  0.92787  0  0  0.110857  0  0.990358  0  0  0.113888  0  0.987573  0  0.127382  0  0.124771  0.108529  0  0.99255  0
H  H53  1  0.59764057  0.41456512  0.56921167  1  0  0.103202  0  0.927911  0  0  0.110833  0  0.990407  0  0  0.113862  0  0.987625  0  0.127316  0  0.124761  0.108506  0  0.992599  0
H  H54  1  0.30212743  0.46803290  0.20408642  1  0  0.095654  0  0.928372  0  0  0.104421  0  0.98847  0  0  0.107612  0  0.985112  0  0.138553  0  0.122381  0.102054  0  0.990879  0
H  H55  1  0.69787462  0.53196558  0.79591193  1  0  0.09568  0  0.928377  0  0  0.104451  0  0.988477  0  0  0.107638  0  0.985126  0  0.138566  0  0.122389  0.102075  0  0.990896  0
H  H56  1  0.45128265  0.62119667  0.02055092  1  0  0.107942  0  0.949796  0  0  0.120688  0  1.005908  0  0  0.123499  0  1.005617  0  0.097109  0  0.110932  0.118593  0  1.006475  0
H  H57  1  0.54871669  0.37880542  0.97944655  1  0  0.107934  0  0.949798  0  0  0.120674  0  1.005918  0  0  0.123483  0  1.005629  0  0.097157  0  0.110939  0.118578  0  1.006484  0
C  C58  1  0.42751311  0.23149896  0.45910082  1  0  0.676484  0  3.872068  0  0  0.636818  0  4.164102  0  0  0.669741  0  4.158626  0  1.526173  0  0.184239  0.614506  0  4.166943  0
C  C59  1  0.57248770  0.76850042  0.54089901  1  0  0.676485  0  3.872067  0  0  0.636832  0  4.164079  0  0  0.669756  0  4.158604  0  1.5262  0  0.184261  0.614519  0  4.166916  0
C  C60  1  0.56891206  0.14548867  0.44508253  1  0  -0.310192  0  3.653061  0  0  -0.351478  0  3.893041  0  0  -0.357692  0  3.901253  0  -0.031822  0  -0.165419  -0.347285  0  3.887561  0
C  C61  1  0.43108887  0.85450981  0.55491844  1  0  -0.310304  0  3.653102  0  0  -0.351603  0  3.893089  0  0  -0.357828  0  3.901311  0  -0.03175  0  -0.165455  -0.347404  0  3.887606  0
C  C62  1  0.69955010  0.20325837  0.33829158  1  0  0.166353  0  3.538155  0  0  0.19192  0  3.767915  0  0  0.192366  0  3.787953  0  0.048231  0  -0.013792  0.191743  0  3.754082  0
C  C63  1  0.30045071  0.79674102  0.66170905  1  0  0.166352  0  3.538203  0  0  0.191949  0  3.76791  0  0  0.192393  0  3.787947  0  0.048236  0  -0.013749  0.19177  0  3.754076  0
C  C64  1  0.73097478  0.32025126  0.33879510  1  0  -0.214603  0  3.589165  0  0  -0.254483  0  3.817211  0  0  -0.25747  0  3.832729  0  -0.017932  0  -0.164071  -0.252342  0  3.806641  0
C  C65  1  0.26902615  0.67974722  0.66120587  1  0  -0.214603  0  3.589202  0  0  -0.254481  0  3.817203  0  0  -0.257463  0  3.832719  0  -0.018125  0  -0.164071  -0.252338  0  3.806632  0
C  C66  1  0.86524662  0.37553052  0.23513889  1  0  0.165239  0  3.539608  0  0  0.192481  0  3.766511  0  0  0.193124  0  3.786327  0  0.045293  0  -0.014363  0.192098  0  3.752936  0
C  C67  1  0.13475431  0.62446796  0.76486129  1  0  0.165231  0  3.539616  0  0  0.192488  0  3.766461  0  0  0.193128  0  3.786272  0  0.045017  0  -0.014358  0.192104  0  3.752891  0
C  C68  1  0.00671458  0.28342938  0.24646454  1  0  -0.192428  0  3.619253  0  0  -0.237028  0  3.861374  0  0  -0.239286  0  3.876137  0  -0.032329  0  -0.165791  -0.235296  0  3.851252  0
C  C69  1  0.99328635  0.71656910  0.75353721  1  0  -0.192406  0  3.619151  0  0  -0.236936  0  3.86121  0  0  -0.239179  0  3.875974  0  -0.032386  0  -0.165796  -0.235213  0  3.851085  0
C  C70  1  0.97684882  0.16662494  0.24526158  1  0  0.044941  0  3.648994  0  0  0.045643  0  3.888891  0  0  0.045069  0  3.907497  0  0.007088  0  -0.094707  0.046138  0  3.87579  0
C  C71  1  0.02315199  0.83337445  0.75474062  1  0  0.044935  0  3.648964  0  0  0.045576  0  3.888952  0  0  0.044992  0  3.907553  0  0.006895  0  -0.094721  0.046069  0  3.875855  0
C  C72  1  0.84289124  0.11311838  0.34948869  1  0  -0.188458  0  3.623196  0  0  -0.231768  0  3.868705  0  0  -0.234143  0  3.883763  0  -0.007622  0  -0.161377  -0.229806  0  3.858047  0
C  C73  1  0.15710957  0.88688100  0.65051272  1  0  -0.188461  0  3.623043  0  0  -0.231745  0  3.868559  0  0  -0.234105  0  3.883601  0  -0.007625  0  -0.161378  -0.229784  0  3.857904  0
C  C74  1  0.66578533  0.23087500  0.21726102  1  0  -0.196883  0  3.618937  0  0  -0.241336  0  3.860564  0  0  -0.243691  0  3.875129  0  -0.051308  0  -0.166185  -0.239558  0  3.850399  0
C  C75  1  0.33421660  0.76912438  0.78273934  1  0  -0.196843  0  3.618982  0  0  -0.241271  0  3.860607  0  0  -0.243625  0  3.875171  0  -0.051141  0  -0.166168  -0.239496  0  3.850442  0
C  C76  1  0.79973559  0.28467731  0.11320826  1  0  0.041998  0  3.631515  0  0  0.045481  0  3.865785  0  0  0.045141  0  3.883173  0  0.049568  0  -0.094229  0.045766  0  3.853673  0
C  C77  1  0.20026646  0.71532117  0.88679166  1  0  0.041994  0  3.631552  0  0  0.045389  0  3.865937  0  0  0.045041  0  3.883331  0  0.049581  0  -0.094211  0.045678  0  3.853826  0
C  C78  1  0.94123031  0.19366901  0.12581887  1  0  -0.18062  0  3.661611  0  0  -0.228583  0  3.917617  0  0  -0.230456  0  3.932268  0  -0.072427  0  -0.173743  -0.227137  0  3.907429  0
C  C79  1  0.05877150  0.80633128  0.87418115  1  0  -0.180486  0  3.66154  0  0  -0.228452  0  3.91763  0  0  -0.230315  0  3.932272  0  -0.072242  0  -0.173713  -0.227009  0  3.907441  0
C  C80  1  0.82742394  0.40119953  0.11611668  1  0  -0.190931  0  3.63548  0  0  -0.237957  0  3.881265  0  0  -0.239892  0  3.895477  0  0.006942  0  -0.16724  -0.236391  0  3.871412  0
C  C81  1  0.17257687  0.59879986  0.88388315  1  0  -0.190963  0  3.635525  0  0  -0.237949  0  3.88127  0  0  -0.239887  0  3.895493  0  0.00726  0  -0.167245  -0.236387  0  3.871418  0
C  C82  1  0.89053079  0.49569192  0.23375853  1  0  -0.322656  0  3.644972  0  0  -0.364634  0  3.888158  0  0  -0.371437  0  3.896316  0  -0.02978  0  -0.167358  -0.360216  0  3.882423  0
C  C83  1  0.10946990  0.50430837  0.76624174  1  0  -0.32265  0  3.645071  0  0  -0.364633  0  3.888221  0  0  -0.371433  0  3.896379  0  -0.029695  0  -0.167317  -0.360209  0  3.882469  0
C  C84  1  0.92643621  0.48408911  0.34748162  1  0  0.716975  0  3.843286  0  0  0.665925  0  4.148594  0  0  0.700905  0  4.139308  0  1.565957  0  0.211924  0.642268  0  4.154099  0
C  C85  1  0.07356348  0.51591027  0.65251848  1  0  0.716773  0  3.843599  0  0  0.665759  0  4.148851  0  0  0.70074  0  4.139564  0  1.565879  0  0.211847  0.642103  0  4.154356  0
C  C86  1  0.08766615  0.23089844  0.72674694  1  0  0.143501  0  3.665716  0  0  0.11402  0  3.911182  0  0  0.120359  0  3.928494  0  0.517866  0  0.059734  0.109945  0  3.899543  0
C  C87  1  0.91233342  0.76910184  0.27325517  1  0  0.143438  0  3.665706  0  0  0.113924  0  3.911178  0  0  0.120258  0  3.928495  0  0.517588  0  0.059647  0.109848  0  3.899534  0
C  C88  1  0.99286357  0.16059000  0.83086612  1  0  -0.108593  0  3.67585  0  0  -0.128824  0  3.917993  0  0  -0.133717  0  3.937284  0  -0.029612  0  -0.069039  -0.125676  0  3.90515  0
C  C89  1  0.00713500  0.83940939  0.16913580  1  0  -0.108602  0  3.675881  0  0  -0.128785  0  3.918007  0  0  -0.133694  0  3.937278  0  -0.029354  0  -0.068997  -0.125637  0  3.905163  0
C  C90  1  0.86978584  0.12099004  0.82217384  1  0  -0.001263  0  3.756121  0  0  0.01413  0  3.991476  0  0  0.013497  0  4.012277  0  -0.061651  0  0.007698  0.014532  0  3.977355  0
C  C91  1  0.13021285  0.87900844  0.17782843  1  0  -0.001184  0  3.756061  0  0  0.014158  0  3.991454  0  0  0.013591  0  4.012165  0  -0.061736  0  0.007736  0.014559  0  3.977331  0
C  C92  1  0.84755700  0.15351091  0.70795249  1  0  -0.144577  0  3.721012  0  0  -0.167577  0  3.973495  0  0  -0.173375  0  3.994441  0  0.010055  0  -0.078764  -0.163467  0  3.959576  0
C  C93  1  0.15244168  0.84648757  0.29204978  1  0  -0.144625  0  3.720988  0  0  -0.167602  0  3.973494  0  0  -0.173419  0  3.994423  0  0.010031  0  -0.078769  -0.163494  0  3.959575  0
C  C94  1  0.94590004  0.22726287  0.60844552  1  0  0.147179  0  3.67745  0  0  0.114999  0  3.932602  0  0  0.121641  0  3.950039  0  0.49266  0  0.058991  0.110529  0  3.920747  0
C  C95  1  0.05409729  0.77273741  0.39155710  1  0  0.147129  0  3.677428  0  0  0.1149  0  3.932575  0  0  0.121539  0  3.950018  0  0.492859  0  0.058968  0.110429  0  3.920722  0
C  C96  1  0.76970045  0.04698020  0.93742994  1  0  0.503095  0  3.846795  0  0  0.456666  0  4.138379  0  0  0.484236  0  4.1388  0  1.386472  0  0.246497  0.437999  0  4.137828  0
C  C97  1  0.23029936  0.95301828  0.06257207  1  0  0.50303  0  3.846763  0  0  0.456603  0  4.138356  0  0  0.484151  0  4.138773  0  1.386473  0  0.246456  0.437943  0  4.137791  0
C  C98  1  0.59074141  0.79020294  0.01924441  1  0  0.043017  0  3.670032  0  0  0.006982  0  3.94076  0  0  0.010801  0  3.952508  0  0.574249  0  0.066143  0.004624  0  3.932681  0
C  C99  1  0.40925556  0.20980005  0.98075402  1  0  0.043143  0  3.669968  0  0  0.007078  0  3.940716  0  0  0.010895  0  3.952467  0  0.574254  0  0.06617  0.00472  0  3.932637  0
C  C100  1  0.51149120  0.69702159  0.12503480  1  0  0.09381  0  3.822851  0  0  0.106894  0  4.063571  0  0  0.110442  0  4.08659  0  -0.003309  0  0.00522  0.104466  0  4.048034  0
C  C101  1  0.48850701  0.30298050  0.87496371  1  0  0.09373  0  3.822897  0  0  0.106835  0  4.063611  0  0  0.110385  0  4.086622  0  -0.003349  0  0.005197  0.104407  0  4.048073  0
C  C102  1  0.49898952  0.68522672  0.24271388  1  0  -0.153296  0  3.678471  0  0  -0.175901  0  3.934225  0  0  -0.183264  0  3.953955  0  -0.027462  0  -0.076962  -0.17106  0  3.920924  0
C  C103  1  0.50101129  0.31477266  0.75728438  1  0  -0.153306  0  3.678531  0  0  -0.175933  0  3.934296  0  0  -0.183294  0  3.954019  0  -0.027491  0  -0.076968  -0.171094  0  3.921002  0
C  C104  1  0.41568452  0.59709929  0.33826761  1  0  0.141295  0  3.669809  0  0  0.108456  0  3.925161  0  0  0.115802  0  3.942104  0  0.504596  0  0.055897  0.103905  0  3.913589  0
C  C105  1  0.58431392  0.40290100  0.66173003  1  0  0.141425  0  3.669929  0  0  0.108566  0  3.925302  0  0  0.115913  0  3.942244  0  0.50458  0  0.055949  0.104015  0  3.91373  0
C  C106  1  0.36043871  0.53114325  0.21084163  1  0  0.136097  0  3.699581  0  0  0.102034  0  3.955915  0  0  0.109619  0  3.973166  0  0.483503  0  0.050278  0.096917  0  3.944384  0
C  C107  1  0.63956074  0.46885794  0.78915541  1  0  0.136087  0  3.699588  0  0  0.101999  0  3.955925  0  0  0.109584  0  3.973177  0  0.483543  0  0.050205  0.096888  0  3.944397  0
C  C108  1  0.44279417  0.61603455  0.11019332  1  0  -0.166938  0  3.717162  0  0  -0.187579  0  3.970523  0  0  -0.195465  0  3.991577  0  -0.057003  0  -0.082474  -0.183015  0  3.957134  0
C  C109  1  0.55720764  0.38396573  0.88980433  1  0  -0.166931  0  3.717248  0  0  -0.187566  0  3.970613  0  0  -0.19545  0  3.991666  0  -0.056954  0  -0.082476  -0.183001  0  3.957222  0
N  N110  1  0.06271269  0.26604410  0.61741272  1  0  -0.295334  0  3.25461  0  0  -0.218598  0  3.515089  0  0  -0.235692  0  3.530867  0  -1.214993  0  -0.305455  -0.206874  0  3.504377  0
N  N111  1  0.93728599  0.73395438  0.38258955  1  0  -0.295301  0  3.254496  0  0  -0.218519  0  3.514945  0  0  -0.235612  0  3.530726  0  -1.215209  0  -0.305436  -0.206794  0  3.50423  0
N  N112  1  0.71047763  0.95794145  0.93024052  1  0  -0.29335  0  3.448204  0  0  -0.242833  0  3.703343  0  0  -0.264758  0  3.717982  0  -0.787499  0  -0.283098  -0.227469  0  3.692911  0
N  N113  1  0.28952194  0.04205883  0.06976001  1  0  -0.293363  0  3.448226  0  0  -0.242809  0  3.703338  0  0  -0.264726  0  3.717975  0  -0.787449  0  -0.283101  -0.227448  0  3.692904  0
N  N114  1  0.63608641  0.87512130  0.03077021  1  0  -0.103742  0  3.095012  0  0  -0.090062  0  3.383238  0  0  -0.091148  0  3.398048  0  -0.690761  0  -0.193962  -0.089343  0  3.372943  0
N  N115  1  0.36391080  0.12487989  0.96922970  1  0  -0.103765  0  3.095029  0  0  -0.090082  0  3.38325  0  0  -0.091172  0  3.39806  0  -0.690735  0  -0.193959  -0.089363  0  3.372955  0
N  N116  1  0.34553131  0.52269090  0.32287237  1  0  -0.303969  0  3.26284  0  0  -0.225102  0  3.522622  0  0  -0.243617  0  3.539919  0  -1.236673  0  -0.314888  -0.212611  0  3.510765  0
N  N117  1  0.65446714  0.47730938  0.67712448  1  0  -0.30407  0  3.262922  0  0  -0.225164  0  3.522695  0  0  -0.243679  0  3.539991  0  -1.236711  0  -0.314851  -0.21267  0  3.510834  0
O  O118  1  0.40542017  0.28088845  0.53420967  1  0  -0.658778  0  1.919844  0  0  -0.6034  0  2.16084  0  0  -0.631113  0  2.151734  0  -1.183596  0  -0.341782  -0.58379  0  2.166465  0
O  O119  1  0.59458265  0.71911274  0.46578895  1  0  -0.658766  0  1.919836  0  0  -0.603384  0  2.160809  0  0  -0.631098  0  2.151706  0  -1.183654  0  -0.341779  -0.583775  0  2.166433  0
O  O120  1  0.33591217  0.25562339  0.39370915  1  0  -0.650253  0  1.898672  0  0  -0.597956  0  2.13159  0  0  -0.624165  0  2.121405  0  -1.182935  0  -0.346691  -0.579419  0  2.137842  0
O  O121  1  0.66408740  0.74437689  0.60629059  1  0  -0.65026  0  1.898718  0  0  -0.597972  0  2.131638  0  0  -0.624179  0  2.121452  0  -1.18294  0  -0.34672  -0.579435  0  2.137889  0
O  O122  1  0.81855781  0.50780688  0.42721531  1  0  -0.660115  0  2.073237  0  0  -0.599861  0  2.357187  0  0  -0.626687  0  2.341805  0  -1.207528  0  -0.326808  -0.58101  0  2.366652  0
O  O123  1  0.18144176  0.49219340  0.57278443  1  0  -0.660017  0  2.073382  0  0  -0.599774  0  2.357292  0  0  -0.626595  0  2.341901  0  -1.20753  0  -0.326763  -0.580923  0  2.366748  0
O  O124  1  0.06265277  0.44951421  0.35445105  1  0  -0.653142  0  2.097006  0  0  -0.587301  0  2.377679  0  0  -0.614911  0  2.362918  0  -1.194229  0  -0.320345  -0.568187  0  2.386813  0
O  O125  1  0.93734804  0.55048517  0.64554799  1  0  -0.653089  0  2.09705  0  0  -0.587258  0  2.377705  0  0  -0.614867  0  2.362942  0  -1.194231  0  -0.32034  -0.568146  0  2.386839  0
O  O126  1  0.74695961  0.06218883  0.03119741  1  0  -0.492614  0  1.922204  0  0  -0.461777  0  2.143178  0  0  -0.481075  0  2.138661  0  -1.104852  0  -0.272378  -0.448533  0  2.146089  0
O  O127  1  0.25304120  0.93781056  0.96880400  1  0  -0.492589  0  1.922258  0  0  -0.461749  0  2.143227  0  0  -0.481046  0  2.138718  0  -1.10481  0  -0.272364  -0.448506  0  2.146134  0
