# generated using pymatgen
data_ZnH12C10(NO2)2
_symmetry_space_group_name_H-M   'P 1'
_cell_length_a   5.41557578
_cell_length_b   6.99428859
_cell_length_c   13.93450245
_cell_angle_alpha   89.99978940
_cell_angle_beta   98.41370503
_cell_angle_gamma   90.00030367
_symmetry_Int_Tables_number   1
_chemical_formula_structural   ZnH12C10(NO2)2
_chemical_formula_sum   'Zn2 H24 C20 N4 O8'
_cell_volume   522.13182120
_cell_formula_units_Z   2
loop_
 _symmetry_equiv_pos_site_id
 _symmetry_equiv_pos_as_xyz
  1  'x, y, z'
loop_
 _atom_site_type_symbol
 _atom_site_label
 _atom_site_symmetry_multiplicity
 _atom_site_fract_x
 _atom_site_fract_y
 _atom_site_fract_z
 _atom_site_occupancy
 _atom_site_hle17_bader_spin_density
 _atom_site_hle17_ddec_charge
 _atom_site_hle17_ddec_spin_density
 _atom_site_hle17_ddec_sum_bond_order
 _atom_site_hle17_magmom
 _atom_site_hse06_10hf_bader_spin_density
 _atom_site_hse06_10hf_ddec_charge
 _atom_site_hse06_10hf_ddec_spin_density
 _atom_site_hse06_10hf_ddec_sum_bond_order
 _atom_site_hse06_10hf_magmom
 _atom_site_hse06_bader_spin_density
 _atom_site_hse06_ddec_charge
 _atom_site_hse06_ddec_spin_density
 _atom_site_hse06_ddec_sum_bond_order
 _atom_site_hse06_magmom
 _atom_site_pbe_bader_spin_density
 _atom_site_pbe_cm5_charge
 _atom_site_pbe_ddec_charge
 _atom_site_pbe_ddec_spin_density
 _atom_site_pbe_ddec_sum_bond_order
 _atom_site_pbe_magmom
Zn  Zn0  1  0.24998395  0.36252954  0.25000203  1  0  1.025862  0  1.773716  0  0  0.844562  0  2.242585  0  0  0.890485  0  2.188664  0  0  0.684139  0.812533  0  2.279622  0
Zn  Zn1  1  0.74999572  0.63747280  0.74999778  1  0  1.025933  0  1.773629  0  0  0.844625  0  2.242484  0  0  0.890541  0  2.188567  0  0  0.684174  0.812596  0  2.279524  0
H  H2  1  0.15297151  0.88323960  0.32569790  1  0  0.070876  0  0.937699  0  0  0.086758  0  1.001782  0  0  0.086591  0  1.003463  0  0  0.103154  0.086777  0  1.000744  0
H  H3  1  0.65297033  0.11677030  0.82569870  1  0  0.070922  0  0.937686  0  0  0.086796  0  1.001781  0  0  0.086627  0  1.003468  0  0  0.103165  0.086814  0  1.000742  0
H  H4  1  0.84702876  0.11676703  0.67430179  1  0  0.070948  0  0.937653  0  0  0.086808  0  1.001785  0  0  0.086635  0  1.003477  0  0  0.103161  0.086832  0  1.000751  0
H  H5  1  0.34701881  0.88323348  0.17429884  1  0  0.070875  0  0.937738  0  0  0.086752  0  1.001846  0  0  0.086578  0  1.003536  0  0  0.103147  0.086779  0  1.000811  0
H  H6  1  0.96349317  0.76236587  0.23064938  1  0  0.066167  0  0.931194  0  0  0.085879  0  0.990019  0  0  0.086156  0  0.990256  0  0  0.106313  0.085578  0  0.990005  0
H  H7  1  0.46349821  0.23763893  0.73064669  1  0  0.066158  0  0.931265  0  0  0.085912  0  0.990055  0  0  0.086191  0  0.990289  0  0  0.106337  0.08561  0  0.990042  0
H  H8  1  0.03649943  0.23764792  0.76935412  1  0  0.066208  0  0.931204  0  0  0.085951  0  0.99001  0  0  0.086231  0  0.990236  0  0  0.106334  0.085651  0  0.989997  0
H  H9  1  0.53649086  0.76236198  0.26935228  1  0  0.066233  0  0.931244  0  0  0.085935  0  0.990094  0  0  0.086211  0  0.990324  0  0  0.106343  0.085635  0  0.990085  0
H  H10  1  0.38272488  0.34065294  0.01457090  1  0  0.098438  0  0.981483  0  0  0.105375  0  1.050208  0  0  0.109325  0  1.04702  0  0  0.102499  0.102518  0  1.052583  0
H  H11  1  0.88270839  0.65933760  0.51457342  1  0  0.098515  0  0.981531  0  0  0.105454  0  1.050248  0  0  0.1094  0  1.047062  0  0  0.102548  0.102599  0  1.052621  0
H  H12  1  0.61729771  0.65932081  0.98543165  1  0  0.098446  0  0.981462  0  0  0.105366  0  1.050224  0  0  0.109311  0  1.047036  0  0  0.102517  0.102519  0  1.052573  0
H  H13  1  0.11728984  0.34067761  0.48542973  1  0  0.098554  0  0.98154  0  0  0.105459  0  1.050287  0  0  0.109406  0  1.0471  0  0  0.10254  0.10261  0  1.052642  0
H  H14  1  0.90926909  0.88273459  0.08244347  1  0  0.097081  0  0.960764  0  0  0.107902  0  1.022902  0  0  0.110604  0  1.022122  0  0  0.104438  0.105934  0  1.023566  0
H  H15  1  0.40925997  0.11726551  0.58244653  1  0  0.097127  0  0.960669  0  0  0.107949  0  1.022803  0  0  0.110648  0  1.022028  0  0  0.104449  0.105982  0  1.023465  0
H  H16  1  0.09075354  0.11725632  0.91755837  1  0  0.096994  0  0.960696  0  0  0.107807  0  1.022883  0  0  0.110508  0  1.022105  0  0  0.104416  0.10584  0  1.023545  0
H  H17  1  0.59072872  0.88273970  0.41756032  1  0  0.096892  0  0.96062  0  0  0.107713  0  1.022813  0  0  0.110415  0  1.022037  0  0  0.104391  0.105752  0  1.023477  0
H  H18  1  0.27596686  0.58118168  0.39588991  1  0  0.297792  0  0.897603  0  0  0.288966  0  0.951603  0  0  0.294065  0  0.948969  0  0  0.295516  0.285327  0  0.953547  0
H  H19  1  0.77597151  0.41882385  0.89588771  1  0  0.297789  0  0.897575  0  0  0.288979  0  0.951543  0  0  0.294079  0  0.948908  0  0  0.295497  0.285338  0  0.953487  0
H  H20  1  0.72401848  0.41882639  0.60410883  1  0  0.297909  0  0.897606  0  0  0.289096  0  0.95157  0  0  0.294211  0  0.948892  0  0  0.29552  0.285452  0  0.953522  0
H  H21  1  0.22401766  0.58117707  0.10410911  1  0  0.297918  0  0.897517  0  0  0.289122  0  0.95146  0  0  0.294221  0  0.948824  0  0  0.295534  0.285481  0  0.953404  0
H  H22  1  0.97210597  0.55177066  0.35950802  1  0  0.306533  0  0.941907  0  0  0.293177  0  1.002492  0  0  0.299388  0  0.998546  0  0  0.28727  0.288773  0  1.005302  0
H  H23  1  0.47211417  0.44823310  0.85950662  1  0  0.306506  0  0.941879  0  0  0.293159  0  1.002458  0  0  0.299373  0  0.998505  0  0  0.287264  0.288753  0  1.00527  0
H  H24  1  0.02788117  0.44824026  0.64049226  1  0  0.306617  0  0.941757  0  0  0.293262  0  1.002331  0  0  0.299475  0  0.998378  0  0  0.287302  0.288856  0  1.005147  0
H  H25  1  0.52787476  0.55176353  0.14049521  1  0  0.306484  0  0.94191  0  0  0.293189  0  1.002426  0  0  0.299402  0  0.998474  0  0  0.287275  0.288784  0  1.005236  0
C  C26  1  0.66486885  0.12534338  0.05653201  1  0  -0.065581  0  3.75075  0  0  -0.041495  0  3.98142  0  0  -0.047898  0  4.003113  0  0  -0.01591  -0.037336  0  3.966825  0
C  C27  1  0.16488173  0.87465023  0.55652949  1  0  -0.065476  0  3.750783  0  0  -0.041406  0  3.981466  0  0  -0.047812  0  4.003156  0  0  -0.015854  -0.037242  0  3.966871  0
C  C28  1  0.33514103  0.87463324  0.94346256  1  0  -0.065453  0  3.750463  0  0  -0.041397  0  3.981147  0  0  -0.047793  0  4.00283  0  0  -0.015829  -0.037242  0  3.966557  0
C  C29  1  0.83514931  0.12535641  0.44345351  1  0  -0.065595  0  3.750215  0  0  -0.04156  0  3.980962  0  0  -0.047957  0  4.002653  0  0  -0.015946  -0.037403  0  3.966372  0
C  C30  1  0.84114739  0.26018779  0.11587821  1  0  0.637375  0  3.917666  0  0  0.587445  0  4.209148  0  0  0.6214  0  4.201616  0  0  0.204083  0.564437  0  4.213502  0
C  C31  1  0.34114238  0.73981604  0.61587907  1  0  0.637689  0  3.917597  0  0  0.587783  0  4.209009  0  0  0.621742  0  4.201468  0  0  0.204224  0.564771  0  4.213376  0
C  C32  1  0.15884884  0.73977595  0.88412768  1  0  0.637538  0  3.9183  0  0  0.587657  0  4.209698  0  0  0.621608  0  4.202156  0  0  0.204194  0.564648  0  4.21406  0
C  C33  1  0.65884620  0.26022348  0.38412992  1  0  0.637493  0  3.918123  0  0  0.587561  0  4.2096  0  0  0.621514  0  4.202068  0  0  0.204163  0.564553  0  4.213959  0
C  C34  1  0.14160968  0.75542835  0.27946516  1  0  0.051854  0  3.618593  0  0  -0.006611  0  3.884563  0  0  -0.002515  0  3.895884  0  0  -0.075916  -0.009353  0  3.876847  0
C  C35  1  0.64161130  0.24457761  0.77946378  1  0  0.051796  0  3.618642  0  0  -0.006725  0  3.88468  0  0  -0.00263  0  3.896006  0  0  -0.075963  -0.009464  0  3.876961  0
C  C36  1  0.85837746  0.24457972  0.72053512  1  0  0.051652  0  3.618517  0  0  -0.006926  0  3.884642  0  0  -0.002822  0  3.895955  0  0  -0.076021  -0.009662  0  3.876903  0
C  C37  1  0.35837397  0.75543046  0.22053639  1  0  0.051767  0  3.618658  0  0  -0.006795  0  3.884774  0  0  -0.002683  0  3.89608  0  0  -0.075989  -0.009538  0  3.877041  0
C  C38  1  0.43392361  0.19101669  0.00935152  1  0  -0.079318  0  3.735984  0  0  -0.102612  0  3.987923  0  0  -0.10328  0  4.006976  0  0  -0.08779  -0.102119  0  3.975133  0
C  C39  1  0.93391545  0.80897554  0.50935648  1  0  -0.079686  0  3.736101  0  0  -0.103009  0  3.988085  0  0  -0.103672  0  4.00714  0  0  -0.087899  -0.102516  0  3.975298  0
C  C40  1  0.56609905  0.80896564  0.99064960  1  0  -0.079543  0  3.735682  0  0  -0.102853  0  3.987705  0  0  -0.103516  0  4.00675  0  0  -0.087863  -0.102357  0  3.97492  0
C  C41  1  0.06611094  0.19103253  0.49064488  1  0  -0.079604  0  3.735597  0  0  -0.102874  0  3.987588  0  0  -0.103547  0  4.006647  0  0  -0.087817  -0.102378  0  3.974809  0
C  C42  1  0.72912743  0.93298108  0.04645794  1  0  -0.06621  0  3.719629  0  0  -0.090283  0  3.97106  0  0  -0.090714  0  3.990853  0  0  -0.083359  -0.089926  0  3.95768  0
C  C43  1  0.22912763  0.06701001  0.54645522  1  0  -0.066233  0  3.719648  0  0  -0.090317  0  3.971087  0  0  -0.090757  0  3.990906  0  0  -0.083398  -0.089959  0  3.957705  0
C  C44  1  0.27089890  0.06699982  0.95354485  1  0  -0.06619  0  3.719748  0  0  -0.090249  0  3.971155  0  0  -0.090693  0  3.990976  0  0  -0.083373  -0.089894  0  3.957773  0
C  C45  1  0.77090827  0.93298948  0.45354317  1  0  -0.065842  0  3.719452  0  0  -0.089883  0  3.970852  0  0  -0.090324  0  3.990664  0  0  -0.083262  -0.089533  0  3.957475  0
N  N46  1  0.14152098  0.57623333  0.33610290  1  0  -0.658734  0  3.14675  0  0  -0.597983  0  3.409085  0  0  -0.618133  0  3.405347  0  0  -0.63591  -0.584003  0  3.41155  0
N  N47  1  0.64152566  0.42377358  0.83610070  1  0  -0.658686  0  3.146618  0  0  -0.597931  0  3.408935  0  0  -0.618068  0  3.405181  0  0  -0.635891  -0.583951  0  3.411398  0
N  N48  1  0.85846429  0.42378474  0.66389726  1  0  -0.658871  0  3.146593  0  0  -0.598028  0  3.408821  0  0  -0.618159  0  3.405056  0  0  -0.635898  -0.584056  0  3.411312  0
N  N49  1  0.35845778  0.57622734  0.16389863  1  0  -0.658768  0  3.146515  0  0  -0.598036  0  3.408776  0  0  -0.618182  0  3.405022  0  0  -0.635887  -0.584056  0  3.411247  0
O  O50  1  0.01374129  0.18169897  0.17710679  1  0  -0.634073  0  2.04361  0  0  -0.558332  0  2.316238  0  0  -0.586992  0  2.302311  0  0  -0.322889  -0.538288  0  2.324936  0
O  O51  1  0.51373175  0.81830303  0.67710304  1  0  -0.634265  0  2.043809  0  0  -0.558558  0  2.316457  0  0  -0.587205  0  2.30251  0  0  -0.322977  -0.538507  0  2.325154  0
O  O52  1  0.98628514  0.81828908  0.82289385  1  0  -0.634166  0  2.043761  0  0  -0.55845  0  2.316338  0  0  -0.587144  0  2.302484  0  0  -0.32293  -0.538401  0  2.325027  0
O  O53  1  0.48627060  0.18170647  0.32289248  1  0  -0.634178  0  2.043431  0  0  -0.55846  0  2.316064  0  0  -0.58712  0  2.302128  0  0  -0.322934  -0.538409  0  2.324758  0
O  O54  1  0.81584627  0.43836603  0.10347292  1  0  -0.635074  0  1.944075  0  0  -0.580396  0  2.166291  0  0  -0.603172  0  2.157229  0  0  -0.323591  -0.564525  0  2.172028  0
O  O55  1  0.31584411  0.56163209  0.60346851  1  0  -0.635258  0  1.943862  0  0  -0.580555  0  2.166035  0  0  -0.603338  0  2.156971  0  0  -0.323675  -0.564678  0  2.171775  0
O  O56  1  0.18414084  0.56162488  0.89652809  1  0  -0.635093  0  1.944743  0  0  -0.580399  0  2.16691  0  0  -0.603168  0  2.15785  0  0  -0.3236  -0.56453  0  2.172649  0
O  O57  1  0.68414454  0.43836597  0.39653905  1  0  -0.635045  0  1.944918  0  0  -0.580277  0  2.167047  0  0  -0.603048  0  2.157987  0  0  -0.323536  -0.564407  0  2.172784  0
