# generated using pymatgen
data_CuH9C12BrNO
_symmetry_space_group_name_H-M   'P 1'
_cell_length_a   3.83799588
_cell_length_b   11.19971022
_cell_length_c   24.30705785
_cell_angle_alpha   89.99986529
_cell_angle_beta   90.00069800
_cell_angle_gamma   91.71622553
_symmetry_Int_Tables_number   1
_chemical_formula_structural   CuH9C12BrNO
_chemical_formula_sum   'Cu4 H36 C48 Br4 N4 O4'
_cell_volume   1044.35662096
_cell_formula_units_Z   4
loop_
 _symmetry_equiv_pos_site_id
 _symmetry_equiv_pos_as_xyz
  1  'x, y, z'
loop_
 _atom_site_type_symbol
 _atom_site_label
 _atom_site_symmetry_multiplicity
 _atom_site_fract_x
 _atom_site_fract_y
 _atom_site_fract_z
 _atom_site_occupancy
 _atom_site_hle17_bader_spin_density
 _atom_site_hle17_ddec_charge
 _atom_site_hle17_ddec_spin_density
 _atom_site_hle17_ddec_sum_bond_order
 _atom_site_hle17_magmom
 _atom_site_hse06_10hf_bader_spin_density
 _atom_site_hse06_10hf_ddec_charge
 _atom_site_hse06_10hf_ddec_spin_density
 _atom_site_hse06_10hf_ddec_sum_bond_order
 _atom_site_hse06_10hf_magmom
 _atom_site_hse06_bader_spin_density
 _atom_site_hse06_ddec_charge
 _atom_site_hse06_ddec_spin_density
 _atom_site_hse06_ddec_sum_bond_order
 _atom_site_hse06_magmom
 _atom_site_pbe_bader_spin_density
 _atom_site_pbe_cm5_charge
 _atom_site_pbe_ddec_charge
 _atom_site_pbe_ddec_spin_density
 _atom_site_pbe_ddec_sum_bond_order
 _atom_site_pbe_magmom
Cu  Cu0  1  0.79836879  0.94675419  0.46267538  1  0  0.331175  0  2.057234  0  0  0.235875  0  2.557907  0  0  0.24519  0  2.501798  0  0  0.302372  0.232571  0  2.59407  0
Cu  Cu1  1  0.70162432  0.55324060  0.96267595  1  0  0.331197  0  2.057197  0  0  0.235887  0  2.557894  0  0  0.245194  0  2.501788  0  0  0.302397  0.232593  0  2.594065  0
Cu  Cu2  1  0.20162639  0.05323835  0.53732353  1  0  0.33115  0  2.057226  0  0  0.235817  0  2.557951  0  0  0.245125  0  2.50183  0  0  0.302345  0.232514  0  2.594137  0
Cu  Cu3  1  0.29836140  0.44676355  0.03732214  1  0  0.331206  0  2.057154  0  0  0.235877  0  2.557886  0  0  0.245231  0  2.501783  0  0  0.302375  0.232583  0  2.594046  0
H  H4  1  0.50286731  0.84087658  0.36039785  1  0  0.084718  0  0.935578  0  0  0.091101  0  1.004801  0  0  0.094577  0  1.001159  0  0  0.114583  0.088415  0  1.007656  0
H  H5  1  0.99713694  0.65912404  0.86039972  1  0  0.084682  0  0.935591  0  0  0.091045  0  1.004844  0  0  0.094539  0  1.00118  0  0  0.114577  0.088359  0  1.007696  0
H  H6  1  0.49713100  0.15912221  0.63960147  1  0  0.084712  0  0.93557  0  0  0.091081  0  1.004816  0  0  0.094573  0  1.001156  0  0  0.114599  0.088398  0  1.007669  0
H  H7  1  0.00288258  0.34087924  0.13960043  1  0  0.084657  0  0.935597  0  0  0.091025  0  1.004849  0  0  0.094517  0  1.001188  0  0  0.114549  0.088342  0  1.007697  0
H  H8  1  0.45586639  0.90041668  0.26326508  1  0  0.110461  0  0.971238  0  0  0.118312  0  1.037278  0  0  0.121658  0  1.035666  0  0  0.107587  0.115966  0  1.038541  0
H  H9  1  0.04413421  0.59959237  0.76326693  1  0  0.110422  0  0.971264  0  0  0.1183  0  1.037282  0  0  0.121645  0  1.035669  0  0  0.10758  0.115952  0  1.038545  0
H  H10  1  0.54412215  0.09959015  0.73673466  1  0  0.110466  0  0.971236  0  0  0.118337  0  1.037253  0  0  0.121691  0  1.03563  0  0  0.107634  0.115991  0  1.038513  0
H  H11  1  0.95588553  0.40041358  0.23673240  1  0  0.110396  0  0.971316  0  0  0.1183  0  1.037314  0  0  0.121683  0  1.035655  0  0  0.107621  0.115952  0  1.038577  0
H  H12  1  0.03610591  0.22550576  0.30405152  1  0  0.108837  0  0.959063  0  0  0.117727  0  1.023704  0  0  0.120791  0  1.022866  0  0  0.107734  0.115608  0  1.024366  0
H  H13  1  0.46388368  0.27449940  0.80404991  1  0  0.108737  0  0.959148  0  0  0.117631  0  1.023801  0  0  0.120693  0  1.02296  0  0  0.107683  0.115509  0  1.024467  0
H  H14  1  0.96387705  0.77449660  0.69594986  1  0  0.108723  0  0.959207  0  0  0.117618  0  1.023849  0  0  0.12068  0  1.023015  0  0  0.107689  0.115499  0  1.02451  0
H  H15  1  0.53611008  0.72550743  0.19594777  1  0  0.108786  0  0.959169  0  0  0.117687  0  1.023804  0  0  0.120746  0  1.022964  0  0  0.107737  0.115569  0  1.024466  0
H  H16  1  0.07621987  0.14866877  0.40040058  1  0  0.079607  0  0.959794  0  0  0.08565  0  1.030828  0  0  0.089335  0  1.02749  0  0  0.104732  0.082625  0  1.033742  0
H  H17  1  0.42377907  0.35133149  0.90039798  1  0  0.079642  0  0.959843  0  0  0.085664  0  1.030887  0  0  0.089361  0  1.027529  0  0  0.104728  0.082643  0  1.033798  0
H  H18  1  0.92377069  0.85133092  0.59960204  1  0  0.079706  0  0.959836  0  0  0.08572  0  1.030871  0  0  0.089432  0  1.027476  0  0  0.104744  0.0827  0  1.033785  0
H  H19  1  0.57621454  0.64867355  0.09959970  1  0  0.079662  0  0.959846  0  0  0.085735  0  1.030826  0  0  0.089434  0  1.027467  0  0  0.104759  0.082714  0  1.033734  0
H  H20  1  0.97416853  0.89961938  0.20746658  1  0  0.088859  0  0.984145  0  0  0.094765  0  1.05774  0  0  0.097652  0  1.055657  0  0  0.098386  0.092752  0  1.059172  0
H  H21  1  0.52585549  0.60037926  0.70746345  1  0  0.08874  0  0.984044  0  0  0.094667  0  1.057672  0  0  0.097553  0  1.055582  0  0  0.098286  0.092648  0  1.059097  0
H  H22  1  0.02585077  0.10038121  0.79253480  1  0  0.088705  0  0.98409  0  0  0.094638  0  1.057698  0  0  0.097523  0  1.055612  0  0  0.098291  0.092618  0  1.059124  0
H  H23  1  0.47416612  0.39961776  0.29253423  1  0  0.0888  0  0.984195  0  0  0.094753  0  1.057749  0  0  0.097638  0  1.055669  0  0  0.098366  0.092738  0  1.059176  0
H  H24  1  0.05573608  0.79151980  0.11982780  1  0  0.082135  0  0.981078  0  0  0.091541  0  1.04629  0  0  0.093623  0  1.04695  0  0  0.093602  0.089961  0  1.046007  0
H  H25  1  0.44424480  0.70847382  0.61982293  1  0  0.082235  0  0.981154  0  0  0.091579  0  1.046376  0  0  0.093652  0  1.047054  0  0  0.093607  0.089994  0  1.046104  0
H  H26  1  0.94425456  0.20848078  0.88017235  1  0  0.08215  0  0.981095  0  0  0.091588  0  1.04626  0  0  0.09367  0  1.046921  0  0  0.093622  0.090003  0  1.04599  0
H  H27  1  0.55576088  0.29151962  0.38017352  1  0  0.082132  0  0.981127  0  0  0.09157  0  1.046288  0  0  0.09365  0  1.046951  0  0  0.093598  0.089982  0  1.046017  0
H  H28  1  0.86121154  0.87778422  0.03201991  1  0  0.089983  0  0.966041  0  0  0.0992  0  1.03113  0  0  0.102388  0  1.029458  0  0  0.091789  0.096605  0  1.032788  0
H  H29  1  0.63873864  0.62220356  0.53201534  1  0  0.09003  0  0.965909  0  0  0.099211  0  1.031048  0  0  0.102397  0  1.029374  0  0  0.091743  0.096618  0  1.032709  0
H  H30  1  0.13875587  0.12221902  0.96798271  1  0  0.089924  0  0.965902  0  0  0.099091  0  1.031069  0  0  0.102279  0  1.029396  0  0  0.091737  0.096499  0  1.032729  0
H  H31  1  0.36126920  0.37778452  0.46798193  1  0  0.090017  0  0.965843  0  0  0.099186  0  1.030989  0  0  0.102374  0  1.029318  0  0  0.09176  0.096594  0  1.032647  0
H  H32  1  0.59675193  0.07997828  0.03093272  1  0  0.089193  0  0.973061  0  0  0.099219  0  1.03633  0  0  0.102028  0  1.035682  0  0  0.09385  0.097079  0  1.037018  0
H  H33  1  0.90321074  0.42001206  0.53092960  1  0  0.089128  0  0.973186  0  0  0.099177  0  1.036421  0  0  0.101983  0  1.035784  0  0  0.093883  0.097037  0  1.03711  0
H  H34  1  0.40322590  0.92002497  0.96907236  1  0  0.089152  0  0.973211  0  0  0.099173  0  1.036501  0  0  0.10198  0  1.035858  0  0  0.093852  0.097031  0  1.037189  0
H  H35  1  0.09679219  0.57997959  0.46906890  1  0  0.089209  0  0.973128  0  0  0.099244  0  1.036395  0  0  0.102052  0  1.035753  0  0  0.093889  0.097104  0  1.037084  0
H  H36  1  0.51612349  0.18950574  0.11825249  1  0  0.095964  0  0.954663  0  0  0.101592  0  1.026126  0  0  0.105351  0  1.022759  0  0  0.100698  0.098608  0  1.028885  0
H  H37  1  0.98387197  0.31048781  0.61825047  1  0  0.095908  0  0.954759  0  0  0.10154  0  1.026218  0  0  0.1053  0  1.02285  0  0  0.100694  0.098574  0  1.028964  0
H  H38  1  0.48388293  0.81049664  0.88175301  1  0  0.09603  0  0.954663  0  0  0.101648  0  1.02613  0  0  0.105412  0  1.022749  0  0  0.100744  0.098668  0  1.028884  0
H  H39  1  0.01614138  0.68950385  0.38174721  1  0  0.095926  0  0.954735  0  0  0.101565  0  1.026194  0  0  0.105331  0  1.022826  0  0  0.10073  0.098605  0  1.028932  0
C  C40  1  0.62473920  0.92444882  0.34625060  1  0  0.141171  0  3.648088  0  0  0.108006  0  3.904857  0  0  0.115826  0  3.918464  0  0  0.045832  0.102956  0  3.896051  0
C  C41  1  0.87526132  0.57555096  0.84625231  1  0  0.141214  0  3.64808  0  0  0.108057  0  3.904882  0  0  0.115861  0  3.918484  0  0  0.045852  0.103008  0  3.896074  0
C  C42  1  0.37525657  0.07555086  0.65374832  1  0  0.141238  0  3.648008  0  0  0.108048  0  3.904824  0  0  0.115856  0  3.918432  0  0  0.045853  0.103003  0  3.89602  0
C  C43  1  0.12474763  0.42445052  0.15374743  1  0  0.141273  0  3.647827  0  0  0.108098  0  3.904649  0  0  0.115901  0  3.918259  0  0  0.045915  0.103054  0  3.895834  0
C  C44  1  0.59956202  0.95892936  0.29145618  1  0  -0.124057  0  3.696386  0  0  -0.145285  0  3.94587  0  0  -0.150981  0  3.966202  0  0  -0.078379  -0.141724  0  3.932189  0
C  C45  1  0.90044257  0.54107425  0.79145592  1  0  -0.123939  0  3.696191  0  0  -0.145205  0  3.945675  0  0  -0.1509  0  3.966015  0  0  -0.07839  -0.141647  0  3.931995  0
C  C46  1  0.40043397  0.04107301  0.70854520  1  0  -0.124032  0  3.696214  0  0  -0.14527  0  3.945708  0  0  -0.150971  0  3.966036  0  0  -0.078426  -0.141708  0  3.932026  0
C  C47  1  0.09956905  0.45892813  0.20854340  1  0  -0.123959  0  3.696312  0  0  -0.145241  0  3.945808  0  0  -0.150964  0  3.966123  0  0  -0.078438  -0.141679  0  3.932124  0
C  C48  1  0.74259932  0.06966756  0.27515782  1  0  0.010918  0  3.746782  0  0  0.023119  0  3.981194  0  0  0.023647  0  4.000689  0  0  -0.002973  0.023207  0  3.967806  0
C  C49  1  0.75739542  0.43033420  0.77515810  1  0  0.010802  0  3.746825  0  0  0.023006  0  3.981202  0  0  0.023525  0  4.000714  0  0  -0.00294  0.02309  0  3.967817  0
C  C50  1  0.25738350  0.93033301  0.72484274  1  0  0.01088  0  3.746855  0  0  0.023035  0  3.98125  0  0  0.023565  0  4.000747  0  0  -0.003037  0.023127  0  3.967863  0
C  C51  1  0.24260854  0.56966996  0.22484205  1  0  0.010878  0  3.747041  0  0  0.023092  0  3.981428  0  0  0.023612  0  4.000943  0  0  -0.003003  0.023177  0  3.968041  0
C  C52  1  0.91751184  0.13929316  0.31504267  1  0  -0.129655  0  3.721377  0  0  -0.149024  0  3.968386  0  0  -0.1546  0  3.988472  0  0  -0.080779  -0.145456  0  3.954836  0
C  C53  1  0.58248577  0.36070753  0.81504103  1  0  -0.129395  0  3.721165  0  0  -0.148775  0  3.968164  0  0  -0.154347  0  3.988254  0  0  -0.080745  -0.14521  0  3.954621  0
C  C54  1  0.08247597  0.86070474  0.68495912  1  0  -0.129464  0  3.721222  0  0  -0.148827  0  3.96821  0  0  -0.154406  0  3.988302  0  0  -0.080736  -0.145256  0  3.954663  0
C  C55  1  0.41751298  0.63929662  0.18495665  1  0  -0.129448  0  3.721275  0  0  -0.148847  0  3.968285  0  0  -0.154414  0  3.988367  0  0  -0.08069  -0.145275  0  3.954734  0
C  C56  1  0.94014511  0.09740092  0.36843585  1  0  0.109488  0  3.698344  0  0  0.081073  0  3.947486  0  0  0.087573  0  3.962896  0  0  0.031513  0.076387  0  3.938336  0
C  C57  1  0.55985108  0.40259774  0.86843618  1  0  0.109443  0  3.698119  0  0  0.081047  0  3.947272  0  0  0.08754  0  3.962685  0  0  0.031536  0.076355  0  3.938136  0
C  C58  1  0.05984285  0.90259877  0.63156430  1  0  0.109389  0  3.698264  0  0  0.080991  0  3.947415  0  0  0.087492  0  3.962839  0  0  0.031535  0.07629  0  3.938303  0
C  C59  1  0.44014492  0.59740462  0.13156315  1  0  0.109341  0  3.698367  0  0  0.08093  0  3.947468  0  0  0.087422  0  3.962881  0  0  0.031468  0.076218  0  3.938368  0
C  C60  1  0.68948967  0.12303105  0.21945705  1  0  0.382226  0  3.715212  0  0  0.364391  0  3.971633  0  0  0.387555  0  3.97229  0  0  0.160256  0.34798  0  3.971528  0
C  C61  1  0.81051205  0.37697901  0.71945543  1  0  0.382014  0  3.715022  0  0  0.364306  0  3.971378  0  0  0.387474  0  3.972039  0  0  0.160241  0.347893  0  3.971277  0
C  C62  1  0.31050960  0.87697936  0.78054598  1  0  0.382048  0  3.715137  0  0  0.364384  0  3.971368  0  0  0.38755  0  3.972031  0  0  0.160277  0.347969  0  3.971267  0
C  C63  1  0.18950695  0.62301801  0.28054348  1  0  0.382086  0  3.715171  0  0  0.364321  0  3.971523  0  0  0.387492  0  3.97218  0  0  0.160281  0.347909  0  3.971424  0
C  C64  1  0.73373097  0.05180530  0.16883068  1  0  -0.0558  0  3.788174  0  0  -0.03588  0  4.017675  0  0  -0.046125  0  4.045964  0  0  -0.024314  -0.028806  0  3.998414  0
C  C65  1  0.76627424  0.44819784  0.66882644  1  0  -0.055733  0  3.788155  0  0  -0.03603  0  4.017879  0  0  -0.046282  0  4.046173  0  0  -0.02437  -0.028954  0  3.99862  0
C  C66  1  0.26627812  0.94819796  0.83117399  1  0  -0.055927  0  3.788392  0  0  -0.036122  0  4.017938  0  0  -0.046376  0  4.046233  0  0  -0.024384  -0.02905  0  3.998677  0
C  C67  1  0.23374007  0.55180543  0.33117001  1  0  -0.055884  0  3.788412  0  0  -0.036025  0  4.017971  0  0  -0.046276  0  4.046262  0  0  -0.024379  -0.028951  0  3.998718  0
C  C68  1  0.88677801  0.93905539  0.16906569  1  0  -0.087042  0  3.730883  0  0  -0.109651  0  3.979376  0  0  -0.110518  0  4.003046  0  0  -0.084758  -0.108833  0  3.963063  0
C  C69  1  0.61322769  0.56094520  0.66906196  1  0  -0.086764  0  3.730709  0  0  -0.109349  0  3.97919  0  0  -0.110201  0  4.002846  0  0  -0.08462  -0.108519  0  3.96286  0
C  C70  1  0.11322849  0.06094788  0.83093693  1  0  -0.086649  0  3.730753  0  0  -0.109262  0  3.979246  0  0  -0.110116  0  4.002908  0  0  -0.084599  -0.108436  0  3.96292  0
C  C71  1  0.38679153  0.43905450  0.33093367  1  0  -0.086944  0  3.730916  0  0  -0.109585  0  3.979423  0  0  -0.110447  0  4.003089  0  0  -0.084742  -0.108759  0  3.963097  0
C  C72  1  0.93196315  0.87775762  0.11983521  1  0  -0.069894  0  3.75579  0  0  -0.079001  0  4.001084  0  0  -0.083399  0  4.024314  0  0  -0.091984  -0.076143  0  3.985565  0
C  C73  1  0.56803087  0.62224051  0.61982927  1  0  -0.070172  0  3.756092  0  0  -0.079185  0  4.001336  0  0  -0.083583  0  4.024565  0  0  -0.091992  -0.076329  0  3.98582  0
C  C74  1  0.06803284  0.12224474  0.88016576  1  0  -0.07008  0  3.756005  0  0  -0.079211  0  4.001307  0  0  -0.083613  0  4.024537  0  0  -0.092031  -0.076355  0  3.98579  0
C  C75  1  0.43199088  0.37775830  0.38016512  1  0  -0.069961  0  3.755934  0  0  -0.079103  0  4.001225  0  0  -0.083499  0  4.024447  0  0  -0.092022  -0.076247  0  3.98571  0
C  C76  1  0.82517358  0.92732932  0.07014745  1  0  -0.035078  0  3.711663  0  0  -0.052275  0  3.959106  0  0  -0.050946  0  3.977596  0  0  -0.078924  -0.053371  0  3.94731  0
C  C77  1  0.67478999  0.57266008  0.57014301  1  0  -0.035058  0  3.711565  0  0  -0.052241  0  3.959  0  0  -0.050908  0  3.977484  0  0  -0.078848  -0.053342  0  3.947214  0
C  C78  1  0.17480418  0.07267303  0.92985434  1  0  -0.034929  0  3.711546  0  0  -0.052074  0  3.958985  0  0  -0.050744  0  3.977473  0  0  -0.078847  -0.053173  0  3.947195  0
C  C79  1  0.32521814  0.42733157  0.42985262  1  0  -0.035081  0  3.711618  0  0  -0.052197  0  3.959029  0  0  -0.050864  0  3.977513  0  0  -0.078849  -0.0533  0  3.947243  0
C  C80  1  0.67620791  0.03977777  0.06957551  1  0  -0.072485  0  3.752875  0  0  -0.081258  0  3.996951  0  0  -0.085272  0  4.01817  0  0  -0.089229  -0.078812  0  3.983153  0
C  C81  1  0.82376043  0.46021508  0.56957219  1  0  -0.072423  0  3.752886  0  0  -0.081208  0  3.996965  0  0  -0.085224  0  4.018188  0  0  -0.089276  -0.078764  0  3.983178  0
C  C82  1  0.32377789  0.96022727  0.93042917  1  0  -0.072532  0  3.753101  0  0  -0.081323  0  3.997171  0  0  -0.085339  0  4.018395  0  0  -0.089313  -0.078878  0  3.983376  0
C  C83  1  0.17625046  0.53977836  0.43042549  1  0  -0.072539  0  3.752904  0  0  -0.081359  0  3.997009  0  0  -0.085378  0  4.018233  0  0  -0.08928  -0.078915  0  3.983225  0
C  C84  1  0.63189398  0.10184331  0.11841968  1  0  -0.052803  0  3.706826  0  0  -0.076443  0  3.952616  0  0  -0.07497  0  3.972763  0  0  -0.076526  -0.07744  0  3.939354  0
C  C85  1  0.86809650  0.39815291  0.61841734  1  0  -0.052764  0  3.70698  0  0  -0.076344  0  3.952813  0  0  -0.074871  0  3.972967  0  0  -0.076493  -0.077364  0  3.939553  0
C  C86  1  0.36810216  0.89816084  0.88158499  1  0  -0.052796  0  3.707038  0  0  -0.076389  0  3.952827  0  0  -0.074915  0  3.972982  0  0  -0.076497  -0.077393  0  3.939556  0
C  C87  1  0.13191953  0.60183965  0.38158034  1  0  -0.052599  0  3.706912  0  0  -0.076227  0  3.952713  0  0  -0.074759  0  3.972868  0  0  -0.076472  -0.07725  0  3.939445  0
Br  Br88  1  0.28069906  0.83344682  0.49633058  1  0  -0.442781  0  1.548039  0  0  -0.369339  0  1.979025  0  0  -0.388951  0  1.937767  0  0  -0.224405  -0.354378  0  2.006582  0
Br  Br89  1  0.21930235  0.66655224  0.99632901  1  0  -0.442797  0  1.548062  0  0  -0.369353  0  1.979063  0  0  -0.388973  0  1.937813  0  0  -0.224418  -0.354407  0  2.006625  0
Br  Br90  1  0.71928048  0.16654571  0.50366957  1  0  -0.442781  0  1.54808  0  0  -0.369347  0  1.979091  0  0  -0.388947  0  1.937823  0  0  -0.224381  -0.354386  0  2.006657  0
Br  Br91  1  0.78069074  0.33344655  0.00367279  1  0  -0.442828  0  1.548006  0  0  -0.369362  0  1.978953  0  0  -0.389001  0  1.937725  0  0  -0.224422  -0.354419  0  2.006516  0
N  N92  1  0.79015153  0.99214875  0.38465233  1  0  -0.270721  0  3.377847  0  0  -0.195407  0  3.670103  0  0  -0.205759  0  3.6763  0  0  -0.365282  -0.18965  0  3.666051  0
N  N93  1  0.70984914  0.50784997  0.88465214  1  0  -0.270782  0  3.37785  0  0  -0.195475  0  3.670122  0  0  -0.205819  0  3.676312  0  0  -0.365302  -0.18972  0  3.666077  0
N  N94  1  0.20984409  0.00784915  0.61534823  1  0  -0.270743  0  3.377879  0  0  -0.195391  0  3.670105  0  0  -0.205753  0  3.676316  0  0  -0.365278  -0.189637  0  3.666068  0
N  N95  1  0.29015727  0.49215240  0.11534636  1  0  -0.270757  0  3.377709  0  0  -0.195446  0  3.66998  0  0  -0.205801  0  3.676194  0  0  -0.365325  -0.189684  0  3.665914  0
O  O96  1  0.60878473  0.22956363  0.21750192  1  0  -0.464402  0  1.937743  0  0  -0.417972  0  2.15147  0  0  -0.435648  0  2.148542  0  0  -0.255387  -0.40606  0  2.153638  0
O  O97  1  0.89121328  0.27043482  0.71750346  1  0  -0.46437  0  1.93747  0  0  -0.417962  0  2.151149  0  0  -0.435639  0  2.148218  0  0  -0.255408  -0.406041  0  2.153296  0
O  O98  1  0.39121105  0.77043606  0.78249987  1  0  -0.464331  0  1.937458  0  0  -0.417956  0  2.151112  0  0  -0.435634  0  2.148185  0  0  -0.25537  -0.40603  0  2.153253  0
O  O99  1  0.10879299  0.72956576  0.28249669  1  0  -0.464393  0  1.937212  0  0  -0.418009  0  2.150941  0  0  -0.435687  0  2.148009  0  0  -0.255447  -0.406089  0  2.153098  0
