# generated using pymatgen
data_Zn3Fe2H44C62(N11O)2
_symmetry_space_group_name_H-M   'P 1'
_cell_length_a   11.59996955
_cell_length_b   15.60556780
_cell_length_c   17.27654827
_cell_angle_alpha   89.99986844
_cell_angle_beta   89.99948224
_cell_angle_gamma   89.99989406
_symmetry_Int_Tables_number   1
_chemical_formula_structural   Zn3Fe2H44C62(N11O)2
_chemical_formula_sum   'Zn6 Fe4 H88 C124 N44 O4'
_cell_volume   3127.47179362
_cell_formula_units_Z   2
loop_
 _symmetry_equiv_pos_site_id
 _symmetry_equiv_pos_as_xyz
  1  'x, y, z'
loop_
 _atom_site_type_symbol
 _atom_site_label
 _atom_site_symmetry_multiplicity
 _atom_site_fract_x
 _atom_site_fract_y
 _atom_site_fract_z
 _atom_site_occupancy
 _atom_site_pbe_bader_charge
 _atom_site_pbe_bader_spin_density
 _atom_site_pbe_cm5_charge
 _atom_site_pbe_ddec_charge
 _atom_site_pbe_ddec_spin_density
 _atom_site_pbe_ddec_sum_bond_order
 _atom_site_pbe_magmom
Zn  Zn0  1  0.99999971  0.10788176  0.66750809  1  1.295429  -0.000361  0.768533  0.766599  -0.000336  2.632448  -0.001
Zn  Zn1  1  0.99999927  0.89212023  0.33249187  1  1.295408  -0.000361  0.768506  0.766504  -0.000336  2.632633  -0.001
Zn  Zn2  1  0.00000052  0.60788070  0.83249089  1  1.29542  -0.000361  0.768529  0.766569  -0.000336  2.632629  -0.001
Zn  Zn3  1  0.00000011  0.39211753  0.16750701  1  1.29542  -0.000361  0.768517  0.766571  -0.000335  2.632567  -0.001
Zn  Zn4  1  0.00000118  0.49999976  0.49999982  1  1.333391  0.000394  0.706546  0.82104  0.00038  2.466456  0.0
Zn  Zn5  1  0.99999879  0.99999946  0.00000057  1  1.333409  0.000395  0.706493  0.820977  0.00038  2.466546  0.0
Fe  Fe6  1  0.99999975  0.19726111  0.39044050  1  1.012583  0.896625  0.525375  0.162838  1.03639  5.014296  0.891
Fe  Fe7  1  0.99999924  0.80273832  0.60955656  1  1.012699  0.896557  0.525423  0.163105  1.036305  5.014276  0.891
Fe  Fe8  1  0.99999843  0.69725865  0.10955807  1  1.012564  0.896705  0.52544  0.162938  1.036479  5.013971  0.891
Fe  Fe9  1  0.99999710  0.30273821  0.89044131  1  1.012622  0.896666  0.525423  0.162955  1.036436  5.014194  0.891
H  H10  1  0.20437613  0.17792448  0.77335391  1  0.140717  5.9e-05  0.119552  0.093847  -4.2e-05  1.019466  0.0
H  H11  1  0.20437557  0.82207732  0.22664508  1  0.140021  5.9e-05  0.119522  0.093781  -4.2e-05  1.019445  0.0
H  H12  1  0.79562220  0.67792516  0.72664609  1  0.140251  5.9e-05  0.119565  0.093833  -4.2e-05  1.019584  0.0
H  H13  1  0.79562398  0.32208031  0.27335279  1  0.139761  5.9e-05  0.119534  0.093765  -4.2e-05  1.019458  0.0
H  H14  1  0.79562109  0.82207499  0.22664560  1  0.140259  5.9e-05  0.119567  0.093835  -4.2e-05  1.019588  0.0
H  H15  1  0.79562165  0.17792407  0.77335559  1  0.139978  5.9e-05  0.119535  0.093799  -4.2e-05  1.019408  0.0
H  H16  1  0.20437501  0.32207943  0.27335342  1  0.140715  5.9e-05  0.119555  0.093789  -4.2e-05  1.01951  0.0
H  H17  1  0.20437669  0.67792108  0.72664557  1  0.14006  5.9e-05  0.119515  0.093718  -4.2e-05  1.019439  0.0
H  H18  1  0.41466542  0.17408595  0.78171548  1  0.078532  -3e-05  0.11089  0.118062  -4.5e-05  1.009359  0.0
H  H19  1  0.41466669  0.82591235  0.21828339  1  0.07844  -3e-05  0.11086  0.118067  -4.5e-05  1.009443  0.0
H  H20  1  0.58533292  0.67408694  0.71828453  1  0.068917  -3.1e-05  0.110862  0.11806  -4.5e-05  1.009316  0.0
H  H21  1  0.58533285  0.32591369  0.28171447  1  0.068905  -3.1e-05  0.110879  0.118066  -4.5e-05  1.0094  0.0
H  H22  1  0.58533093  0.82591288  0.21828461  1  0.068903  -3.1e-05  0.110857  0.118055  -4.5e-05  1.009315  0.0
H  H23  1  0.58533139  0.17408775  0.78171554  1  0.06885  -3.1e-05  0.110867  0.118079  -4.5e-05  1.009407  0.0
H  H24  1  0.41466516  0.32591509  0.28171325  1  0.078582  -3e-05  0.110877  0.118019  -4.5e-05  1.009368  0.0
H  H25  1  0.41466782  0.67408770  0.71828505  1  0.07847  -3e-05  0.110879  0.118101  -4.5e-05  1.009401  0.0
H  H26  1  0.20067246  0.02374322  0.57834927  1  0.107451  1.6e-05  0.123101  0.093875  -7e-06  0.982804  0.0
H  H27  1  0.20067319  0.97625666  0.42165089  1  0.107536  1.6e-05  0.123105  0.09384  -7e-06  0.982839  0.0
H  H28  1  0.79932799  0.52374340  0.92165163  1  0.107425  1.6e-05  0.123083  0.093831  -7e-06  0.982808  0.0
H  H29  1  0.79932425  0.47626014  0.07834839  1  0.107491  1.6e-05  0.123096  0.09385  -7e-06  0.982845  0.0
H  H30  1  0.79932562  0.97625497  0.42165140  1  0.107474  1.6e-05  0.12311  0.093895  -7e-06  0.982783  0.0
H  H31  1  0.79932575  0.02374409  0.57835035  1  0.107547  1.6e-05  0.123118  0.09389  -7e-06  0.982825  0.0
H  H32  1  0.20067440  0.47626055  0.07834788  1  0.107429  1.6e-05  0.123098  0.093847  -7e-06  0.982816  0.0
H  H33  1  0.20067555  0.52374253  0.92165170  1  0.107525  1.6e-05  0.123104  0.093845  -7e-06  0.982847  0.0
H  H34  1  0.41288597  0.01176594  0.57751514  1  0.061071  -1.3e-05  0.109198  0.11222  -2e-05  1.012732  0.0
H  H35  1  0.41288579  0.98823621  0.42248606  1  0.060998  -1.3e-05  0.109193  0.112141  -2e-05  1.012684  0.0
H  H36  1  0.58711451  0.51176385  0.92248578  1  0.061038  -1.3e-05  0.109192  0.112203  -2e-05  1.01271  0.0
H  H37  1  0.58711162  0.48824063  0.07751320  1  0.052206  -1.4e-05  0.109193  0.112206  -2e-05  1.012671  0.0
H  H38  1  0.58711298  0.98823481  0.42248495  1  0.052356  -1.4e-05  0.109197  0.112208  -2e-05  1.01274  0.0
H  H39  1  0.58711401  0.01176518  0.57751461  1  0.052298  -1.4e-05  0.109192  0.112133  -2e-05  1.012751  0.0
H  H40  1  0.41288788  0.48824074  0.07751315  1  0.060965  -1.3e-05  0.109181  0.112192  -2e-05  1.012722  0.0
H  H41  1  0.41288819  0.51176268  0.92248689  1  0.052258  -1.4e-05  0.109172  0.112095  -2e-05  1.012715  0.0
H  H42  1  0.79889732  0.56702131  0.60303470  1  0.101075  0.000132  0.1221  0.095735  8.5e-05  0.988498  0.0
H  H43  1  0.79889716  0.43297839  0.39696590  1  0.101066  0.000132  0.122127  0.095839  8.5e-05  0.988533  0.0
H  H44  1  0.20110388  0.06702095  0.89696495  1  0.101104  0.000132  0.122094  0.095718  8.5e-05  0.988487  0.0
H  H45  1  0.20110298  0.93297828  0.10303405  1  0.10105  0.000132  0.122119  0.095846  8.5e-05  0.988559  0.0
H  H46  1  0.20110421  0.43297944  0.39696539  1  0.101109  0.000132  0.122105  0.095756  8.5e-05  0.988458  0.0
H  H47  1  0.20110524  0.56702044  0.60303361  1  0.101087  0.000132  0.12212  0.095827  8.5e-05  0.988547  0.0
H  H48  1  0.79889593  0.93297915  0.10303630  1  0.101067  0.000132  0.122099  0.095748  8.5e-05  0.988463  0.0
H  H49  1  0.79889424  0.06701926  0.89696546  1  0.101107  0.000132  0.122123  0.095823  8.5e-05  0.988488  0.0
H  H50  1  0.58622345  0.56917453  0.60871819  1  0.042552  4e-06  0.103975  0.105391  -1e-06  1.031271  0.0
H  H51  1  0.58622422  0.43082418  0.39128138  1  0.04258  4e-06  0.103965  0.105386  -1e-06  1.031166  0.0
H  H52  1  0.41377688  0.06917389  0.89128262  1  0.042578  4e-06  0.103955  0.105356  -1e-06  1.031268  0.0
H  H53  1  0.41377505  0.93082377  0.10872031  1  0.042497  4e-06  0.103959  0.105398  -1e-06  1.031248  0.0
H  H54  1  0.41377808  0.43082558  0.39128190  1  0.03346  3e-06  0.10398  0.105384  -1e-06  1.031233  0.0
H  H55  1  0.41377730  0.56917464  0.60871929  1  0.033473  3e-06  0.103983  0.105383  -1e-06  1.031125  0.0
H  H56  1  0.58622206  0.93082685  0.10872153  1  0.033202  3e-06  0.103972  0.105356  -1e-06  1.031261  0.0
H  H57  1  0.58622130  0.06917249  0.89128209  1  0.033498  3e-06  0.103965  0.105366  -1e-06  1.031187  0.0
H  H58  1  0.06806873  0.40614651  0.62557920  1  0.615993  -3e-06  0.273861  0.328471  -7e-06  1.038836  0.0
H  H59  1  0.06806760  0.59385291  0.37442061  1  0.615999  -3e-06  0.273861  0.328474  -7e-06  1.038838  0.0
H  H60  1  0.93193162  0.90614663  0.87442091  1  0.616007  -3e-06  0.273857  0.328493  -7e-06  1.038812  0.0
H  H61  1  0.93193252  0.09385288  0.12558004  1  0.616004  -3e-06  0.273823  0.328413  -7e-06  1.038916  0.0
H  H62  1  0.93193280  0.59385488  0.37442147  1  0.615791  -3e-06  0.273861  0.328516  -7e-06  1.038772  0.0
H  H63  1  0.93193393  0.40614720  0.62557948  1  0.616007  -3e-06  0.273866  0.328503  -7e-06  1.038806  0.0
H  H64  1  0.06806732  0.09385348  0.12557860  1  0.616008  -3e-06  0.273845  0.328457  -7e-06  1.038854  0.0
H  H65  1  0.06806729  0.90614722  0.87442063  1  0.616008  -3e-06  0.273855  0.328486  -7e-06  1.038808  0.0
H  H66  1  0.20362744  0.59269057  0.24690515  1  0.117623  -5e-06  0.113857  0.088689  -5.1e-05  1.002578  0.0
H  H67  1  0.20362770  0.40730545  0.75309500  1  0.117918  -5e-06  0.113863  0.088752  -5.1e-05  1.002669  0.0
H  H68  1  0.79637182  0.09268977  0.25309493  1  0.117634  -5e-06  0.113853  0.088694  -5.1e-05  1.00259  0.0
H  H69  1  0.79637264  0.90730352  0.74690569  1  0.117946  -5e-06  0.113856  0.088725  -5.1e-05  1.002678  0.0
H  H70  1  0.79637667  0.40730697  0.75309668  1  0.117613  -5e-06  0.113815  0.088642  -5.1e-05  1.00258  0.0
H  H71  1  0.79637813  0.59269657  0.24690625  1  0.118223  -5e-06  0.113828  0.088685  -5.1e-05  1.002715  0.0
H  H72  1  0.20362626  0.90730713  0.74690343  1  0.117616  -5e-06  0.113837  0.088703  -5.1e-05  1.002567  0.0
H  H73  1  0.20362457  0.09269402  0.25309325  1  0.11764  -5e-06  0.113833  0.088688  -5.1e-05  1.002671  0.0
H  H74  1  0.41414272  0.60750375  0.23406223  1  0.088587  3.1e-05  0.103548  0.110667  2.8e-05  1.025563  0.0
H  H75  1  0.41414371  0.39249199  0.76593953  1  0.088611  3.1e-05  0.103532  0.110626  2.8e-05  1.025344  0.0
H  H76  1  0.58585478  0.10749935  0.26593608  1  0.088572  3.1e-05  0.10353  0.110639  2.8e-05  1.025532  0.0
H  H77  1  0.58585668  0.89249166  0.73406234  1  0.098066  3.3e-05  0.103523  0.110593  2.8e-05  1.02543  0.0
H  H78  1  0.58585967  0.39249187  0.76593844  1  0.097975  3.3e-05  0.103557  0.110613  2.8e-05  1.025577  0.0
H  H79  1  0.58586213  0.60750876  0.23406056  1  0.097981  3.3e-05  0.103525  0.110559  2.8e-05  1.025432  0.0
H  H80  1  0.41414416  0.89249242  0.73406228  1  0.088667  3.2e-05  0.103518  0.110625  2.8e-05  1.025435  0.0
H  H81  1  0.41414140  0.10750524  0.26593775  1  0.09806  3.3e-05  0.103494  0.110552  2.8e-05  1.025337  0.0
H  H82  1  0.20294309  0.71129476  0.46115442  1  0.115424  0.000232  0.11584  0.091228  0.000104  0.999334  0.0
H  H83  1  0.20294223  0.28870703  0.53884225  1  0.115763  0.000232  0.115812  0.091224  0.000104  0.999189  0.0
H  H84  1  0.79705846  0.21129514  0.03884599  1  0.115544  0.000232  0.115844  0.091243  0.000104  0.999326  0.0
H  H85  1  0.79706014  0.78870584  0.96115809  1  0.115696  0.000232  0.115805  0.091213  0.000104  0.999286  0.0
H  H86  1  0.79706017  0.28870726  0.53884393  1  0.115882  0.000232  0.115828  0.091285  0.000104  0.999264  0.0
H  H87  1  0.79705758  0.71129692  0.46115841  1  0.115377  0.000232  0.115791  0.091167  0.000104  0.999256  0.0
H  H88  1  0.20293875  0.78870753  0.96115642  1  0.115859  0.000231  0.11582  0.091209  0.000103  0.999314  0.0
H  H89  1  0.20293966  0.21129491  0.03884142  1  0.115693  0.000231  0.115804  0.091174  0.000104  0.999246  0.0
H  H90  1  0.41300569  0.72980917  0.45993941  1  0.091383  7.7e-05  0.107357  0.117092  5.3e-05  1.010063  0.0
H  H91  1  0.41300572  0.27019362  0.54005600  1  0.082497  7.6e-05  0.10734  0.11708  5.3e-05  1.010214  0.0
H  H92  1  0.58699581  0.22980855  0.04005807  1  0.091338  7.7e-05  0.10737  0.117082  5.3e-05  1.010101  0.0
H  H93  1  0.58699583  0.77019464  0.95994728  1  0.082403  7.6e-05  0.107356  0.117063  5.3e-05  1.010218  0.0
H  H94  1  0.58699670  0.27019414  0.54005663  1  0.091312  7.7e-05  0.107346  0.117084  5.3e-05  1.010068  0.0
H  H95  1  0.58699322  0.72980841  0.45994293  1  0.082516  7.6e-05  0.107371  0.117098  5.3e-05  1.010232  0.0
H  H96  1  0.41300227  0.77019540  0.95994607  1  0.091258  7.7e-05  0.107369  0.117089  5.3e-05  1.010138  0.0
H  H97  1  0.41300484  0.22980418  0.04005455  1  0.082444  7.6e-05  0.107351  0.117058  5.3e-05  1.010255  0.0
C  C98  1  0.16570874  0.19959674  0.39378050  1  0.668372  -0.026899  0.00479  -0.006221  -0.027722  3.842565  -0.023
C  C99  1  0.16570742  0.80040319  0.60621872  1  0.668327  -0.026916  0.004661  -0.006527  -0.027732  3.842177  -0.023
C  C100  1  0.83429198  0.69959447  0.10621878  1  0.668412  -0.026915  0.004749  -0.006321  -0.027734  3.842412  -0.023
C  C101  1  0.83429061  0.30040518  0.89377987  1  0.668401  -0.026914  0.004763  -0.006306  -0.027733  3.842291  -0.023
C  C102  1  0.83429279  0.80040337  0.60622075  1  0.668291  -0.026916  0.004678  -0.006567  -0.027733  3.842269  -0.023
C  C103  1  0.83428980  0.19959756  0.39378021  1  0.668508  -0.026905  0.004702  -0.006391  -0.027725  3.842417  -0.023
C  C104  1  0.16571817  0.30040243  0.89378073  1  0.66877  -0.026883  0.004769  -0.006375  -0.027706  3.84291  -0.023
C  C105  1  0.16572643  0.69959429  0.10621907  1  0.668977  -0.026868  0.004827  -0.006219  -0.027694  3.843073  -0.023
C  C106  1  0.00000028  0.25316632  0.29468823  1  0.864082  -0.020701  0.051057  0.08669  -0.021497  3.790328  -0.015
C  C107  1  0.00000034  0.74683447  0.70530910  1  0.864033  -0.020701  0.051034  0.086596  -0.021496  3.790213  -0.015
C  C108  1  0.00000026  0.75316042  0.20531164  1  0.863989  -0.020703  0.050984  0.08656  -0.021499  3.790377  -0.015
C  C109  1  0.99999782  0.24683072  0.79469018  1  0.864057  -0.020701  0.051053  0.086594  -0.021498  3.790367  -0.015
C  C110  1  0.00000016  0.30951975  0.43044967  1  0.830009  -0.021569  0.043736  0.075165  -0.022874  3.791222  -0.018
C  C111  1  0.00000047  0.69048168  0.56954882  1  0.829975  -0.021569  0.043749  0.075198  -0.022873  3.791182  -0.018
C  C112  1  0.99999942  0.80951543  0.06954764  1  0.829903  -0.021574  0.04386  0.075387  -0.022877  3.791116  -0.018
C  C113  1  0.99999870  0.19048271  0.93045058  1  0.829888  -0.021573  0.043724  0.075145  -0.022877  3.791279  -0.018
C  C114  1  0.99999913  0.15075386  0.49080551  1  0.85816  -0.020272  0.045977  0.084447  -0.020796  3.797027  -0.014
C  C115  1  0.00000068  0.84924817  0.50919227  1  0.85825  -0.02027  0.045899  0.08425  -0.020794  3.796825  -0.014
C  C116  1  0.99999917  0.65075038  0.00919258  1  0.858282  -0.020273  0.045904  0.084272  -0.020798  3.796895  -0.014
C  C117  1  0.99999982  0.34924904  0.99080506  1  0.858162  -0.020273  0.045912  0.084358  -0.020797  3.796822  -0.014
C  C118  1  0.99999845  0.08686018  0.34654180  1  0.836352  -0.022727  0.044795  0.069633  -0.025129  3.761125  -0.021
C  C119  1  0.99999966  0.91313796  0.65345816  1  0.836552  -0.022726  0.044843  0.069703  -0.025125  3.761204  -0.021
C  C120  1  0.99999827  0.58686018  0.15345815  1  0.836329  -0.022731  0.044825  0.069692  -0.025134  3.761044  -0.021
C  C121  1  0.99999812  0.41313860  0.84653949  1  0.836315  -0.022728  0.044873  0.06969  -0.02513  3.761137  -0.021
C  C122  1  0.25363090  0.14104471  0.73124238  1  0.489023  3.8e-05  0.054009  0.104264  -1e-06  3.937091  0.0
C  C123  1  0.25362795  0.85895766  0.26876210  1  0.489933  3.8e-05  0.053972  0.104244  -1e-06  3.93766  0.0
C  C124  1  0.74636839  0.64104728  0.76875770  1  0.489428  3.8e-05  0.054034  0.104325  -1e-06  3.936958  0.0
C  C125  1  0.74637150  0.35895826  0.23123743  1  0.490083  3.8e-05  0.05397  0.10429  -1e-06  3.937428  0.0
C  C126  1  0.74636718  0.85895283  0.26875713  1  0.48942  3.8e-05  0.054074  0.10436  -1e-06  3.936865  0.0
C  C127  1  0.74636840  0.14104437  0.73123799  1  0.489897  3.8e-05  0.053982  0.104291  -1e-06  3.937576  0.0
C  C128  1  0.25362883  0.35895795  0.23124181  1  0.489128  3.8e-05  0.054015  0.104394  -1e-06  3.937012  0.0
C  C129  1  0.25363175  0.64104185  0.76876208  1  0.489841  3.8e-05  0.053979  0.104356  -1e-06  3.937537  0.0
C  C130  1  0.37312343  0.13803352  0.73553049  1  -0.006917  0.00042  -0.079533  -0.171892  0.000201  3.942436  0.0
C  C131  1  0.37312053  0.86196292  0.26446400  1  -0.006931  0.00042  -0.079462  -0.171879  0.000202  3.941959  0.0
C  C132  1  0.62687586  0.63803370  0.76447075  1  -0.006892  0.00042  -0.079479  -0.171856  0.000201  3.942548  0.0
C  C133  1  0.62687892  0.36196495  0.23553436  1  -0.006845  0.00042  -0.079494  -0.171883  0.000202  3.941968  0.0
C  C134  1  0.62687551  0.86196595  0.26447076  1  -0.006907  0.00042  -0.079495  -0.171896  0.000201  3.942584  0.0
C  C135  1  0.62687668  0.13803719  0.73553377  1  -0.006868  0.00042  -0.079478  -0.171906  0.000201  3.942123  0.0
C  C136  1  0.37312049  0.36196769  0.23552992  1  -0.00703  0.00042  -0.079527  -0.171897  0.000201  3.942244  0.0
C  C137  1  0.37312089  0.63803579  0.76446457  1  -0.006883  0.00042  -0.079498  -0.171932  0.000201  3.942173  0.0
C  C138  1  0.25216191  0.05595214  0.62245801  1  0.491926  0.000261  0.057632  0.107309  0.000177  3.943824  0.0
C  C139  1  0.25216246  0.94405279  0.37754532  1  0.491837  0.000261  0.05759  0.107315  0.000177  3.943289  0.0
C  C140  1  0.74783931  0.55595251  0.87754282  1  0.491825  0.000261  0.057618  0.107377  0.000177  3.943904  0.0
C  C141  1  0.74783679  0.44405751  0.12245519  1  0.491968  0.000261  0.057582  0.107322  0.000177  3.94359  0.0
C  C142  1  0.74783617  0.94404732  0.37754208  1  0.491848  0.000261  0.057543  0.107168  0.000177  3.943968  0.0
C  C143  1  0.74783649  0.05594924  0.62245593  1  0.491897  0.000261  0.057588  0.107285  0.000177  3.943373  0.0
C  C144  1  0.25216221  0.44405208  0.12245553  1  0.49187  0.000261  0.057612  0.107361  0.000177  3.943622  0.0
C  C145  1  0.25216560  0.55594388  0.87754548  1  0.491966  0.000261  0.057579  0.107295  0.000177  3.943587  0.0
C  C146  1  0.37168895  0.04972351  0.62254332  1  0.039242  9.3e-05  -0.077112  -0.165203  3.6e-05  3.930235  0.0
C  C147  1  0.37168862  0.95027420  0.37745350  1  0.038874  9.3e-05  -0.077193  -0.165155  3.6e-05  3.930404  0.0
C  C148  1  0.62831229  0.54972148  0.87745753  1  0.039332  9.3e-05  -0.077135  -0.165226  3.6e-05  3.93013  0.0
C  C149  1  0.62830974  0.45027845  0.12254584  1  0.038852  9.3e-05  -0.077126  -0.165232  3.6e-05  3.930427  0.0
C  C150  1  0.62830913  0.95027659  0.37745677  1  0.039086  9.3e-05  -0.077064  -0.165071  3.6e-05  3.930211  0.0
C  C151  1  0.62831032  0.04972526  0.62254659  1  0.03882  9.3e-05  -0.07713  -0.165064  3.6e-05  3.930456  0.0
C  C152  1  0.37169011  0.45028119  0.12254372  1  0.03932  9.3e-05  -0.077156  -0.165233  3.6e-05  3.930218  0.0
C  C153  1  0.37169092  0.54972550  0.87745425  1  0.039104  9.3e-05  -0.07712  -0.164996  3.6e-05  3.930534  0.0
C  C154  1  0.43612403  0.09242931  0.67964476  1  -0.140475  -1.9e-05  0.010692  0.095877  -3.5e-05  3.977078  0.0
C  C155  1  0.43612027  0.90757473  0.32035687  1  0.010263  -1.6e-05  0.010781  0.095986  -3.5e-05  3.976794  0.0
C  C156  1  0.56387883  0.59243071  0.82035426  1  0.009975  -1.6e-05  0.010749  0.095924  -3.5e-05  3.97702  0.0
C  C157  1  0.56387993  0.40757699  0.17964313  1  0.010206  -1.6e-05  0.010746  0.095966  -3.5e-05  3.976778  0.0
C  C158  1  0.56387491  0.90756823  0.32035301  1  -0.140285  -1.9e-05  0.010702  0.09587  -3.5e-05  3.977185  0.0
C  C159  1  0.56387695  0.09242602  0.67964322  1  0.010196  -1.6e-05  0.010745  0.095956  -3.5e-05  3.976811  0.0
C  C160  1  0.43612270  0.40757388  0.17964468  1  -0.140406  -1.9e-05  0.010806  0.096035  -3.5e-05  3.976911  0.0
C  C161  1  0.43612160  0.59242568  0.82035754  1  -0.140454  -1.9e-05  0.01075  0.09591  -3.5e-05  3.976871  0.0
C  C162  1  0.74777081  0.53695072  0.55755531  1  0.481823  0.000271  0.054469  0.100934  0.00017  3.943806  0.0
C  C163  1  0.74776909  0.46304712  0.44244328  1  0.481755  0.000271  0.05439  0.100753  0.00017  3.943734  0.0
C  C164  1  0.25223219  0.03695018  0.94244556  1  0.481885  0.000271  0.054531  0.10101  0.00017  3.943931  0.0
C  C165  1  0.25222925  0.96304834  0.05755777  1  0.481774  0.000271  0.054413  0.100724  0.00017  3.943732  0.0
C  C166  1  0.25223331  0.46304874  0.44244535  1  0.482002  0.000271  0.05447  0.100905  0.00017  3.943799  0.0
C  C167  1  0.25223158  0.53695235  0.55755797  1  0.481732  0.000271  0.054382  0.100711  0.00017  3.943757  0.0
C  C168  1  0.74776848  0.96304864  0.05755569  1  0.482013  0.000271  0.054488  0.10098  0.00017  3.943862  0.0
C  C169  1  0.74776797  0.03695177  0.94244406  1  0.481471  0.000271  0.054399  0.100776  0.00017  3.943738  0.0
C  C170  1  0.62800496  0.53801068  0.55989179  1  0.033384  0.00033  -0.079676  -0.165566  0.000162  3.935746  0.0
C  C171  1  0.62800500  0.46198989  0.44011042  1  0.033342  0.00033  -0.079645  -0.16552  0.000162  3.936069  0.0
C  C172  1  0.37199631  0.03800998  0.94010966  1  0.033419  0.00033  -0.07973  -0.165574  0.000162  3.935899  0.0
C  C173  1  0.37199334  0.96198838  0.05989179  1  0.033331  0.00033  -0.079603  -0.165468  0.000162  3.936143  0.0
C  C174  1  0.37199571  0.46199007  0.44010888  1  0.033348  0.00033  -0.079746  -0.165609  0.000162  3.935845  0.0
C  C175  1  0.37199567  0.53800893  0.55989025  1  0.033361  0.00033  -0.079741  -0.165558  0.000162  3.935848  0.0
C  C176  1  0.62800349  0.96198948  0.05989448  1  0.033537  0.00033  -0.079698  -0.165562  0.000162  3.935793  0.0
C  C177  1  0.62800388  0.03800853  0.94011062  1  0.033226  0.00033  -0.079681  -0.165524  0.000162  3.935866  0.0
C  C178  1  0.56400783  0.49999809  0.49999869  1  0.085498  -5.3e-05  0.012819  0.101064  -7.3e-05  3.955701  0.0
C  C179  1  0.43599214  0.99999728  0.00000343  1  0.085517  -5.3e-05  0.012835  0.101021  -7.3e-05  3.955779  0.0
C  C180  1  0.43599456  0.50000074  0.50000140  1  -0.063966  -5.6e-05  0.012986  0.101248  -7.3e-05  3.955389  0.0
C  C181  1  0.56400493  0.00000089  0.00000061  1  -0.063829  -5.6e-05  0.012943  0.101218  -7.3e-05  3.955429  0.0
C  C182  1  0.25373498  0.62287522  0.29286612  1  0.495134  0.000415  0.047071  0.095361  0.000212  3.964979  0.0
C  C183  1  0.25373508  0.37712266  0.70713778  1  0.49454  0.000416  0.047052  0.095227  0.000212  3.964671  0.0
C  C184  1  0.74626334  0.12287524  0.20713274  1  0.495165  0.000416  0.047102  0.095327  0.000212  3.964979  0.0
C  C185  1  0.74626707  0.87712196  0.79286528  1  0.494569  0.000417  0.047037  0.09523  0.000213  3.964961  0.0
C  C186  1  0.74626741  0.37712296  0.70713224  1  0.495215  0.000416  0.047153  0.09542  0.000212  3.965201  0.0
C  C187  1  0.74626903  0.62287873  0.29286405  1  0.494362  0.000416  0.047046  0.095257  0.000212  3.965004  0.0
C  C188  1  0.25373302  0.87712487  0.79286677  1  0.495142  0.000417  0.047069  0.095278  0.000213  3.964771  0.0
C  C189  1  0.25373187  0.12287558  0.20713539  1  0.494975  0.000416  0.047087  0.095301  0.000212  3.964685  0.0
C  C190  1  0.37273533  0.63097226  0.28643622  1  -0.021017  0.000364  -0.086995  -0.179896  0.000233  3.95531  0.0
C  C191  1  0.37273708  0.36902418  0.71355769  1  -0.020974  0.000364  -0.087004  -0.179784  0.000234  3.955414  0.0
C  C192  1  0.62726297  0.13097178  0.21356320  1  -0.020987  0.000365  -0.086984  -0.179866  0.000234  3.955148  0.0
C  C193  1  0.62726595  0.86902430  0.78644249  1  -0.020936  0.000365  -0.086958  -0.179744  0.000234  3.955402  0.0
C  C194  1  0.62727051  0.36902657  0.71356445  1  -0.021061  0.000365  -0.087039  -0.179868  0.000234  3.955269  0.0
C  C195  1  0.62726962  0.63097721  0.28644008  1  -0.021066  0.000365  -0.086964  -0.179686  0.000234  3.955391  0.0
C  C196  1  0.37273338  0.86902640  0.78643979  1  -0.021069  0.000365  -0.087007  -0.17994  0.000234  3.955065  0.0
C  C197  1  0.37273300  0.13097516  0.21355644  1  -0.021112  0.000365  -0.086983  -0.179767  0.000234  3.955254  0.0
C  C198  1  0.25301255  0.68880923  0.41168029  1  0.462723  0.00055  0.047326  0.096381  0.000323  3.959318  0.0
C  C199  1  0.25301096  0.31119314  0.58832303  1  0.46244  0.00055  0.047412  0.096443  0.000323  3.959469  0.0
C  C200  1  0.74698820  0.18880955  0.08831958  1  0.462556  0.000551  0.047298  0.096334  0.000323  3.959311  0.0
C  C201  1  0.74699135  0.81119278  0.91168017  1  0.462374  0.000551  0.047377  0.096457  0.000323  3.959523  0.0
C  C202  1  0.74698898  0.31119088  0.58831980  1  0.461781  0.000551  0.047242  0.09617  0.000323  3.959157  0.0
C  C203  1  0.74698884  0.68880761  0.41167880  1  0.462762  0.000551  0.047415  0.096581  0.000323  3.959457  0.0
C  C204  1  0.25300988  0.81119120  0.91168108  1  0.462181  0.00055  0.047346  0.096425  0.000323  3.959315  0.0
C  C205  1  0.25300673  0.18880540  0.08832050  1  0.462417  0.00055  0.047375  0.096489  0.000323  3.959468  0.0
C  C206  1  0.37214130  0.69910611  0.41041810  1  0.003142  0.000108  -0.085159  -0.178449  8.3e-05  3.949734  0.0
C  C207  1  0.37214404  0.30089481  0.58957467  1  0.002888  0.000108  -0.085236  -0.178567  8.3e-05  3.949394  0.0
C  C208  1  0.62786114  0.19910467  0.08957945  1  0.003465  0.000109  -0.085154  -0.178447  8.3e-05  3.949847  0.0
C  C209  1  0.62786002  0.80089461  0.91042682  1  0.002914  0.000109  -0.085219  -0.178534  8.3e-05  3.949547  0.0
C  C210  1  0.62786367  0.30089463  0.58957910  1  0.00361  0.000109  -0.085172  -0.178479  8.3e-05  3.949797  0.0
C  C211  1  0.62785835  0.69910722  0.41042253  1  0.002805  0.000109  -0.08523  -0.178636  8.3e-05  3.949593  0.0
C  C212  1  0.37213780  0.80089543  0.91042412  1  0.003603  0.000108  -0.085184  -0.178555  8.3e-05  3.949831  0.0
C  C213  1  0.37214064  0.19910421  0.08957385  1  0.002956  0.000108  -0.085197  -0.178516  8.3e-05  3.949491  0.0
C  C214  1  0.43606435  0.66730724  0.34752401  1  -0.015701  3.6e-05  0.004034  0.090293  -1.2e-05  3.983225  0.0
C  C215  1  0.43606960  0.33269487  0.65248052  1  -0.165865  3.4e-05  0.004147  0.090312  -1.2e-05  3.983081  0.0
C  C216  1  0.56393473  0.16730381  0.15247071  1  -0.166489  3.4e-05  0.004  0.090339  -1.2e-05  3.983273  0.0
C  C217  1  0.56393438  0.83269365  0.84752437  1  -0.165775  3.4e-05  0.004173  0.090404  -1.2e-05  3.983055  0.0
C  C218  1  0.56393890  0.33269350  0.65247319  1  -0.016038  3.6e-05  0.004081  0.090448  -1.2e-05  3.982958  0.0
C  C219  1  0.56393451  0.66730459  0.34752015  1  -0.165779  3.4e-05  0.004164  0.090467  -1.2e-05  3.983118  0.0
C  C220  1  0.43606163  0.83269373  0.84752880  1  -0.015943  3.6e-05  0.004069  0.09053  -1.2e-05  3.983129  0.0
C  C221  1  0.43606456  0.16730390  0.15247804  1  -0.015337  3.6e-05  0.00417  0.090431  -1.2e-05  3.983304  0.0
N  N222  1  0.26709346  0.20271735  0.39638893  1  -1.235587  0.076993  -0.375012  -0.377433  0.034581  2.876027  0.051
N  N223  1  0.26710512  0.79727924  0.60361315  1  -1.235629  0.077043  -0.37489  -0.377245  0.034604  2.875386  0.051
N  N224  1  0.73290121  0.70271651  0.10361034  1  -1.23559  0.07703  -0.374957  -0.377361  0.034598  2.875726  0.051
N  N225  1  0.73289895  0.29728456  0.89638949  1  -1.235641  0.077035  -0.374989  -0.377389  0.034601  2.875622  0.051
N  N226  1  0.73289600  0.79728084  0.60361406  1  -1.23556  0.07705  -0.374889  -0.377192  0.034607  2.875447  0.051
N  N227  1  0.73290072  0.20271831  0.39638810  1  -1.235725  0.077007  -0.374927  -0.377311  0.034588  2.875774  0.051
N  N228  1  0.26709342  0.29728232  0.89638627  1  -1.235957  0.076903  -0.375021  -0.377369  0.03454  2.876536  0.051
N  N229  1  0.26709309  0.70271298  0.10361233  1  -1.236287  0.076844  -0.3751  -0.377518  0.034513  2.876875  0.051
N  N230  1  0.99999979  0.29462527  0.23820860  1  -1.409716  0.008013  -0.387831  -0.373114  0.003436  3.445816  0.005
N  N231  1  0.00000260  0.70537612  0.76178975  1  -1.409593  0.00801  -0.387805  -0.373027  0.003435  3.445695  0.005
N  N232  1  0.99999987  0.79462306  0.26178745  1  -1.409529  0.008015  -0.387717  -0.372982  0.003437  3.445859  0.005
N  N233  1  0.99999825  0.20537764  0.73820904  1  -1.40966  0.008015  -0.387821  -0.37303  0.003437  3.445836  0.005
N  N234  1  0.00000165  0.38029767  0.45250435  1  -1.35775  0.025566  -0.362252  -0.352135  0.011688  3.368035  0.017
N  N235  1  0.99999902  0.61970180  0.54749516  1  -1.357719  0.025572  -0.362299  -0.352201  0.01169  3.367957  0.017
N  N236  1  0.00000031  0.88029537  0.04749469  1  -1.357637  0.025585  -0.3624  -0.352372  0.011696  3.368022  0.017
N  N237  1  0.99999864  0.11970281  0.95250483  1  -1.357658  0.02558  -0.362256  -0.352126  0.011694  3.367971  0.017
N  N238  1  0.99999958  0.12741018  0.55517719  1  -1.409922  0.004263  -0.389537  -0.379758  0.001498  3.439291  0.002
N  N239  1  0.99999940  0.87259052  0.44481930  1  -1.410099  0.004263  -0.389463  -0.379583  0.001499  3.439214  0.002
N  N240  1  0.99999978  0.62740880  0.94482047  1  -1.410048  0.004265  -0.389496  -0.379629  0.0015  3.439307  0.002
N  N241  1  0.00000089  0.37259067  0.05517730  1  -1.409994  0.004268  -0.389502  -0.379707  0.001501  3.43914  0.002
N  N242  1  0.99999615  0.01876016  0.31783938  1  -1.381622  0.040039  -0.377215  -0.363332  0.018503  3.387668  0.028
N  N243  1  0.00000021  0.98123802  0.68216013  1  -1.381793  0.040028  -0.377286  -0.363469  0.018498  3.387697  0.028
N  N244  1  0.99999903  0.51876073  0.18216303  1  -1.381614  0.040057  -0.377248  -0.363419  0.018512  3.387532  0.028
N  N245  1  0.99999823  0.48123869  0.81783519  1  -1.381621  0.040038  -0.377263  -0.36341  0.018503  3.38775  0.028
N  N246  1  0.19342427  0.10143460  0.67534486  1  -1.241817  0.001526  -0.308053  -0.227738  0.000844  3.493539  0.001
N  N247  1  0.19342565  0.89856272  0.32465188  1  -1.241916  0.001527  -0.307977  -0.227662  0.000844  3.49364  0.001
N  N248  1  0.80657511  0.60143438  0.82465530  1  -1.241783  0.001527  -0.308068  -0.227797  0.000844  3.493347  0.001
N  N249  1  0.80657458  0.39856659  0.17534525  1  -1.241911  0.001528  -0.308003  -0.227692  0.000844  3.493631  0.001
N  N250  1  0.80657467  0.89856551  0.32465581  1  -1.241747  0.001527  -0.308088  -0.227764  0.000844  3.493219  0.001
N  N251  1  0.80657416  0.10143610  0.67534879  1  -1.241898  0.001526  -0.308009  -0.227761  0.000844  3.493537  0.001
N  N252  1  0.19342383  0.39856765  0.17534421  1  -1.24179  0.001528  -0.308068  -0.22786  0.000845  3.493485  0.001
N  N253  1  0.19342695  0.60143480  0.82465368  1  -1.241946  0.001527  -0.30799  -0.227737  0.000844  3.493591  0.001
N  N254  1  0.80756795  0.50000048  0.50000085  1  -1.237416  0.000753  -0.309101  -0.225401  0.00041  3.488503  0.001
N  N255  1  0.19243169  0.00000052  0.99999836  1  -1.237506  0.000754  -0.30915  -0.225435  0.000411  3.488598  0.001
N  N256  1  0.19243099  0.49999898  0.49999866  1  -1.23756  0.000754  -0.309109  -0.225415  0.00041  3.488407  0.001
N  N257  1  0.80756812  0.99999895  0.00000231  1  -1.237243  0.000754  -0.30917  -0.225531  0.000411  3.488651  0.001
N  N258  1  0.19423610  0.64933112  0.35501584  1  -1.212065  0.000266  -0.303775  -0.228978  8.8e-05  3.382426  0.0
N  N259  1  0.19423451  0.35066620  0.64497858  1  -1.211787  0.000266  -0.30379  -0.22894  8.8e-05  3.382331  0.0
N  N260  1  0.80576388  0.14933186  0.14498470  1  -1.212078  0.000266  -0.303758  -0.228915  8.7e-05  3.382399  0.0
N  N261  1  0.80576856  0.85066398  0.85502048  1  -1.211901  0.000266  -0.303816  -0.229029  8.8e-05  3.382564  0.0
N  N262  1  0.80576715  0.35066834  0.64498483  1  -1.211784  0.000266  -0.303698  -0.228845  8.7e-05  3.382261  0.0
N  N263  1  0.80576874  0.64933647  0.35502035  1  -1.211878  0.000266  -0.303823  -0.229079  8.8e-05  3.382541  0.0
N  N264  1  0.19423334  0.85066632  0.85501655  1  -1.212129  0.000266  -0.303748  -0.228935  8.7e-05  3.382372  0.0
N  N265  1  0.19423038  0.14933549  0.14497845  1  -1.211919  0.000266  -0.303787  -0.228991  8.7e-05  3.382545  0.0
O  O266  1  0.00000047  0.44418043  0.61467730  1  -1.253715  -0.00029  -0.595623  -0.751877  -0.000299  2.210832  0.0
O  O267  1  0.00000016  0.55581972  0.38532234  1  -1.253492  -0.00029  -0.595616  -0.751864  -0.000299  2.210818  0.0
O  O268  1  0.99999892  0.94418107  0.88532273  1  -1.253712  -0.00029  -0.595599  -0.751839  -0.000299  2.21079  0.0
O  O269  1  0.00000002  0.05581903  0.11467736  1  -1.253714  -0.00029  -0.595557  -0.751758  -0.000299  2.210891  0.0
