# generated using pymatgen
data_CdH4C2S(NO)4
_symmetry_space_group_name_H-M   'P 1'
_cell_length_a   6.74308368
_cell_length_b   6.68867932
_cell_length_c   14.04920386
_cell_angle_alpha   90.00002945
_cell_angle_beta   90.00008370
_cell_angle_gamma   89.99995144
_symmetry_Int_Tables_number   1
_chemical_formula_structural   CdH4C2S(NO)4
_chemical_formula_sum   'Cd4 H16 C8 S4 N16 O16'
_cell_volume   633.65175001
_cell_formula_units_Z   4
loop_
 _symmetry_equiv_pos_site_id
 _symmetry_equiv_pos_as_xyz
  1  'x, y, z'
loop_
 _atom_site_type_symbol
 _atom_site_label
 _atom_site_symmetry_multiplicity
 _atom_site_fract_x
 _atom_site_fract_y
 _atom_site_fract_z
 _atom_site_occupancy
 _atom_site_hle17_bader_spin_density
 _atom_site_hle17_ddec_charge
 _atom_site_hle17_ddec_spin_density
 _atom_site_hle17_ddec_sum_bond_order
 _atom_site_hle17_magmom
 _atom_site_hse06_10hf_bader_spin_density
 _atom_site_hse06_10hf_ddec_charge
 _atom_site_hse06_10hf_ddec_spin_density
 _atom_site_hse06_10hf_ddec_sum_bond_order
 _atom_site_hse06_10hf_magmom
 _atom_site_hse06_bader_spin_density
 _atom_site_hse06_ddec_charge
 _atom_site_hse06_ddec_spin_density
 _atom_site_hse06_ddec_sum_bond_order
 _atom_site_hse06_magmom
 _atom_site_pbe_bader_spin_density
 _atom_site_pbe_cm5_charge
 _atom_site_pbe_ddec_charge
 _atom_site_pbe_ddec_spin_density
 _atom_site_pbe_ddec_sum_bond_order
 _atom_site_pbe_magmom
Cd  Cd0  1  0.17378318  0.55937226  0.61095717  1  0  1.248943  0  1.599053  0  0  1.064677  0  2.041077  0  0  1.11553  0  1.990211  0  0  0.828842  1.027853  0  2.076385  0
Cd  Cd1  1  0.82621580  0.55937039  0.38904162  1  0  1.24896  0  1.599  0  0  1.064683  0  2.04103  0  0  1.115538  0  1.99016  0  0  0.828846  1.02785  0  2.076337  0
Cd  Cd2  1  0.32621566  0.55937343  0.11095807  1  0  1.248946  0  1.599052  0  0  1.064676  0  2.041079  0  0  1.11553  0  1.99021  0  0  0.828857  1.027842  0  2.076386  0
Cd  Cd3  1  0.67378184  0.55937071  0.88904214  1  0  1.248915  0  1.599025  0  0  1.064669  0  2.041043  0  0  1.115526  0  1.990175  0  0  0.828855  1.027834  0  2.076353  0
H  H4  1  0.00052009  0.25092139  0.76680434  1  0  0.309888  0  0.917747  0  0  0.285517  0  0.987154  0  0  0.293755  0  0.980843  0  0  0.321735  0.279735  0  0.991637  0
H  H5  1  0.99948064  0.25092369  0.23319509  1  0  0.30988  0  0.917735  0  0  0.285486  0  0.98714  0  0  0.293721  0  0.980833  0  0  0.321731  0.279705  0  0.991618  0
H  H6  1  0.49948245  0.25092391  0.26680465  1  0  0.30986  0  0.917744  0  0  0.285463  0  0.987161  0  0  0.293696  0  0.980854  0  0  0.321721  0.279681  0  0.991639  0
H  H7  1  0.50051977  0.25092416  0.73319407  1  0  0.309801  0  0.917848  0  0  0.285444  0  0.987224  0  0  0.293675  0  0.980919  0  0  0.321717  0.279667  0  0.991701  0
H  H8  1  0.32588269  0.17569250  0.46828931  1  0  0.34949  0  0.908761  0  0  0.328285  0  0.975547  0  0  0.335863  0  0.969128  0  0  0.301285  0.322968  0  0.980022  0
H  H9  1  0.67411960  0.17569090  0.53171011  1  0  0.349441  0  0.908786  0  0  0.328254  0  0.975544  0  0  0.33583  0  0.969129  0  0  0.30128  0.322941  0  0.980018  0
H  H10  1  0.17411904  0.17569582  0.96828911  1  0  0.349483  0  0.908716  0  0  0.328277  0  0.975502  0  0  0.335856  0  0.969083  0  0  0.30128  0.322959  0  0.979982  0
H  H11  1  0.82588027  0.17569057  0.03170959  1  0  0.349454  0  0.908766  0  0  0.328256  0  0.975533  0  0  0.335834  0  0.969114  0  0  0.301285  0.322939  0  0.980009  0
H  H12  1  0.32168251  0.91784051  0.47457232  1  0  0.347404  0  0.892894  0  0  0.32707  0  0.960179  0  0  0.333949  0  0.954578  0  0  0.304755  0.322186  0  0.964183  0
H  H13  1  0.67831764  0.91784039  0.52542728  1  0  0.34747  0  0.892907  0  0  0.327147  0  0.960168  0  0  0.334025  0  0.954565  0  0  0.304786  0.322264  0  0.964174  0
H  H14  1  0.17831710  0.91784382  0.97457284  1  0  0.347398  0  0.892917  0  0  0.327063  0  0.960202  0  0  0.333942  0  0.9546  0  0  0.304766  0.322178  0  0.96421  0
H  H15  1  0.82168156  0.91784006  0.02542676  1  0  0.347397  0  0.8929  0  0  0.327062  0  0.960185  0  0  0.33394  0  0.954584  0  0  0.304744  0.322178  0  0.964189  0
H  H16  1  0.95559917  0.86979803  0.76504807  1  0  0.111988  0  0.979439  0  0  0.119823  0  1.042508  0  0  0.122128  0  1.03939  0  0  0.138434  0.118011  0  1.044825  0
H  H17  1  0.04440250  0.86979812  0.23495080  1  0  0.111977  0  0.979471  0  0  0.119816  0  1.042546  0  0  0.122111  0  1.03944  0  0  0.138423  0.118014  0  1.044847  0
H  H18  1  0.54440228  0.86979794  0.26504877  1  0  0.11201  0  0.979424  0  0  0.119829  0  1.042509  0  0  0.122133  0  1.039391  0  0  0.138432  0.118015  0  1.044824  0
H  H19  1  0.45559643  0.86979972  0.73494939  1  0  0.111963  0  0.979471  0  0  0.119795  0  1.042548  0  0  0.122092  0  1.039438  0  0  0.138412  0.117995  0  1.044851  0
C  C20  1  0.01795088  0.95997015  0.70828937  1  0  0.263813  0  3.655416  0  0  0.191158  0  3.934165  0  0  0.2112  0  3.94139  0  0  0.163433  0.178062  0  3.929023  0
C  C21  1  0.98205071  0.95996953  0.29171166  1  0  0.263792  0  3.655475  0  0  0.191066  0  3.934188  0  0  0.211111  0  3.94142  0  0  0.163402  0.177963  0  3.929034  0
C  C22  1  0.48205086  0.95997119  0.20828896  1  0  0.263798  0  3.655424  0  0  0.191136  0  3.934107  0  0  0.211173  0  3.941334  0  0  0.163431  0.178039  0  3.928961  0
C  C23  1  0.51794925  0.95996849  0.79171065  1  0  0.263791  0  3.655391  0  0  0.191147  0  3.934096  0  0  0.211193  0  3.941328  0  0  0.163443  0.178041  0  3.92895  0
C  C24  1  0.17263700  0.05738676  0.58194550  1  0  0.616558  0  3.799923  0  0  0.563909  0  4.082935  0  0  0.590211  0  4.09089  0  0  0.334933  0.546101  0  4.077121  0
C  C25  1  0.82736539  0.05738640  0.41805459  1  0  0.616652  0  3.799745  0  0  0.563884  0  4.082923  0  0  0.590185  0  4.090879  0  0  0.33494  0.546075  0  4.07711  0
C  C26  1  0.32736516  0.05738942  0.08194640  1  0  0.616466  0  3.799682  0  0  0.563769  0  4.082789  0  0  0.59007  0  4.090746  0  0  0.334858  0.545961  0  4.076976  0
C  C27  1  0.67263426  0.05738673  0.91805440  1  0  0.616445  0  3.799893  0  0  0.56378  0  4.082963  0  0  0.590082  0  4.090918  0  0  0.334875  0.54597  0  4.077149  0
S  S28  1  0.65737056  0.54410598  0.62676179  1  0  1.578304  0  5.811675  0  0  1.451294  0  6.347714  0  0  1.507862  0  6.31215  0  0  0.556036  1.412075  0  6.371144  0
S  S29  1  0.34263139  0.54410598  0.37323913  1  0  1.578319  0  5.81175  0  0  1.45127  0  6.347821  0  0  1.507844  0  6.312249  0  0  0.555981  1.412044  0  6.371252  0
S  S30  1  0.84262927  0.54410564  0.12676200  1  0  1.57835  0  5.811699  0  0  1.451312  0  6.34776  0  0  1.507882  0  6.312189  0  0  0.556016  1.412083  0  6.371197  0
S  S31  1  0.15736676  0.54410781  0.87323964  1  0  1.57832  0  5.811839  0  0  1.451295  0  6.347886  0  0  1.507872  0  6.312307  0  0  0.555945  1.412064  0  6.371327  0
N  N32  1  0.12475682  0.22553958  0.62994609  1  0  -0.41492  0  3.006884  0  0  -0.356558  0  3.291637  0  0  -0.379062  0  3.305246  0  0  -0.27168  -0.340923  0  3.282075  0
N  N33  1  0.87524542  0.22553913  0.37005405  1  0  -0.414898  0  3.00689  0  0  -0.356542  0  3.291639  0  0  -0.37905  0  3.305242  0  0  -0.271664  -0.34091  0  3.282076  0
N  N34  1  0.37524533  0.22554220  0.12994560  1  0  -0.414794  0  3.006755  0  0  -0.356443  0  3.291456  0  0  -0.378951  0  3.305062  0  0  -0.271604  -0.340811  0  3.281893  0
N  N35  1  0.62475543  0.22554100  0.87005382  1  0  -0.414767  0  3.006791  0  0  -0.356414  0  3.29154  0  0  -0.378929  0  3.305151  0  0  -0.271598  -0.340782  0  3.281978  0
N  N36  1  0.02403896  0.15795980  0.70862452  1  0  -0.168744  0  3.451389  0  0  -0.114787  0  3.701078  0  0  -0.127565  0  3.717044  0  0  -0.284285  -0.106535  0  3.690357  0
N  N37  1  0.97596334  0.15796069  0.29137631  1  0  -0.168819  0  3.451507  0  0  -0.11473  0  3.701068  0  0  -0.127494  0  3.717017  0  0  -0.284315  -0.106478  0  3.690343  0
N  N38  1  0.47596349  0.15796085  0.20862411  1  0  -0.168805  0  3.451552  0  0  -0.114733  0  3.701095  0  0  -0.127496  0  3.717049  0  0  -0.284313  -0.10648  0  3.690369  0
N  N39  1  0.52403584  0.15796263  0.79137530  1  0  -0.168756  0  3.45142  0  0  -0.114786  0  3.70109  0  0  -0.127547  0  3.717046  0  0  -0.284339  -0.106534  0  3.690366  0
N  N40  1  0.10833230  0.88985159  0.63016468  1  0  -0.536382  0  3.116197  0  0  -0.456063  0  3.401891  0  0  -0.483526  0  3.411072  0  0  -0.36292  -0.437022  0  3.394852  0
N  N41  1  0.89166639  0.88985114  0.36983562  1  0  -0.536375  0  3.116173  0  0  -0.455983  0  3.401867  0  0  -0.483447  0  3.41105  0  0  -0.362872  -0.436943  0  3.39483  0
N  N42  1  0.39166779  0.88985121  0.13016492  1  0  -0.536325  0  3.116103  0  0  -0.456031  0  3.401835  0  0  -0.483495  0  3.411018  0  0  -0.362877  -0.436991  0  3.394797  0
N  N43  1  0.60833238  0.88985002  0.86983467  1  0  -0.536263  0  3.116169  0  0  -0.455961  0  3.401862  0  0  -0.483422  0  3.411042  0  0  -0.362851  -0.436919  0  3.394827  0
N  N44  1  0.26457701  0.05028213  0.49761406  1  0  -0.679554  0  3.064759  0  0  -0.641298  0  3.304093  0  0  -0.66152  0  3.299449  0  0  -0.581092  -0.627176  0  3.307116  0
N  N45  1  0.73542539  0.05028045  0.50238603  1  0  -0.679602  0  3.064715  0  0  -0.641339  0  3.304115  0  0  -0.66156  0  3.299472  0  0  -0.58113  -0.627222  0  3.307144  0
N  N46  1  0.23542492  0.05028390  0.99761391  1  0  -0.679555  0  3.064704  0  0  -0.641275  0  3.304058  0  0  -0.661496  0  3.299413  0  0  -0.581119  -0.62716  0  3.307091  0
N  N47  1  0.76457451  0.05028166  0.00238475  1  0  -0.679517  0  3.064764  0  0  -0.641246  0  3.304102  0  0  -0.661464  0  3.299454  0  0  -0.581092  -0.627126  0  3.307127  0
O  O48  1  0.51844738  0.71277311  0.60875505  1  0  -0.741013  0  1.995375  0  0  -0.675132  0  2.252078  0  0  -0.699131  0  2.236309  0  0  -0.354776  -0.658198  0  2.262474  0
O  O49  1  0.48155147  0.71277450  0.39124449  1  0  -0.741009  0  1.995442  0  0  -0.675124  0  2.252179  0  0  -0.699124  0  2.236407  0  0  -0.354767  -0.658191  0  2.262578  0
O  O50  1  0.98155374  0.71276966  0.10875749  1  0  -0.740977  0  1.995379  0  0  -0.675091  0  2.252113  0  0  -0.699086  0  2.236339  0  0  -0.354753  -0.65816  0  2.262513  0
O  O51  1  0.01844807  0.71277645  0.89124633  1  0  -0.740966  0  1.995516  0  0  -0.675113  0  2.252243  0  0  -0.699117  0  2.236477  0  0  -0.354729  -0.658178  0  2.262645  0
O  O52  1  0.75589387  0.56097180  0.72110027  1  0  -0.759598  0  1.994922  0  0  -0.699968  0  2.284598  0  0  -0.723479  0  2.264369  0  0  -0.367983  -0.683263  0  2.29802  0
O  O53  1  0.24410659  0.56096729  0.27889995  1  0  -0.75961  0  1.994932  0  0  -0.699963  0  2.284619  0  0  -0.723473  0  2.264387  0  0  -0.367954  -0.683258  0  2.298039  0
O  O54  1  0.74410623  0.56097304  0.22110041  1  0  -0.759628  0  1.994911  0  0  -0.69999  0  2.284596  0  0  -0.723498  0  2.264363  0  0  -0.367997  -0.683285  0  2.298016  0
O  O55  1  0.25588978  0.56097204  0.77890052  1  0  -0.759615  0  1.994897  0  0  -0.699976  0  2.28461  0  0  -0.723489  0  2.264379  0  0  -0.367946  -0.683272  0  2.298035  0
O  O56  1  0.54444456  0.35305037  0.61923034  1  0  -0.742097  0  1.996594  0  0  -0.681238  0  2.24654  0  0  -0.70321  0  2.230986  0  0  -0.351952  -0.665889  0  2.257052  0
O  O57  1  0.45555905  0.35305178  0.38077267  1  0  -0.742173  0  1.996606  0  0  -0.681311  0  2.246618  0  0  -0.703297  0  2.231071  0  0  -0.351947  -0.665942  0  2.25711  0
O  O58  1  0.95555394  0.35305143  0.11922992  1  0  -0.742184  0  1.996648  0  0  -0.681317  0  2.24663  0  0  -0.703302  0  2.231082  0  0  -0.351954  -0.665949  0  2.257119  0
O  O59  1  0.04444078  0.35305370  0.88077168  1  0  -0.742185  0  1.996639  0  0  -0.681338  0  2.246668  0  0  -0.703324  0  2.231118  0  0  -0.351922  -0.66594  0  2.257114  0
O  O60  1  0.82019358  0.54747874  0.55325591  1  0  -0.784045  0  2.073144  0  0  -0.70666  0  2.371348  0  0  -0.732969  0  2.349985  0  0  -0.374761  -0.687953  0  2.385373  0
O  O61  1  0.17980689  0.54747895  0.44674502  1  0  -0.784022  0  2.073072  0  0  -0.706621  0  2.371264  0  0  -0.732932  0  2.349905  0  0  -0.37475  -0.687921  0  2.385298  0
O  O62  1  0.67980751  0.54748003  0.05325528  1  0  -0.784038  0  2.073097  0  0  -0.70665  0  2.371302  0  0  -0.73296  0  2.349942  0  0  -0.374768  -0.687947  0  2.385333  0
O  O63  1  0.32019296  0.54747915  0.94674493  1  0  -0.784041  0  2.073085  0  0  -0.706635  0  2.371265  0  0  -0.732947  0  2.349908  0  0  -0.374769  -0.687934  0  2.385297  0
