# generated using pymatgen
data_FeNiH4(C4N3)2
_symmetry_space_group_name_H-M   'P 1'
_cell_length_a   7.12000280
_cell_length_b   7.25990421
_cell_length_c   7.16306043
_cell_angle_alpha   89.99977760
_cell_angle_beta   90.00047673
_cell_angle_gamma   90.01216298
_symmetry_Int_Tables_number   1
_chemical_formula_structural   FeNiH4(C4N3)2
_chemical_formula_sum   'Fe1 Ni1 H4 C8 N6'
_cell_volume   370.26244092
_cell_formula_units_Z   1
loop_
 _symmetry_equiv_pos_site_id
 _symmetry_equiv_pos_as_xyz
  1  'x, y, z'
loop_
 _atom_site_type_symbol
 _atom_site_label
 _atom_site_symmetry_multiplicity
 _atom_site_fract_x
 _atom_site_fract_y
 _atom_site_fract_z
 _atom_site_occupancy
 _atom_site_pbe_bader_charge
 _atom_site_pbe_bader_spin_density
 _atom_site_pbe_cm5_charge
 _atom_site_pbe_ddec_charge
 _atom_site_pbe_ddec_spin_density
 _atom_site_pbe_ddec_sum_bond_order
 _atom_site_pbe_magmom
Fe  Fe0  1  0.99999960  0.00000532  0.99999429  1  1.470429  3.660511  0.803179  0.819324  3.878958  2.948397  3.636
Ni  Ni1  1  0.00000024  0.50000289  0.49999200  1  0.616462  0.033985  0.409148  0.12562  0.029272  3.873964  0.036
H  H2  1  0.32244062  0.71412087  0.00001109  1  0.129251  0.002875  0.126027  0.101858  0.000854  0.990269  0.002
H  H3  1  0.32222533  0.28567580  0.00001193  1  0.130837  0.002867  0.126173  0.102009  0.000858  0.990188  0.002
H  H4  1  0.67777477  0.71431846  0.00001116  1  0.130785  0.002867  0.126167  0.102015  0.000858  0.990189  0.002
H  H5  1  0.67755808  0.28587476  0.00001061  1  0.129178  0.002875  0.126028  0.101875  0.000855  0.990279  0.002
C  C6  1  0.00010130  0.67905382  0.31944871  1  0.810082  0.015953  0.029911  0.064544  0.008944  3.799907  0.019
C  C7  1  0.99989879  0.32094404  0.68053244  1  0.809435  0.015959  0.02993  0.064492  0.008944  3.800303  0.019
C  C8  1  0.00010141  0.67905726  0.68053041  1  0.809408  0.015954  0.029969  0.064614  0.008941  3.800261  0.019
C  C9  1  0.99990290  0.32094886  0.31945214  1  0.810038  0.015954  0.029965  0.064637  0.008944  3.800185  0.019
C  C10  1  0.40262968  0.84193825  0.00001117  1  0.377501  -0.013297  0.058085  0.049437  -0.015975  3.915062  -0.005
C  C11  1  0.40249269  0.15797329  0.00000693  1  0.548323  -0.012566  0.058339  0.049159  -0.015932  3.914993  -0.005
C  C12  1  0.59750742  0.84202097  0.00000639  1  0.548292  -0.012565  0.058354  0.049165  -0.015932  3.915009  -0.005
C  C13  1  0.59737043  0.15805876  0.00001053  1  0.37636  -0.013283  0.058072  0.049403  -0.015975  3.914962  -0.005
N  N14  1  0.00010170  0.79359963  0.20408858  1  -1.333432  0.057464  -0.364577  -0.359219  0.026557  3.379661  0.033
N  N15  1  0.99989699  0.20639960  0.79589118  1  -1.332731  0.057457  -0.364633  -0.359203  0.026554  3.380003  0.033
N  N16  1  0.00010137  0.79360401  0.79589009  1  -1.33271  0.057453  -0.364666  -0.359337  0.026556  3.379963  0.033
N  N17  1  0.99990012  0.20640625  0.20409246  1  -1.333371  0.057464  -0.364629  -0.359303  0.026555  3.379869  0.033
N  N18  1  0.30364081  0.99988435  0.00000626  1  -1.182085  0.026037  -0.305423  -0.185538  0.005084  3.536896  0.021
N  N19  1  0.69635789  0.00011128  0.00000427  1  -1.18205  0.026038  -0.305418  -0.185552  0.005084  3.536807  0.021
