# generated using pymatgen
data_CuMo4H24C18N2O13
_symmetry_space_group_name_H-M   'P 1'
_cell_length_a   10.90145347
_cell_length_b   11.98401634
_cell_length_c   12.87382048
_cell_angle_alpha   98.20871082
_cell_angle_beta   113.74864555
_cell_angle_gamma   111.69125586
_symmetry_Int_Tables_number   1
_chemical_formula_structural   CuMo4H24C18N2O13
_chemical_formula_sum   'Cu2 Mo8 H48 C36 N4 O26'
_cell_volume   1343.72773201
_cell_formula_units_Z   2
loop_
 _symmetry_equiv_pos_site_id
 _symmetry_equiv_pos_as_xyz
  1  'x, y, z'
loop_
 _atom_site_type_symbol
 _atom_site_label
 _atom_site_symmetry_multiplicity
 _atom_site_fract_x
 _atom_site_fract_y
 _atom_site_fract_z
 _atom_site_occupancy
 _atom_site_pbe_bader_charge
 _atom_site_pbe_bader_spin_density
 _atom_site_pbe_cm5_charge
 _atom_site_pbe_ddec_charge
 _atom_site_pbe_ddec_spin_density
 _atom_site_pbe_ddec_sum_bond_order
 _atom_site_pbe_magmom
Cu  Cu0  1  0.53764966  0.37986313  0.94531670  1  1.091014  0.556516  0.764868  0.899624  0.747304  2.306646  0.555
Cu  Cu1  1  0.46235349  0.62012749  0.05468732  1  1.091088  -0.556506  0.764807  0.899613  -0.747295  2.306815  -0.555
Mo  Mo2  1  0.86707482  0.65373562  0.11549658  1  2.605134  0.007394  1.530023  2.152611  0.007232  4.587454  0.008
Mo  Mo3  1  0.13292474  0.34625407  0.88449677  1  2.605637  -0.007396  1.530004  2.152564  -0.007234  4.587422  -0.008
Mo  Mo4  1  0.07332223  0.65752027  0.98716257  1  2.591218  0.001466  1.520518  2.167495  0.001356  4.643531  0.001
Mo  Mo5  1  0.92666840  0.34248377  0.01283670  1  2.591203  -0.001466  1.520526  2.167545  -0.001356  4.643572  -0.001
Mo  Mo6  1  0.15839635  0.64329438  0.32063017  1  2.584312  -6e-06  1.524989  2.122377  -1.2e-05  4.575607  0.0
Mo  Mo7  1  0.84159299  0.35670201  0.67936762  1  2.584342  6e-06  1.524943  2.122223  1.2e-05  4.575727  0.0
Mo  Mo8  1  0.70748753  0.50964246  0.79454155  1  2.605396  0.006599  1.531554  2.138697  0.006607  4.606528  0.008
Mo  Mo9  1  0.29251992  0.49035581  0.20546652  1  2.605569  -0.006602  1.531661  2.138906  -0.006609  4.606189  -0.008
H  H10  1  0.66346125  0.46576624  0.21874723  1  0.127646  0.003818  0.125734  0.111697  0.001903  0.980625  0.003
H  H11  1  0.33654200  0.53424065  0.78125514  1  0.127664  -0.003813  0.125728  0.111685  -0.0019  0.98094  -0.003
H  H12  1  0.59241089  0.36186101  0.35388136  1  0.129614  0.001362  0.119758  0.139095  0.00071  0.991424  0.001
H  H13  1  0.40759097  0.63813632  0.64611537  1  0.129672  -0.001363  0.119782  0.139086  -0.00071  0.991312  -0.001
H  H14  1  0.28836637  0.01167157  0.04710348  1  0.134162  0.001743  0.112008  0.134186  0.000899  1.039731  0.001
H  H15  1  0.71163773  0.98833150  0.95289711  1  0.134298  -0.001743  0.111999  0.134158  -0.000899  1.039755  -0.001
H  H16  1  0.20559836  0.92899039  0.86602145  1  0.121021  0.001781  0.113027  0.133187  0.000922  1.033228  0.001
H  H17  1  0.79440665  0.07101077  0.13397608  1  0.120988  -0.001782  0.11302  0.133163  -0.000922  1.03319  -0.001
H  H18  1  0.19498234  0.00483550  0.54563164  1  0.078084  0.001483  0.117331  0.1287  0.000751  0.998161  0.001
H  H19  1  0.80502586  0.99516947  0.45437448  1  0.078083  -0.001484  0.117305  0.128669  -0.000752  0.997964  -0.001
H  H20  1  0.39160914  0.22886795  0.67636029  1  0.116732  0.003768  0.126827  0.10723  0.001865  0.985644  0.003
H  H21  1  0.60839510  0.77113895  0.32363931  1  0.117047  -0.003761  0.126842  0.107322  -0.001861  0.985735  -0.003
H  H22  1  0.38045622  0.26014029  0.39985401  1  0.05177  -3.6e-05  0.087303  0.134206  -2e-05  1.020784  0.0
H  H23  1  0.61954519  0.73985800  0.60014502  1  0.051731  3.6e-05  0.087301  0.134192  2e-05  1.020842  0.0
H  H24  1  0.54999252  0.24647217  0.46198581  1  0.003714  4.6e-05  0.081178  0.101424  3.2e-05  1.082375  0.0
H  H25  1  0.45000890  0.75352612  0.53801478  1  0.003721  -4.6e-05  0.081177  0.101415  -3.2e-05  1.082406  0.0
H  H26  1  0.38699222  0.13439215  0.45801708  1  0.032351  4.8e-05  0.08928  0.129761  2.3e-05  0.993442  0.0
H  H27  1  0.61300928  0.86560804  0.54198535  1  0.032321  -4.7e-05  0.08924  0.129703  -2.3e-05  0.9935  0.0
H  H28  1  0.41157208  0.94720994  0.21455090  1  0.021515  5.9e-05  0.08014  0.115307  4.1e-05  1.028547  0.0
H  H29  1  0.58842373  0.05278549  0.78544817  1  0.021545  -5.9e-05  0.080124  0.115244  -4.1e-05  1.028622  0.0
H  H30  1  0.39727120  0.94980038  0.34775919  1  0.069484  -4.6e-05  0.090576  0.145342  -1.9e-05  1.008465  0.0
H  H31  1  0.60272768  0.05019695  0.65224119  1  0.069523  4.6e-05  0.090581  0.145324  1.9e-05  1.00845  0.0
H  H32  1  0.56627914  0.06247302  0.35738536  1  0.019503  7e-06  0.080867  0.117675  1e-06  1.043423  0.0
H  H33  1  0.43371967  0.93752240  0.64261551  1  0.019562  -7e-06  0.080852  0.117645  -1e-06  1.043422  0.0
H  H34  1  0.05373579  0.80528353  0.44856468  1  0.036805  5.5e-05  0.083721  0.117185  3.4e-05  1.066195  0.0
H  H35  1  0.94626222  0.19471764  0.55143282  1  0.036824  -5.5e-05  0.083708  0.117139  -3.4e-05  1.066236  0.0
H  H36  1  0.91747771  0.84160451  0.46589090  1  0.006717  3e-06  0.079515  0.106419  6e-06  1.046934  0.0
H  H37  1  0.08252178  0.15839569  0.53410852  1  0.006727  -3e-06  0.079488  0.106362  -6e-06  1.046906  0.0
H  H38  1  0.89162785  0.68282509  0.43789696  1  0.035567  5.6e-05  0.091142  0.135946  3.1e-05  0.985171  0.0
H  H39  1  0.10837116  0.31717608  0.56210088  1  0.035669  -5.6e-05  0.091148  0.135924  -3.1e-05  0.985184  0.0
H  H40  1  0.85405940  0.66773315  0.60868373  1  0.062358  -3e-05  0.090689  0.139181  -1.8e-05  1.004553  0.0
H  H41  1  0.14594309  0.33226705  0.39131670  1  0.062322  3e-05  0.090692  0.139157  1.8e-05  1.004569  0.0
H  H42  1  0.98725270  0.77601740  0.75718152  1  0.022713  6.6e-05  0.082582  0.113719  4.1e-05  1.045952  0.0
H  H43  1  0.01274978  0.22398280  0.24281736  1  0.022702  -6.6e-05  0.082615  0.113753  -4.1e-05  1.045863  0.0
H  H44  1  0.88047689  0.82679150  0.64738149  1  0.018655  9e-06  0.085289  0.120225  -4e-06  1.026426  0.0
H  H45  1  0.11952306  0.17320775  0.35261796  1  0.018634  -9e-06  0.085283  0.120211  4e-06  1.026435  0.0
H  H46  1  0.05798443  0.62382774  0.59779721  1  0.078068  -6.7e-05  0.09272  0.145933  -3.2e-05  0.994726  0.0
H  H47  1  0.94201805  0.37617246  0.40220166  1  0.077748  6.7e-05  0.092723  0.145953  3.2e-05  0.994719  0.0
H  H48  1  0.22508290  0.74936069  0.61608837  1  0.038828  9e-06  0.083804  0.116807  -1e-06  1.045377  0.0
H  H49  1  0.77491751  0.25063760  0.38391032  1  0.038855  -9e-06  0.083818  0.116852  1e-06  1.045384  0.0
H  H50  1  0.19917554  0.73991396  0.74332268  1  0.006424  6.1e-05  0.082505  0.11805  4.7e-05  1.016607  0.0
H  H51  1  0.80082395  0.26008624  0.25667596  1  0.006388  -6.1e-05  0.08252  0.118108  -4.7e-05  1.016612  0.0
H  H52  1  0.14941385  0.09093800  0.19283647  1  0.016673  1.8e-05  0.086017  0.124479  4e-06  1.004913  0.0
H  H53  1  0.85058657  0.90906029  0.80716301  1  0.016652  -1.8e-05  0.086045  0.124529  -4e-06  1.004848  0.0
H  H54  1  0.15700407  0.95327497  0.12938019  1  0.018328  7.3e-05  0.081976  0.111906  4.3e-05  1.046055  0.0
H  H55  1  0.84299634  0.04672332  0.87061929  1  0.01834  -7.3e-05  0.081984  0.111929  -4.3e-05  1.046049  0.0
H  H56  1  0.16081595  0.97931421  0.26928352  1  0.04332  -3e-05  0.087578  0.132603  -2e-05  1.01516  0.0
H  H57  1  0.83918346  0.02068408  0.73071483  1  0.0435  3e-05  0.08757  0.132584  2.1e-05  1.015171  0.0
C  C58  1  0.57955458  0.36560524  0.18440579  1  0.456297  -0.000254  0.059006  0.129693  0.00098  3.906824  0.0
C  C59  1  0.42043861  0.63438731  0.81559201  1  0.456239  0.000254  0.058958  0.129669  -0.000979  3.906142  0.0
C  C60  1  0.53844599  0.30597086  0.25897706  1  0.032067  0.008303  -0.067884  -0.153364  0.005921  3.88633  0.007
C  C61  1  0.46156133  0.69403794  0.74102617  1  0.031961  -0.008303  -0.067841  -0.153317  -0.005921  3.886143  -0.007
C  C62  1  0.42952496  0.17690142  0.21101448  1  0.034835  -0.00344  0.034274  0.13503  -0.002386  3.818135  -0.002
C  C63  1  0.57047699  0.82309782  0.78898486  1  0.034676  0.003439  0.034294  0.135024  0.002385  3.818498  0.002
C  C64  1  0.37038331  0.11280491  0.08829769  1  -0.034956  0.004139  -0.071145  -0.184077  0.003197  3.859129  0.003
C  C65  1  0.62961817  0.88719530  0.91169929  1  -0.035168  -0.004143  -0.07113  -0.183982  -0.0032  3.858796  -0.003
C  C66  1  0.41378198  0.17745771  0.01774540  1  0.436154  0.001756  0.115095  0.167171  0.001955  4.022116  0.002
C  C67  1  0.58621999  0.82254153  0.98226017  1  0.436697  -0.001752  0.115119  0.167184  -0.001956  4.022187  -0.002
C  C68  1  0.35006738  0.11957205  0.88721681  1  0.476105  0.001548  0.120941  0.179983  0.001713  4.01306  0.001
C  C69  1  0.64993357  0.88042720  0.11278141  1  0.475594  -0.001553  0.120883  0.180014  -0.001715  4.01319  -0.001
C  C70  1  0.24220204  0.99245721  0.81995931  1  0.006374  0.004548  -0.067925  -0.175227  0.003452  3.838959  0.004
C  C71  1  0.75779845  0.00754299  0.18004278  1  0.006856  -0.004549  -0.067858  -0.17521  -0.003454  3.838806  -0.004
C  C72  1  0.17896665  0.94674995  0.69416167  1  0.031215  -0.003882  0.03441  0.137968  -0.002678  3.807746  -0.003
C  C73  1  0.82103545  0.05325312  0.30583980  1  0.031079  0.003883  0.034399  0.138035  0.002678  3.807946  0.003
C  C74  1  0.23519210  0.03375446  0.64222241  1  -0.056029  0.008665  -0.071423  -0.16616  0.006041  3.902251  0.007
C  C75  1  0.76481305  0.96625053  0.35777414  1  -0.056227  -0.008664  -0.071415  -0.166178  -0.006039  3.902306  -0.007
C  C76  1  0.34547102  0.15943375  0.71423426  1  0.517956  -0.000704  0.062685  0.127553  0.000834  3.920929  0.0
C  C77  1  0.65453042  0.84056452  0.28577255  1  0.51785  0.000707  0.062687  0.127462  -0.000833  3.920522  0.0
C  C78  1  0.37497574  0.10343085  0.28409806  1  0.049499  0.000223  -0.009738  0.23375  0.00016  3.808162  0.0
C  C79  1  0.62502722  0.89656839  0.71590317  1  0.049596  -0.000223  -0.009789  0.233737  -0.00016  3.808411  0.0
C  C80  1  0.44203719  0.00994184  0.30166312  1  -0.074421  -0.000103  -0.246318  -0.414377  -7.6e-05  3.841778  0.0
C  C81  1  0.55796115  0.99005454  0.69833695  1  -0.074558  0.000103  -0.246292  -0.414277  7.6e-05  3.841818  0.0
C  C82  1  0.20017375  0.02755044  0.21407554  1  -0.024306  -3.9e-05  -0.244798  -0.414083  -3.5e-05  3.872439  0.0
C  C83  1  0.79982620  0.97244880  0.78592468  1  -0.024504  3.9e-05  -0.2448  -0.414134  3.5e-05  3.872487  0.0
C  C84  1  0.42609187  0.19216290  0.40793069  1  -0.052963  5.7e-05  -0.248731  -0.421319  6.8e-05  3.891881  0.0
C  C85  1  0.57390955  0.80783539  0.59207067  1  -0.052972  -5.7e-05  -0.248679  -0.42121  -6.8e-05  3.891981  0.0
C  C86  1  0.05892667  0.80760402  0.62162170  1  0.085456  0.0002  -0.010992  0.23043  0.000144  3.814369  0.0
C  C87  1  0.94107535  0.19239714  0.37837715  1  0.085671  -0.0002  -0.01094  0.230518  -0.000144  3.814262  0.0
C  C88  1  0.97674521  0.78403971  0.48583350  1  -0.066242  0.000101  -0.249207  -0.42451  9.7e-05  3.901791  0.0
C  C89  1  0.02325427  0.21596049  0.51416436  1  -0.066606  -0.000101  -0.249186  -0.424393  -9.7e-05  3.901775  0.0
C  C90  1  0.93875307  0.76817421  0.66181343  1  -0.069531  -3.7e-05  -0.245844  -0.420571  -3.4e-05  3.874891  0.0
C  C91  1  0.06124841  0.23182600  0.33818511  1  -0.069487  3.7e-05  -0.245884  -0.420579  3.4e-05  3.874823  0.0
C  C92  1  0.14092745  0.72548418  0.64644650  1  -0.086677  -0.000169  -0.242936  -0.413675  -0.000127  3.852356  0.0
C  C93  1  0.85907250  0.27451507  0.35355138  1  -0.086339  0.000169  -0.242986  -0.413859  0.000127  3.852397  0.0
N  N94  1  0.51684721  0.30349472  0.06628317  1  -1.237087  0.112997  -0.354552  -0.291524  0.076675  3.618443  0.096
N  N95  1  0.48316006  0.69651216  0.93372522  1  -1.237218  -0.113026  -0.354513  -0.291559  -0.076692  3.618102  -0.096
N  N96  1  0.40032703  0.20178963  0.83379224  1  -1.19551  0.114643  -0.35126  -0.294565  0.078059  3.621039  0.098
N  N97  1  0.59967235  0.79820868  0.16619911  1  -1.195335  -0.114662  -0.351261  -0.29463  -0.078072  3.620679  -0.098
O  O98  1  0.66911866  0.55510132  0.05849330  1  -0.926382  0.066279  -0.549666  -0.791089  0.045566  2.101881  0.057
O  O99  1  0.33088067  0.44489506  0.94150554  1  -0.926507  -0.066266  -0.549658  -0.791105  -0.045557  2.101927  -0.057
O  O100  1  0.89902426  0.80151936  0.18276819  1  -0.763883  0.010083  -0.481363  -0.591528  0.006568  1.652836  0.008
O  O101  1  0.10097483  0.19848371  0.81723148  1  -0.764016  -0.010072  -0.481369  -0.591427  -0.006561  1.652998  -0.008
O  O102  1  0.94167993  0.59376339  0.24193181  1  -0.987243  -0.000625  -0.577563  -0.821468  -0.000544  1.959195  0.0
O  O103  1  0.05831486  0.40623204  0.75806304  1  -0.987569  0.000624  -0.577558  -0.821495  0.000544  1.959016  0.0
O  O104  1  0.17173942  0.56972773  0.42596201  1  -0.789485  -0.000249  -0.492436  -0.624539  -0.000166  1.641526  0.0
O  O105  1  0.82825667  0.43027534  0.57403742  1  -0.789498  0.000249  -0.492393  -0.624469  0.000166  1.641335  0.0
O  O106  1  0.23596010  0.80159652  0.40012833  1  -0.796573  0.000234  -0.493719  -0.628054  0.000153  1.670749  0.0
O  O107  1  0.76403554  0.19840751  0.59987341  1  -0.796533  -0.000234  -0.493724  -0.628004  -0.000153  1.671092  0.0
O  O108  1  0.32397808  0.64690187  0.29399665  1  -0.988235  0.000561  -0.57636  -0.820613  0.000501  1.956361  0.0
O  O109  1  0.67601747  0.35310026  0.70600248  1  -0.988287  -0.000562  -0.576382  -0.820524  -0.000501  1.956467  0.0
O  O110  1  0.65799514  0.58284394  0.69338839  1  -0.76002  0.00889  -0.478452  -0.589888  0.005744  1.643511  0.007
O  O111  1  0.34199147  0.41716011  0.30660719  1  -0.759972  -0.008883  -0.478505  -0.589838  -0.00574  1.643713  -0.007
O  O112  1  0.55249552  0.44902768  0.82197450  1  -0.901851  0.066335  -0.546387  -0.745826  0.045461  2.026077  0.058
O  O113  1  0.44751400  0.55097250  0.17803374  1  -0.901927  -0.066329  -0.54639  -0.745928  -0.045457  2.026073  -0.058
O  O114  1  0.18097732  0.79942378  0.98022116  1  -0.839163  8.1e-05  -0.509159  -0.65592  4.7e-05  1.668376  0.0
O  O115  1  0.81902256  0.20057355  0.01977878  1  -0.83904  -8.1e-05  -0.509179  -0.655983  -4.7e-05  1.668378  0.0
O  O116  1  0.92553644  0.54978850  0.82643364  1  -1.084301  0.009041  -0.604686  -0.957622  0.00586  2.147722  0.008
O  O117  1  0.07445651  0.45021075  0.17356576  1  -1.084297  -0.009041  -0.604654  -0.957636  -0.00586  2.147632  -0.008
O  O118  1  0.18087854  0.57461040  0.01562749  1  -0.983127  0.003713  -0.550779  -0.897147  0.00288  2.00161  0.003
O  O119  1  0.81912052  0.42539075  0.98438201  1  -0.983247  -0.003711  -0.550813  -0.897151  -0.002879  2.001953  -0.003
O  O120  1  0.85222068  0.65322285  0.95463012  1  -1.099605  -0.000689  -0.605166  -0.952744  -0.000714  2.0479  0.0
O  O121  1  0.14777742  0.34678023  0.04536921  1  -1.099548  0.000688  -0.605192  -0.952805  0.000713  2.04764  0.0
O  O122  1  0.08078562  0.69193603  0.13784200  1  -1.075562  0.008879  -0.601476  -0.952858  0.005765  2.12461  0.008
O  O123  1  0.91920807  0.30806993  0.86215624  1  -1.075654  -0.00888  -0.601399  -0.952808  -0.005765  2.124352  -0.008
