# generated using pymatgen
data_Al2H3C24S6(O4F)3
_symmetry_space_group_name_H-M   'P 1'
_cell_length_a   3.96226309
_cell_length_b   20.15872912
_cell_length_c   20.15876282
_cell_angle_alpha   120.00013048
_cell_angle_beta   89.99983938
_cell_angle_gamma   90.00017733
_symmetry_Int_Tables_number   1
_chemical_formula_structural   Al2H3C24S6(O4F)3
_chemical_formula_sum   'Al2 H3 C24 S6 O12 F3'
_cell_volume   1394.44180199
_cell_formula_units_Z   1
loop_
 _symmetry_equiv_pos_site_id
 _symmetry_equiv_pos_as_xyz
  1  'x, y, z'
loop_
 _atom_site_type_symbol
 _atom_site_label
 _atom_site_symmetry_multiplicity
 _atom_site_fract_x
 _atom_site_fract_y
 _atom_site_fract_z
 _atom_site_occupancy
 _atom_site_pbe_bader_charge
 _atom_site_pbe_bader_spin_density
 _atom_site_pbe_cm5_charge
 _atom_site_pbe_ddec_charge
 _atom_site_pbe_ddec_spin_density
 _atom_site_pbe_ddec_sum_bond_order
 _atom_site_pbe_magmom
Al  Al0  1  0.00252672  0.50000013  0.49999957  1  2.503105  0  0.427054  1.592447  0  2.570637  0
Al  Al1  1  0.00238552  0.16666815  0.83333340  1  2.502683  0  0.425754  1.594272  0  2.568699  0
H  H2  1  0.47762311  0.17755556  0.61490233  1  0.11778  0  0.120388  0.146385  0  0.965729  0
H  H3  1  0.47762251  0.93734891  0.82244281  1  0.112127  0  0.120379  0.146381  0  0.965702  0
H  H4  1  0.47762101  0.38509823  0.06265131  1  0.116774  0  0.120382  0.14637  0  0.965733  0
C  C5  1  0.50196388  0.44001167  0.38250156  1  1.573293  0  0.276505  0.697192  0  4.074135  0
C  C6  1  0.50196013  0.44249080  0.55998805  1  1.586253  0  0.276504  0.697235  0  4.074209  0
C  C7  1  0.50195898  0.61749853  0.55750855  1  1.676066  0  0.276437  0.697099  0  4.074331  0
C  C8  1  0.50186357  0.22586488  0.77490877  1  1.569447  0  0.274252  0.671652  0  4.082605  0
C  C9  1  0.50186473  0.04904640  0.77413520  1  1.565261  0  0.274249  0.671632  0  4.082804  0
C  C10  1  0.50186233  0.22509260  0.95095391  1  1.673224  0  0.274289  0.671763  0  4.082618  0
C  C11  1  0.48925180  0.42858166  0.67972420  1  0.631988  0  0.091478  0.232667  0  4.100272  0
C  C12  1  0.48734250  0.23875541  0.65522689  1  0.055032  0  -0.094906  -0.149464  0  3.978355  0
C  C13  1  0.49823184  0.39941119  0.60157337  1  -0.122335  0  -0.029041  -0.237072  0  3.953829  0
C  C14  1  0.49834348  0.26918574  0.73353262  1  -0.19384  0  -0.014126  -0.104959  0  3.942151  0
C  C15  1  0.50417185  0.29737146  0.63608771  1  -0.144381  0  -0.023252  0.003509  0  4.092934  0
C  C16  1  0.50526983  0.37133561  0.70064635  1  -0.143628  0  -0.03512  -0.136203  0  4.111453  0
C  C17  1  0.48925506  0.75114534  0.57141704  1  0.550731  0  0.091415  0.232584  0  4.100165  0
C  C18  1  0.48734197  0.91647318  0.76124291  1  0.101351  0  -0.094879  -0.149435  0  3.978285  0
C  C19  1  0.49824176  0.70216409  0.60058737  1  -0.162986  0  -0.028974  -0.236896  0  3.953613  0
C  C20  1  0.49833879  0.96434957  0.73081420  1  -0.135978  0  -0.01418  -0.105035  0  3.942287  0
C  C21  1  0.50417054  0.83871788  0.70262733  1  -0.202319  0  -0.023205  0.003574  0  4.092831  0
C  C22  1  0.50527389  0.82931266  0.62866321  1  -0.122908  0  -0.035077  -0.136175  0  4.111276  0
C  C23  1  0.48925902  0.32027521  0.24885471  1  0.540754  0  0.09141  0.232545  0  4.10027  0
C  C24  1  0.48733722  0.34477511  0.08352765  1  0.043552  0  -0.094872  -0.149368  0  3.978425  0
C  C25  1  0.49823900  0.39842558  0.29783557  1  -0.041955  0  -0.028993  -0.236988  0  3.953731  0
C  C26  1  0.49834076  0.26646861  0.03565139  1  -0.25229  0  -0.01416  -0.105054  0  3.942317  0
C  C27  1  0.50416307  0.36391487  0.16128289  1  -0.16146  0  -0.023342  0.00334  0  4.093173  0
C  C28  1  0.50526793  0.29935416  0.17068716  1  -0.117487  0  -0.035035  -0.136056  0  4.111324  0
S  S29  1  0.51867428  0.29997914  0.55192832  1  0.261973  0  0.093293  0.139422  0  2.774706  0
S  S30  1  0.52092695  0.36870487  0.78454209  1  0.31503  0  0.093712  0.145661  0  2.774191  0
S  S31  1  0.51867422  0.75195033  0.70001896  1  0.296155  0  0.093239  0.139305  0  2.774691  0
S  S32  1  0.52092721  0.91584012  0.63129439  1  0.265522  0  0.093705  0.145676  0  2.774027  0
S  S33  1  0.51866998  0.44807290  0.24805051  1  0.29691  0  0.093287  0.139426  0  2.774796  0
S  S34  1  0.52092560  0.21545852  0.08416016  1  0.275076  0  0.09369  0.145645  0  2.774164  0
O  O35  1  0.73774054  0.58456806  0.57334361  1  -1.250143  0  -0.235506  -0.59046  0  2.341421  0
O  O36  1  0.73774090  0.48877769  0.41543229  1  -1.255457  0  -0.235577  -0.590507  0  2.341332  0
O  O37  1  0.73774227  0.42665590  0.51122264  1  -1.253031  0  -0.235534  -0.590516  0  2.341364  0
O  O38  1  0.26864795  0.58357943  0.50849278  1  -1.242572  0  -0.232969  -0.585937  0  2.336441  0
O  O39  1  0.26864677  0.49150747  0.57508566  1  -1.235862  0  -0.232957  -0.585918  0  2.336344  0
O  O40  1  0.26864484  0.42491366  0.41642013  1  -1.239075  0  -0.232948  -0.585905  0  2.336327  0
O  O41  1  0.73749268  0.17632982  0.91738699  1  -1.250515  0  -0.238101  -0.595525  0  2.351348  0
O  O42  1  0.73749384  0.24106045  0.82367163  1  -1.241579  0  -0.238026  -0.595346  0  2.351336  0
O  O43  1  0.73749306  0.08261469  0.75894121  1  -1.242495  0  -0.238062  -0.595358  0  2.351367  0
O  O44  1  0.26924815  0.24096379  0.91733958  1  -1.252626  0  -0.2362  -0.587752  0  2.337195  0
O  O45  1  0.26924505  0.08266095  0.82362218  1  -1.256012  0  -0.236236  -0.587823  0  2.337311  0
O  O46  1  0.26924371  0.17637890  0.75903731  1  -1.251946  0  -0.236246  -0.58781  0  2.337214  0
F  F47  1  0.48164779  0.50413811  0.73156881  1  -0.619002  0  -0.094639  -0.111426  0  1.329852  0
F  F48  1  0.48164359  0.72743179  0.49586141  1  -0.620641  0  -0.094628  -0.111402  0  1.329852  0
F  F49  1  0.48165674  0.26843066  0.27256638  1  -0.617563  0  -0.09463  -0.111394  0  1.329832  0
