# generated using pymatgen
data_Zn4H42C61N16
_symmetry_space_group_name_H-M   'P 1'
_cell_length_a   13.52626189
_cell_length_b   15.04884006
_cell_length_c   17.00128012
_cell_angle_alpha   106.35528561
_cell_angle_beta   107.62360706
_cell_angle_gamma   108.66091731
_symmetry_Int_Tables_number   1
_chemical_formula_structural   Zn4H42C61N16
_chemical_formula_sum   'Zn4 H42 C61 N16'
_cell_volume   2837.13856687
_cell_formula_units_Z   1
loop_
 _symmetry_equiv_pos_site_id
 _symmetry_equiv_pos_as_xyz
  1  'x, y, z'
loop_
 _atom_site_type_symbol
 _atom_site_label
 _atom_site_symmetry_multiplicity
 _atom_site_fract_x
 _atom_site_fract_y
 _atom_site_fract_z
 _atom_site_occupancy
 _atom_site_pbe_bader_charge
 _atom_site_pbe_bader_spin_density
 _atom_site_pbe_cm5_charge
 _atom_site_pbe_ddec_charge
 _atom_site_pbe_ddec_spin_density
 _atom_site_pbe_ddec_sum_bond_order
 _atom_site_pbe_magmom
Zn  Zn0  1  0.38062312  0.01417723  0.89721262  1  1.182589  0  0.742261  0.608688  0  2.455061  0
Zn  Zn1  1  0.64555414  0.99489057  0.12131935  1  1.182798  0  0.739753  0.604453  0  2.459792  0
Zn  Zn2  1  0.36046789  0.88375072  0.01557452  1  1.192936  0  0.745236  0.62837  0  2.394927  0
Zn  Zn3  1  0.66223568  0.12821662  0.99732613  1  1.186161  0  0.739051  0.612038  0  2.460438  0
H  H4  1  0.27174230  0.15557771  0.95606172  1  0.110722  0  0.117147  0.104054  0  1.009525  0
H  H5  1  0.79652586  0.69951675  0.99623300  1  0.042919  0  0.089187  0.095773  0  1.008382  0
H  H6  1  0.62985971  0.14536418  0.28449590  1  0.092373  0  0.117371  0.105762  0  1.00724  0
H  H7  1  0.74869377  0.70030776  0.08380796  1  0.011304  0  0.088277  0.089235  0  0.99682  0
H  H8  1  0.80189662  0.53176696  0.98155013  1  0.034236  0  0.089451  0.091858  0  0.993032  0
H  H9  1  0.75297925  0.53202244  0.06825459  1  0.034047  0  0.088669  0.089718  0  0.996718  0
H  H10  1  0.97433433  0.71905448  0.58066620  1  0.029568  0  0.094547  0.093021  0  1.021251  0
H  H11  1  0.97017688  0.52650159  0.72716992  1  0.03963  0  0.096827  0.095215  0  1.01023  0
H  H12  1  0.85213985  0.63894003  0.41413828  1  0.036739  0  0.096021  0.094615  0  1.003599  0
H  H13  1  0.82951594  0.37273746  0.58568837  1  0.054735  0  0.100238  0.099795  0  0.996907  0
H  H14  1  0.73251410  0.48281267  0.27057008  1  0.045838  0  0.097179  0.096465  0  1.007188  0
H  H15  1  0.69314952  0.81270458  0.01550975  1  0.076894  0  0.109634  0.088515  0  1.06551  0
H  H16  1  0.72968083  0.29186266  0.41840941  1  0.035856  0  0.098806  0.100802  0  1.011223  0
H  H17  1  0.63392938  0.85154546  0.40947545  1  0.036005  0  0.095277  0.097396  0  1.011116  0
H  H18  1  0.29915099  0.80800381  0.16404644  1  0.075459  0  0.114051  0.099844  0  1.005691  0
H  H19  1  0.28719368  0.82224840  0.29622429  1  0.038626  0  0.093986  0.091282  0  1.017378  0
H  H20  1  0.70865140  0.84011429  0.55853019  1  0.026185  0  0.093721  0.090005  0  1.018856  0
H  H21  1  0.26016868  0.80170623  0.42788203  1  0.047883  0  0.097323  0.096222  0  1.000137  0
H  H22  1  0.69255140  0.85232758  0.70225046  1  0.069056  0  0.090732  0.089117  0  1.07085  0
H  H23  1  0.34884726  0.82707638  0.58614770  1  0.032277  0  0.096112  0.097691  0  1.015513  0
H  H24  1  0.04056016  0.96961962  0.07482375  1  0.039221  0  0.097585  0.074519  0  0.979099  0
H  H25  1  0.81728287  0.84960670  0.97175334  1  0.061899  0  0.090879  0.086879  0  1.067936  0
H  H26  1  0.10331527  0.66998150  0.86035509  1  0.073065  0  0.116134  0.102077  0  1.001107  0
H  H27  1  0.95179384  0.85337934  0.72012621  1  0.071892  0  0.094199  0.107424  0  1.008249  0
H  H28  1  0.87321623  0.92481823  0.69290479  1  0.048784  0  0.095106  0.105363  0  1.005986  0
H  H29  1  0.12809216  0.01694389  0.82482188  1  0.053471  0  0.085142  0.082427  0  1.056376  0
H  H30  1  0.70687337  0.34119059  0.95603430  1  0.095559  0  0.11527  0.101241  0  1.01537  0
H  H31  1  0.05092132  0.09004749  0.79964936  1  0.021357  0  0.092091  0.098753  0  0.986816  0
H  H32  1  0.67167986  0.94495457  0.31104129  1  0.114692  0  0.116024  0.10471  0  1.001283  0
H  H33  1  0.33256489  0.18758541  0.82891441  1  0.08896  0  0.113509  0.099116  0  1.009162  0
H  H34  1  0.68256251  0.33750400  0.13854060  1  0.114537  0  0.114545  0.099061  0  1.013194  0
H  H35  1  0.20156488  0.95356816  0.09067193  1  0.068572  0  0.115746  0.100273  0  1.003367  0
H  H36  1  0.33591806  0.83194909  0.72312105  1  0.128936  0  0.112974  0.09886  0  1.027566  0
H  H37  1  0.87957626  0.96395828  0.14379728  1  0.079392  0  0.115146  0.103621  0  0.991933  0
H  H38  1  0.00257803  0.20858205  0.99777797  1  0.08986  0  0.098307  0.142328  0  0.987084  0
H  H39  1  0.87600210  0.11259735  0.90059720  1  0.057896  0  0.092171  0.128707  0  1.025344  0
H  H40  1  0.86942228  0.21733066  0.97651486  1  0.031767  0  0.091822  0.126868  0  1.002101  0
H  H41  1  0.14193919  0.85241690  0.70541943  1  0.070679  0  0.116397  0.100304  0  1.001064  0
H  H42  1  0.71050089  0.97774593  0.84536756  1  0.087105  0  0.111436  0.099578  0  1.047546  0
H  H43  1  0.31924255  0.66805779  0.87182106  1  0.095725  0  0.113624  0.099391  0  1.018015  0
H  H44  1  0.33783322  0.33546601  0.78735573  1  0.056496  0  0.092819  0.093084  0  1.010973  0
H  H45  1  0.33265119  0.49939077  0.80322764  1  0.07234  0  0.096002  0.098467  0  1.003896  0
C  C46  1  0.27019765  0.10332064  0.98904771  1  0.348339  0  0.006886  -0.049266  0  3.96494  0
C  C47  1  0.14696096  0.82142405  0.75623294  1  0.357495  0  0.006015  -0.058343  0  4.002382  0
C  C48  1  0.61932418  0.95221725  0.82909651  1  0.432608  0  0.01049  -0.03322  0  3.927892  0
C  C49  1  0.63846749  0.17909668  0.23680132  1  0.402889  0  0.008957  -0.043402  0  3.951146  0
C  C50  1  0.41100085  0.71858795  0.91309209  1  0.4357  0  0.007742  -0.045768  0  3.946386  0
C  C51  1  0.52249909  0.88230081  0.74590699  1  -0.019418  0  -0.033587  -0.034268  0  4.053964  0
C  C52  1  0.50671411  0.69616848  0.92697849  1  0.018926  0  -0.033767  -0.028263  0  4.076695  0
C  C53  1  0.07876317  0.72284155  0.74683424  1  0.046184  0  -0.036134  -0.040136  0  4.083831  0
C  C54  1  0.92568024  0.03905589  0.05436280  1  -0.019971  0  -0.033029  -0.074679  0  3.943914  0
C  C55  1  0.61483602  0.49523688  0.93599374  1  -0.02273  0  -0.020528  0.017896  0  3.911721  0
C  C56  1  0.51753230  0.39976624  0.88295667  1  -0.045355  0  -0.01732  0.027283  0  4.081967  0
C  C57  1  0.67236485  0.28223279  0.24810998  1  0.044787  0  -0.03398  -0.035271  0  4.057272  0
C  C58  1  0.41718664  0.40650012  0.83328567  1  -0.005435  0  -0.101425  -0.145069  0  4.024445  0
C  C59  1  0.41417889  0.50074350  0.84229016  1  -0.113124  0  -0.099712  -0.142867  0  4.016118  0
C  C60  1  0.51129790  0.59723311  0.90188798  1  0.059009  0  -0.010485  0.038545  0  4.065202  0
C  C61  1  0.39249164  0.84604575  0.18870794  1  0.395031  0  0.001503  -0.061663  0  4.011782  0
C  C62  1  0.61192733  0.58902111  0.94483444  1  -0.056242  0  -0.017738  0.023813  0  3.893662  0
C  C63  1  0.73676806  0.65232290  0.01628074  1  -0.029134  0  -0.156714  -0.193966  0  3.892861  0
C  C64  1  0.73981669  0.54595799  0.00651584  1  -0.042892  0  -0.15621  -0.191983  0  3.904291  0
C  C65  1  0.98547771  0.63459586  0.66399701  1  0.05203  0  -0.014186  0.083647  0  4.069344  0
C  C66  1  0.72436742  0.37444062  0.33335578  1  0.045718  0  -0.011373  0.086088  0  4.056282  0
C  C67  1  0.82503804  0.56273438  0.41499928  1  -0.022955  0  -0.096314  -0.137086  0  4.022464  0
C  C68  1  0.47990019  0.86404244  0.26991686  1  0.024187  0  -0.039361  -0.038427  0  4.099364  0
C  C69  1  0.75820571  0.47510586  0.33467438  1  -0.058794  0  -0.096036  -0.133084  0  4.004232  0
C  C70  1  0.75420473  0.36742882  0.41643532  1  -0.123273  0  -0.09342  -0.186684  0  3.943503  0
C  C71  1  0.82337977  0.45571655  0.49995563  1  0.042694  0  -0.011204  0.079547  0  4.021969  0
C  C72  1  0.86343201  0.55622294  0.49989833  1  -0.002742  0  -0.011156  0.079991  0  4.020698  0
C  C73  1  0.61550195  0.28905110  0.92709412  1  0.397712  0  0.004561  -0.057937  0  3.98955  0
C  C74  1  0.94314577  0.64351105  0.58260238  1  -0.060312  0  -0.095956  -0.192615  0  3.954866  0
C  C75  1  0.94005230  0.53484293  0.66366748  1  -0.009711  0  -0.097213  -0.136478  0  4.01433  0
C  C76  1  0.86146950  0.44863793  0.58460971  1  -0.092296  0  -0.09306  -0.131052  0  4.019066  0
C  C77  1  0.46444585  0.84126502  0.34463754  1  -0.003328  0  -0.017242  0.080763  0  4.075721  0
C  C78  1  0.52136570  0.84639450  0.65604740  1  0.040099  0  -0.008807  0.094384  0  4.046021  0
C  C79  1  0.51858948  0.30465224  0.88687255  1  0.022445  0  -0.036821  -0.029532  0  4.104566  0
C  C80  1  0.63012418  0.83813861  0.56509838  1  -0.039475  0  -0.097218  -0.138434  0  4.015978  0
C  C81  1  0.62163242  0.84557098  0.64523293  1  -0.048096  0  -0.095948  -0.131491  0  3.986119  0
C  C82  1  0.42718256  0.82752145  0.58038209  1  -0.077138  0  -0.095594  -0.191472  0  3.955484  0
C  C83  1  0.43361357  0.82026787  0.49769527  1  -0.004947  0  -0.012176  0.081082  0  4.027346  0
C  C84  1  0.53958500  0.83139707  0.49062809  1  -0.025115  0  -0.012644  0.077929  0  4.021803  0
C  C85  1  0.58214716  0.91447973  0.26289419  1  0.35568  0  0.001837  -0.064286  0  4.000945  0
C  C86  1  0.55196110  0.84098334  0.41325858  1  -0.016221  0  -0.096836  -0.192445  0  3.95318  0
C  C87  1  0.35712163  0.82350819  0.35013726  1  0.006895  0  -0.101403  -0.141013  0  4.026556  0
C  C88  1  0.34184882  0.81240921  0.42366812  1  -0.079923  0  -0.096925  -0.134741  0  4.032207  0
C  C89  1  0.00991857  0.01736598  0.89049816  1  -0.100545  0  -0.012101  0.010132  0  3.796679  0
C  C90  1  0.42806583  0.87781980  0.76605963  1  0.370346  0  0.005491  -0.048889  0  3.962727  0
C  C91  1  0.06483157  0.03239485  0.97995158  1  0.074003  0  0.001527  0.034816  0  3.858365  0
C  C92  1  0.98984783  0.98341692  0.01944385  1  0.032921  0  -0.063079  -0.017321  0  3.865692  0
C  C93  1  0.87518554  0.88035582  0.94324956  1  -0.194748  0  -0.086715  -0.092869  0  3.914881  0
C  C94  1  0.84399233  0.85693311  0.85520140  1  0.050285  0  -0.137511  -0.263229  0  3.758854  0
C  C95  1  0.90640332  0.92285206  0.82792787  1  -0.084168  0  0.002606  0.121839  0  3.947244  0
C  C96  1  0.93572846  0.91984740  0.74836148  1  -0.054373  0  -0.157495  -0.20085  0  3.863527  0
C  C97  1  0.42480900  0.21070732  0.86167811  1  0.359473  0  0.003124  -0.05956  0  3.997803  0
C  C98  1  0.04695835  0.02324699  0.81520537  1  -0.042065  0  -0.159401  -0.196376  0  3.91666  0
C  C99  1  0.66484310  0.27674281  0.16216053  1  0.366518  0  0.009486  -0.040744  0  3.95151  0
C  C100  1  0.23595952  0.00236791  0.05969993  1  0.431583  0  0.009755  -0.044038  0  3.961965  0
C  C101  1  0.60172811  0.79275756  0.98663140  1  0.403002  0  0.009527  -0.039899  0  3.952887  0
C  C102  1  0.18650844  0.05503214  0.01591573  1  -0.01302  0  -0.032307  -0.034022  0  4.073124  0
C  C103  1  0.90889583  0.16360169  0.97253428  1  -0.09815  0  -0.233585  -0.426219  0  3.995057  0
C  C104  1  0.12812576  0.72818542  0.83488115  1  0.386154  0  0.005001  -0.056944  0  3.992122  0
C  C105  1  0.88296112  0.10523225  0.02746660  1  0.43783  0  0.090867  0.208482  0  3.961759  0
C  C106  1  0.87091202  0.01302743  0.10842869  1  0.418476  0  0.001321  -0.065753  0  4.037548  0
N  N107  1  0.35727534  0.07557590  0.00939906  1  -0.762946  0  -0.283871  -0.189845  0  3.515087  0
N  N108  1  0.43872211  0.88212904  0.13792934  1  -0.790767  0  -0.27357  -0.176046  0  3.569465  0
N  N109  1  0.58177088  0.19403247  0.92584549  1  -0.766105  0  -0.270356  -0.177786  0  3.54355  0
N  N110  1  0.55699672  0.92506611  0.18399295  1  -0.787101  0  -0.266214  -0.171817  0  3.534963  0
N  N111  1  0.46289541  0.14539615  0.88528579  1  -0.823715  0  -0.274011  -0.174252  0  3.555902  0
N  N112  1  0.63250588  0.17880319  0.10612124  1  -0.792296  0  -0.281867  -0.185436  0  3.629762  0
N  N113  1  0.33530141  0.01259040  0.05290586  1  -0.772616  0  -0.280766  -0.185997  0  3.551981  0
N  N114  1  0.46667539  0.94232301  0.85343761  1  -0.793191  0  -0.287624  -0.186579  0  3.653563  0
N  N115  1  0.56504376  0.86550083  0.00725708  1  -0.778996  0  -0.285225  -0.177483  0  3.637841  0
N  N116  1  0.21768563  0.82179693  0.89121366  1  -0.784861  0  -0.267717  -0.182035  0  3.522191  0
N  N117  1  0.80772888  0.11513064  0.06280432  1  -0.75558  0  -0.27491  -0.239354  0  3.463168  0
N  N118  1  0.79960609  0.05752533  0.11290445  1  -0.814872  0  -0.276644  -0.18273  0  3.534579  0
N  N119  1  0.22913694  0.87995825  0.84220680  1  -0.785595  0  -0.269256  -0.174565  0  3.528005  0
N  N120  1  0.58429296  0.98870118  0.89220896  1  -0.788625  0  -0.282807  -0.183473  0  3.602655  0
N  N121  1  0.44782233  0.82007004  0.96230043  1  -0.79562  0  -0.280473  -0.184028  0  3.630428  0
N  N122  1  0.61621239  0.11869088  0.15203459  1  -0.797477  0  -0.285454  -0.186142  0  3.635041  0
