# generated using pymatgen
data_CuH12C20(NO2)2
_symmetry_space_group_name_H-M   'P 1'
_cell_length_a   5.39996369
_cell_length_b   11.30316194
_cell_length_c   14.45400696
_cell_angle_alpha   89.99928660
_cell_angle_beta   87.26036119
_cell_angle_gamma   90.00226644
_symmetry_Int_Tables_number   1
_chemical_formula_structural   CuH12C20(NO2)2
_chemical_formula_sum   'Cu2 H24 C40 N4 O8'
_cell_volume   881.21602427
_cell_formula_units_Z   2
loop_
 _symmetry_equiv_pos_site_id
 _symmetry_equiv_pos_as_xyz
  1  'x, y, z'
loop_
 _atom_site_type_symbol
 _atom_site_label
 _atom_site_symmetry_multiplicity
 _atom_site_fract_x
 _atom_site_fract_y
 _atom_site_fract_z
 _atom_site_occupancy
 _atom_site_hle17_ddec_charge
 _atom_site_hle17_ddec_spin_density
 _atom_site_hle17_ddec_sum_bond_order
 _atom_site_hle17_magmom
 _atom_site_hse06_10hf_ddec_charge
 _atom_site_hse06_10hf_ddec_spin_density
 _atom_site_hse06_10hf_ddec_sum_bond_order
 _atom_site_hse06_10hf_magmom
 _atom_site_hse06_ddec_charge
 _atom_site_hse06_ddec_spin_density
 _atom_site_hse06_ddec_sum_bond_order
 _atom_site_hse06_magmom
 _atom_site_pbe_cm5_charge
 _atom_site_pbe_ddec_charge
 _atom_site_pbe_ddec_spin_density
 _atom_site_pbe_ddec_sum_bond_order
 _atom_site_pbe_magmom
Cu  Cu0  1  0.99999849  0.49999777  0.00000207  1  0.850596  -0.71947  1.709798  -0.478  0.82353  -0.79186  2.085857  -0.59  0.912917  -0.874862  2.021357  -0.674  0.74976  0.770627  -0.733592  2.130112  -0.537
Cu  Cu1  1  0.00000362  0.99999692  0.50000073  1  0.850291  0.719352  1.709404  0.478  0.823195  0.79178  2.085434  0.589  0.912565  0.874792  2.020985  0.673  0.749562  0.770301  0.733512  2.12967  0.537
H  H2  1  0.70879461  0.70556154  0.01762953  1  0.104768  -0.001302  0.976626  -0.002  0.109719  -0.000887  1.045986  -0.002  0.112968  -0.000636  1.040989  -0.001  0.119444  0.107017  -0.001076  1.049869  -0.002
H  H3  1  0.29121335  0.20556695  0.48237762  1  0.104808  0.001303  0.97659  0.002  0.109748  0.000888  1.045969  0.002  0.113013  0.000636  1.040955  0.001  0.119471  0.107044  0.001077  1.049853  0.002
H  H4  1  0.29119498  0.29443740  0.98237275  1  0.104699  -0.001301  0.976646  -0.002  0.109671  -0.000887  1.045978  -0.002  0.112909  -0.000636  1.040997  -0.001  0.119435  0.106965  -0.001075  1.04986  -0.002
H  H5  1  0.70881612  0.79443288  0.51761862  1  0.10465  0.001302  0.976825  0.002  0.109637  0.000887  1.046138  0.002  0.11287  0.000636  1.041162  0.001  0.119446  0.106931  0.001076  1.05002  0.002
H  H6  1  0.63598446  0.87489855  0.12711712  1  0.102399  -0.000435  0.94672  0.0  0.113873  -0.000488  1.001702  0.0  0.11658  -0.000361  1.002108  0.0  0.106503  0.111848  -0.000601  1.001708  -0.001
H  H7  1  0.36400407  0.37489624  0.37288784  1  0.102253  0.00044  0.946955  0.0  0.113786  0.000488  1.001885  0.0  0.116492  0.000361  1.002288  0.0  0.106465  0.111755  0.000601  1.001896  0.001
H  H8  1  0.36402757  0.12510305  0.87288387  1  0.102337  -0.00044  0.946746  0.0  0.113847  -0.000488  1.001702  0.0  0.116555  -0.000361  1.002109  0.0  0.106484  0.11184  -0.000601  1.001692  -0.001
H  H9  1  0.63600179  0.62510448  0.62710551  1  0.102304  0.000441  0.946848  0.0  0.113851  0.000489  1.001767  0.0  0.11658  0.000361  1.002145  0.0  0.10648  0.1118  0.000601  1.001796  0.001
H  H10  1  0.88308660  0.88722533  0.26856971  1  0.109225  0.000146  1.009223  0.0  0.118325  0.000358  1.071054  0.0  0.121526  0.000255  1.068931  0.0  0.105577  0.11607  0.000445  1.07258  0.0
H  H11  1  0.11692657  0.38722628  0.23143869  1  0.109169  -0.000147  1.009433  0.0  0.118271  -0.000357  1.071252  0.0  0.121467  -0.000255  1.069144  0.0  0.10558  0.116017  -0.000446  1.072784  0.0
H  H12  1  0.11692588  0.11277273  0.73142852  1  0.109233  0.000149  1.009211  0.0  0.11834  0.000357  1.07103  0.0  0.121539  0.000255  1.068912  0.0  0.105605  0.11609  0.000446  1.07256  0.0
H  H13  1  0.88307503  0.61277178  0.76855810  1  0.10923  -0.000146  1.009328  0.0  0.11831  -0.000357  1.071177  0.0  0.121511  -0.000255  1.069057  0.0  0.105596  0.116054  -0.000445  1.072711  0.0
H  H14  1  0.37623236  0.49583436  0.11649234  1  0.118431  0.000515  0.973217  0.0  0.120587  0.000322  1.050113  0.0  0.12408  0.000331  1.046294  0.0  0.108545  0.117614  0.000283  1.053587  0.0
H  H15  1  0.62377110  0.99583169  0.38351121  1  0.118379  -0.000516  0.973243  0.0  0.120571  -0.000322  1.050104  0.0  0.124064  -0.000331  1.046284  0.0  0.108576  0.117594  -0.000284  1.053576  0.0
H  H16  1  0.62376161  0.50416282  0.88350580  1  0.118435  0.000518  0.973269  0.0  0.120583  0.000322  1.050198  0.0  0.124076  0.000331  1.04638  0.0  0.108551  0.117609  0.000283  1.053665  0.0
H  H17  1  0.37623329  0.00416902  0.61649114  1  0.118426  -0.000517  0.973247  0.0  0.120613  -0.000322  1.050109  0.0  0.124106  -0.000331  1.046287  0.0  0.108567  0.117635  -0.000283  1.053588  0.0
H  H18  1  0.64106699  0.50308222  0.25132385  1  0.093431  2.7e-05  0.939346  0.0  0.105748  0.000139  0.996003  0.0  0.108025  9.3e-05  0.995949  0.0  0.103271  0.104036  0.000166  0.996299  0.0
H  H19  1  0.35895465  0.00308702  0.24867961  1  0.093507  -2.4e-05  0.939514  0.0  0.105794  -0.000139  0.996185  0.0  0.10807  -9.3e-05  0.99613  0.0  0.103272  0.104082  -0.000166  0.996478  0.0
H  H20  1  0.35894224  0.49691672  0.74867159  1  0.093479  2.9e-05  0.939361  0.0  0.105748  0.000139  0.996067  0.0  0.108025  9.3e-05  0.996012  0.0  0.103276  0.104031  0.000166  0.996359  0.0
H  H21  1  0.64105345  0.99691016  0.75132275  1  0.093468  -2.7e-05  0.939601  0.0  0.10576  -0.000139  0.996257  0.0  0.108036  -9.3e-05  0.996203  0.0  0.103273  0.104054  -0.000165  0.996556  0.0
H  H22  1  0.56589829  0.65586710  0.37461625  1  0.105794  0.000172  0.941686  0.0  0.117361  2.4e-05  0.99692  0.0  0.12123  1.4e-05  0.99433  0.0  0.107446  0.114543  3.2e-05  0.998876  0.0
H  H23  1  0.43409474  0.15586796  0.12538658  1  0.105834  -0.000171  0.941601  0.0  0.117411  -2.4e-05  0.996839  0.0  0.121242  -1.4e-05  0.994291  0.0  0.107498  0.114595  -3.3e-05  0.998796  0.0
H  H24  1  0.43411093  0.34413007  0.62537919  1  0.105768  0.000172  0.941678  0.0  0.117357  2.4e-05  0.996878  0.0  0.121221  1.4e-05  0.994294  0.0  0.107425  0.114542  3.3e-05  0.998832  0.0
H  H25  1  0.56589658  0.84413010  0.87461640  1  0.105847  -0.000167  0.941591  0.0  0.117416  -2.4e-05  0.996828  0.0  0.12127  -1.4e-05  0.994254  0.0  0.107472  0.114601  -3.3e-05  0.998789  0.0
C  C26  1  0.82223160  0.71651828  0.07757084  1  0.140033  0.013063  3.676166  0.013  0.108737  0.002668  3.930022  0.003  0.121206  0.003865  3.94544  0.005  0.053952  0.10087  0.001631  3.919972  0.002
C  C27  1  0.17778199  0.21652886  0.42243065  1  0.139985  -0.013043  3.676388  -0.013  0.108586  -0.002667  3.930247  -0.003  0.12104  -0.003866  3.945657  -0.005  0.053934  0.100729  -0.00163  3.920176  -0.002
C  C28  1  0.17776562  0.28348155  0.92243008  1  0.140181  0.013054  3.676074  0.013  0.108874  0.002668  3.929945  0.003  0.121352  0.003869  3.945362  0.005  0.053996  0.10101  0.001632  3.919892  0.002
C  C29  1  0.82222724  0.78347274  0.57756479  1  0.140211  -0.013058  3.676469  -0.013  0.108848  -0.002669  3.930352  -0.003  0.121324  -0.003868  3.945778  -0.005  0.053987  0.100988  -0.001632  3.920263  -0.002
C  C30  1  0.78101022  0.81075922  0.13982775  1  -0.123394  -0.013723  3.761123  -0.013  -0.134492  -0.004483  4.012345  -0.005  -0.143621  -0.004295  4.033709  -0.005  -0.088789  -0.128522  -0.004506  3.997995  -0.005
C  C31  1  0.21898610  0.31076703  0.36017319  1  -0.123166  0.01369  3.76171  0.013  -0.134326  0.004483  4.012962  0.005  -0.143447  0.004294  4.034322  0.005  -0.088724  -0.128349  0.004506  3.998613  0.005
C  C32  1  0.21899070  0.18924060  0.86017319  1  -0.12335  -0.013709  3.761032  -0.013  -0.134481  -0.004481  4.012286  -0.005  -0.143612  -0.0043  4.033649  -0.005  -0.088769  -0.128517  -0.004506  3.997935  -0.005
C  C33  1  0.78103110  0.68923545  0.63981883  1  -0.123386  0.013709  3.761993  0.013  -0.134568  0.00448  4.013266  0.005  -0.143713  0.004299  4.034613  0.005  -0.088813  -0.128574  0.004505  3.998906  0.005
C  C34  1  0.91777792  0.81818338  0.21741859  1  -0.041818  0.015125  3.694684  0.014  -0.068315  0.0046  3.941823  0.004  -0.063095  0.004647  3.956995  0.004  -0.068645  -0.071669  0.00447  3.931473  0.004
C  C35  1  0.08224016  0.31818828  0.28258929  1  -0.041707  -0.015089  3.695252  -0.013  -0.068215  -0.004597  3.942416  -0.004  -0.063001  -0.004645  3.957585  -0.004  -0.068597  -0.071566  -0.004468  3.932077  -0.004
C  C36  1  0.08222541  0.18181822  0.78257890  1  -0.041855  0.015119  3.694581  0.014  -0.068367  0.004599  3.941742  0.004  -0.063146  0.004654  3.956916  0.004  -0.068641  -0.071725  0.004472  3.931418  0.004
C  C37  1  0.91775947  0.68181332  0.71740818  1  -0.041664  -0.015125  3.695278  -0.014  -0.068154  -0.004596  3.942435  -0.004  -0.062936  -0.004652  3.957609  -0.004  -0.068585  -0.071506  -0.004469  3.932083  -0.004
C  C38  1  0.10554060  0.73361155  0.23290832  1  0.007904  -0.011221  3.723755  -0.012  0.020205  -0.004245  3.94691  -0.005  0.01758  -0.003867  3.970317  -0.005  0.001406  0.021956  -0.004527  3.930966  -0.005
C  C39  1  0.89448236  0.23361364  0.26710201  1  0.00795  0.011206  3.724189  0.012  0.020245  0.004244  3.947318  0.005  0.01763  0.003868  3.970725  0.005  0.001431  0.021998  0.004526  3.931381  0.005
C  C40  1  0.89445163  0.26638740  0.76708911  1  0.007999  -0.01124  3.723497  -0.012  0.020338  -0.004245  3.946643  -0.005  0.017714  -0.003871  3.97005  -0.005  0.001441  0.022093  -0.004527  3.930716  -0.005
C  C41  1  0.10552423  0.76638619  0.73289827  1  0.007909  0.011245  3.724035  0.012  0.020215  0.004245  3.947174  0.005  0.017594  0.003871  3.970579  0.005  0.001437  0.021966  0.004528  3.931235  0.005
C  C42  1  0.14532762  0.64308110  0.16389806  1  0.200335  0.004085  3.735077  0.005  0.200485  -0.001155  3.973609  0.0  0.207467  -3.7e-05  3.997565  0.001  0.112473  0.196121  -0.002017  3.957385  -0.001
C  C43  1  0.85467495  0.14308589  0.33609596  1  0.200054  -0.004064  3.735667  -0.005  0.200069  0.001156  3.97425  0.0  0.207046  3.9e-05  3.998208  -0.001  0.112251  0.195704  0.002019  3.958019  0.001
C  C44  1  0.85467089  0.35691430  0.83610634  1  0.200319  0.004086  3.735042  0.005  0.200433  -0.001158  3.973628  0.0  0.207415  -3.4e-05  3.997583  0.001  0.112427  0.196068  -0.002018  3.957404  -0.001
C  C45  1  0.14532699  0.85691482  0.66389875  1  0.200211  -0.004082  3.735488  -0.005  0.200242  0.00116  3.974138  0.0  0.207224  3.5e-05  3.998093  -0.001  0.112336  0.195879  0.002019  3.957908  0.001
C  C46  1  0.34141533  0.56126401  0.17100388  1  -0.123811  -0.00862  3.69208  -0.008  -0.150874  -0.001885  3.9535  -0.002  -0.15389  -0.00204  3.972335  -0.002  -0.079636  -0.148685  -0.001819  3.940937  -0.002
C  C47  1  0.65858266  0.06126205  0.32899528  1  -0.123703  0.008624  3.691977  0.008  -0.150778  0.001885  3.953394  0.002  -0.153793  0.002039  3.97223  0.002  -0.079641  -0.148613  0.00182  3.940908  0.002
C  C48  1  0.65859473  0.43873405  0.82899780  1  -0.123896  -0.008645  3.692212  -0.008  -0.150968  -0.001883  3.953638  -0.002  -0.153988  -0.002042  3.972477  -0.002  -0.079675  -0.148767  -0.001819  3.941059  -0.002
C  C49  1  0.34141097  0.93874043  0.67100493  1  -0.123876  0.008629  3.692129  0.008  -0.150934  0.001884  3.953557  0.002  -0.15395  0.002042  3.972388  0.002  -0.079685  -0.148766  0.001821  3.941071  0.002
C  C50  1  0.48844192  0.56566434  0.24639796  1  -0.046929  0.008125  3.754707  0.008  -0.061007  0.001843  4.012603  0.002  -0.062841  0.001982  4.034458  0.002  -0.083192  -0.059606  0.001723  3.997618  0.002
C  C51  1  0.51155256  0.06566722  0.25360252  1  -0.047023  -0.008138  3.755013  -0.008  -0.061085  -0.001842  4.012914  -0.002  -0.062913  -0.001981  4.034752  -0.002  -0.083206  -0.059691  -0.001723  3.997918  -0.002
C  C52  1  0.51155519  0.43433372  0.75360366  1  -0.046996  0.008143  3.754744  0.008  -0.061033  0.001843  4.012631  0.002  -0.062865  0.001983  4.034486  0.002  -0.083203  -0.05963  0.001724  3.997637  0.002
C  C53  1  0.48844685  0.93433438  0.74639634  1  -0.046939  -0.008128  3.755233  -0.008  -0.060991  -0.001842  4.013096  -0.002  -0.06282  -0.001982  4.034943  -0.002  -0.08321  -0.059601  -0.001724  3.998118  -0.002
C  C54  1  0.44696641  0.65161552  0.31589209  1  -0.072174  -0.006971  3.754349  -0.006  -0.097626  -0.000671  4.003458  -0.001  -0.098477  -0.001232  4.024531  -0.001  -0.082118  -0.097038  -0.000129  3.989183  0.0
C  C55  1  0.55303745  0.15161839  0.18411015  1  -0.07206  0.00697  3.754677  0.006  -0.097551  0.000667  4.00376  0.001  -0.098358  0.001235  4.024846  0.001  -0.082104  -0.09696  0.000128  3.989488  0.0
C  C56  1  0.55302571  0.34838431  0.68410604  1  -0.072197  -0.006998  3.754365  -0.006  -0.097643  -0.000674  4.003451  -0.001  -0.098491  -0.001231  4.024526  -0.001  -0.082111  -0.097043  -0.000128  3.989185  0.0
C  C57  1  0.44696370  0.84838233  0.81588941  1  -0.072159  0.006974  3.754756  0.006  -0.097636  0.000675  4.003827  0.001  -0.098466  0.001229  4.024904  0.001  -0.082115  -0.097046  0.000129  3.989565  0.0
C  C58  1  0.26050563  0.73545512  0.31083114  1  -0.09497  0.016865  3.695261  0.017  -0.075761  0.007035  3.924285  0.008  -0.083849  0.005831  3.947753  0.007  -0.013259  -0.070404  0.007808  3.908572  0.008
C  C59  1  0.73949360  0.23544868  0.18918945  1  -0.09506  -0.016854  3.696151  -0.017  -0.075759  -0.007028  3.925049  -0.008  -0.083873  -0.005834  3.948542  -0.007  -0.01319  -0.070392  -0.007803  3.909333  -0.008
C  C60  1  0.73947471  0.26454294  0.68917109  1  -0.094923  0.016914  3.695191  0.017  -0.075742  0.007041  3.924266  0.008  -0.08383  0.005831  3.947736  0.007  -0.013297  -0.07041  0.00781  3.908594  0.008
C  C61  1  0.26050305  0.76455026  0.81081494  1  -0.094966  -0.01689  3.695927  -0.017  -0.075688  -0.007039  3.924857  -0.008  -0.083792  -0.005828  3.948345  -0.007  -0.013143  -0.070326  -0.007807  3.909146  -0.008
C  C62  1  0.24078819  0.82607237  0.38838997  1  0.626691  -0.004499  3.908675  -0.008  0.583275  -0.000249  4.21061  -0.003  0.620744  -0.000695  4.203476  -0.003  0.201522  0.558183  0.000182  4.214387  -0.003
C  C63  1  0.75922596  0.32605860  0.11163513  1  0.626883  0.004497  3.90923  0.008  0.583364  0.000243  4.211239  0.003  0.620845  0.000689  4.204112  0.003  0.201583  0.558264  -0.000188  4.215023  0.003
C  C64  1  0.75920533  0.17392038  0.61161094  1  0.626689  -0.004512  3.908688  -0.008  0.58324  -0.00025  4.210686  -0.003  0.620707  -0.000694  4.203553  -0.003  0.201547  0.558161  0.000182  4.21448  -0.003
C  C65  1  0.24076043  0.67393858  0.88837545  1  0.626845  0.004509  3.908513  0.008  0.583302  0.000247  4.210529  0.003  0.620777  0.000692  4.203404  0.003  0.201517  0.558206  -0.000184  4.214308  0.003
N  N66  1  0.99633176  0.63562460  0.08958701  1  -0.333123  -0.087518  3.315059  -0.103  -0.28589  -0.058853  3.603958  -0.075  -0.317498  -0.050858  3.626164  -0.068  -0.343159  -0.267359  -0.062338  3.590826  -0.077
N  N67  1  0.00367473  0.13564657  0.41040158  1  -0.333099  0.087524  3.315322  0.103  -0.285574  0.058872  3.603926  0.075  -0.317178  0.050873  3.626149  0.068  -0.34305  -0.267035  0.062358  3.590781  0.077
N  N68  1  0.00366109  0.36437700  0.91041805  1  -0.333184  -0.087505  3.315147  -0.103  -0.285954  -0.058855  3.604098  -0.075  -0.31756  -0.050864  3.626294  -0.068  -0.34318  -0.267418  -0.062337  3.590963  -0.077
N  N69  1  0.99634201  0.86436122  0.58959321  1  -0.333049  0.087552  3.315103  0.103  -0.285692  0.05888  3.603929  0.075  -0.317298  0.050884  3.626136  0.068  -0.343097  -0.267155  0.062367  3.590783  0.077
O  O70  1  0.03704232  0.88692435  0.39580946  1  -0.603427  0.103529  2.116938  0.13  -0.57329  0.067494  2.404914  0.095  -0.616487  0.054052  2.397955  0.08  -0.323065  -0.545044  0.075097  2.409604  0.102
O  O71  1  0.96290899  0.38692919  0.10418062  1  -0.60349  -0.10352  2.117947  -0.13  -0.573269  -0.067482  2.405965  -0.095  -0.61647  -0.054037  2.399007  -0.08  -0.323075  -0.545023  -0.075086  2.410653  -0.102
O  O72  1  0.96296208  0.11307547  0.60419289  1  -0.603506  0.103531  2.116943  0.13  -0.573344  0.067494  2.404934  0.095  -0.616542  0.054052  2.397977  0.08  -0.323063  -0.545098  0.075087  2.409631  0.102
O  O73  1  0.03706715  0.61307329  0.89581328  1  -0.603566  -0.10351  2.117516  -0.13  -0.573239  -0.06748  2.405389  -0.095  -0.616438  -0.054034  2.398434  -0.08  -0.323071  -0.544997  -0.075084  2.410079  -0.102
O  O74  1  0.41757368  0.83769500  0.44027615  1  -0.594493  6e-05  1.964805  0.001  -0.562715  -0.000133  2.206104  0.001  -0.587983  -0.000847  2.196636  0.0  -0.313105  -0.545141  0.000378  2.212192  0.001
O  O75  1  0.58242715  0.33772149  0.05973487  1  -0.594813  -6.3e-05  1.964167  -0.001  -0.562984  0.000134  2.205464  -0.001  -0.58826  0.000848  2.195987  0.0  -0.313302  -0.545409  -0.000377  2.211559  -0.001
O  O76  1  0.58242056  0.16229952  0.55973169  1  -0.594428  6.3e-05  1.96499  0.001  -0.562616  -0.000134  2.20628  0.001  -0.587889  -0.000847  2.196816  0.0  -0.313079  -0.545037  0.000379  2.21237  0.001
O  O77  1  0.41756513  0.66229427  0.94027365  1  -0.594763  -6.7e-05  1.963874  -0.001  -0.562948  0.000132  2.205212  -0.001  -0.58823  0.000847  2.195742  0.0  -0.313225  -0.545369  -0.00038  2.211302  -0.001
