# generated using pymatgen
data_CoH48C38(NO)4
_symmetry_space_group_name_H-M   'P 1'
_cell_length_a   8.32819881
_cell_length_b   11.03175825
_cell_length_c   11.53919437
_cell_angle_alpha   103.56079850
_cell_angle_beta   97.35330352
_cell_angle_gamma   98.22810997
_symmetry_Int_Tables_number   1
_chemical_formula_structural   CoH48C38(NO)4
_chemical_formula_sum   'Co1 H48 C38 N4 O4'
_cell_volume   1005.51456208
_cell_formula_units_Z   1
loop_
 _symmetry_equiv_pos_site_id
 _symmetry_equiv_pos_as_xyz
  1  'x, y, z'
loop_
 _atom_site_type_symbol
 _atom_site_label
 _atom_site_symmetry_multiplicity
 _atom_site_fract_x
 _atom_site_fract_y
 _atom_site_fract_z
 _atom_site_occupancy
 _atom_site_hse06_10hf_ddec_charge
 _atom_site_hse06_10hf_ddec_spin_density
 _atom_site_hse06_10hf_ddec_sum_bond_order
 _atom_site_hse06_10hf_magmom
 _atom_site_hse06_ddec_charge
 _atom_site_hse06_ddec_spin_density
 _atom_site_hse06_ddec_sum_bond_order
 _atom_site_hse06_magmom
 _atom_site_pbe_cm5_charge
 _atom_site_pbe_ddec_charge
 _atom_site_pbe_ddec_spin_density
 _atom_site_pbe_ddec_sum_bond_order
 _atom_site_pbe_magmom
Co  Co0  1  0.49978018  0.99974636  0.50000844  1  0.836772  0.187159  3.321902  0.083  0.903685  0.082902  3.281039  0.03  0.811297  0.807018  0.085303  3.347808  0.036
H  H1  1  0.84740135  0.07897713  0.51516566  1  0.112082  0.000708  0.987404  0.0  0.116212  0.000483  0.982614  0.0  0.130729  0.108248  0.000218  0.991875  0.0
H  H2  1  0.15256770  0.92105376  0.48484392  1  0.111992  0.000714  0.987269  0.0  0.116135  0.000485  0.982473  0.0  0.130578  0.107936  0.000263  0.992049  0.0
H  H3  1  0.03568877  0.27888381  0.51510944  1  0.130201  -0.00031  1.020402  0.0  0.134315  -0.000269  1.017711  0.0  0.115194  0.126671  0.000188  1.023591  0.0
H  H4  1  0.96431988  0.72116961  0.48492772  1  0.130541  -0.000312  1.019877  0.0  0.13467  -0.000265  1.017156  0.0  0.115289  0.126864  0.000197  1.023226  0.0
H  H5  1  0.60264533  0.44217804  0.44836652  1  0.129077  0.000101  0.993812  0.0  0.132265  7.7e-05  0.992769  0.0  0.114986  0.126513  -0.000172  0.995587  0.0
H  H6  1  0.39736684  0.55785545  0.55167439  1  0.12928  9.9e-05  0.993618  0.0  0.132479  7.7e-05  0.992561  0.0  0.115003  0.12651  -0.000157  0.995618  0.0
H  H7  1  0.43163910  0.23359166  0.44969164  1  0.110443  0.000655  0.981296  0.0  0.114501  0.000411  0.976258  0.0  0.130022  0.106816  0.000335  0.985798  0.0
H  H8  1  0.56841370  0.76639652  0.55030835  1  0.110491  0.000663  0.98108  0.0  0.114546  0.000415  0.976024  0.0  0.129849  0.106537  0.000461  0.986126  0.0
H  H9  1  0.82057375  0.04388679  0.85476740  1  0.127174  -0.001096  1.027151  0.0  0.130297  -0.0012  1.026073  0.0  0.103569  0.125152  -0.000572  1.027672  0.0
H  H10  1  0.17944798  0.95612733  0.14523113  1  0.127142  -0.001089  1.027131  0.0  0.130208  -0.001188  1.026112  0.0  0.103504  0.125107  -0.000497  1.02769  0.0
H  H11  1  0.49937936  0.28604785  0.01263729  1  0.096533  -0.000321  1.056076  -0.001  0.098564  -0.000509  1.055231  -0.001  0.096625  0.095458  -0.000111  1.056311  0.0
H  H12  1  0.50060925  0.71393053  0.98735650  1  0.096676  -0.000321  1.055914  -0.001  0.098641  -0.000506  1.055158  -0.001  0.096652  0.095594  -9.2e-05  1.056159  0.0
H  H13  1  0.55153031  0.20027147  0.16631105  1  0.115285  -0.000221  1.015399  0.0  0.116513  -0.000272  1.015377  0.0  0.082268  0.114543  0.000116  1.015392  0.0
H  H14  1  0.44847432  0.79974194  0.83369531  1  0.115397  -0.000223  1.015531  0.0  0.116605  -0.000279  1.015545  0.0  0.082315  0.114644  0.000137  1.015557  0.0
H  H15  1  0.72474969  0.16427975  0.25006851  1  0.110211  0.001095  1.041216  0.001  0.109962  0.001169  1.044457  0.001  0.079132  0.110945  0.000876  1.038885  0.001
H  H16  1  0.27523716  0.83571100  0.74992608  1  0.110088  0.001092  1.041259  0.001  0.109774  0.001161  1.044577  0.001  0.079114  0.110876  0.000837  1.038996  0.001
H  H17  1  0.60416820  0.04755609  0.12373968  1  0.120525  0.001508  1.040504  0.0  0.121171  0.001587  1.042895  0.0  0.082967  0.119746  0.000738  1.039308  0.0
H  H18  1  0.39581749  0.95244908  0.87628051  1  0.120494  0.001524  1.0405  0.0  0.121101  0.00161  1.042908  0.0  0.082918  0.119624  0.000862  1.039403  0.0
H  H19  1  0.91799841  0.37113692  0.06769300  1  0.117717  5.2e-05  1.012179  0.0  0.119208  1.9e-05  1.012145  0.0  0.084321  0.11659  3.3e-05  1.012269  0.0
H  H20  1  0.08201281  0.62884016  0.93228434  1  0.117704  5.2e-05  1.01191  0.0  0.119195  2e-05  1.011876  0.0  0.084305  0.116537  3.8e-05  1.012038  0.0
H  H21  1  0.90441352  0.35853357  0.21755479  1  0.117026  0.000645  1.013068  0.001  0.116962  0.000649  1.01489  0.001  0.082422  0.117805  0.00069  1.011013  0.0
H  H22  1  0.09562083  0.64144416  0.78241525  1  0.116951  0.000636  1.013024  0.001  0.116838  0.000636  1.014895  0.001  0.082424  0.117723  0.000642  1.010975  0.0
H  H23  1  0.73533678  0.39256693  0.12800081  1  0.11328  8e-05  1.042918  0.0  0.114019  6.5e-05  1.044109  0.0  0.083213  0.112716  6e-05  1.042239  0.0
H  H24  1  0.26469030  0.60743476  0.87199202  1  0.113186  7.9e-05  1.042893  0.0  0.113914  6.3e-05  1.044081  0.0  0.083112  0.11261  6.3e-05  1.042221  0.0
H  H25  1  0.87424208  0.02166647  0.04633364  1  0.117198  -0.00011  1.029325  0.0  0.118505  -0.000141  1.029363  0.0  0.08646  0.11606  -3.7e-05  1.029665  0.0
H  H26  1  0.12575353  0.97831567  0.95366507  1  0.117038  -0.000109  1.02938  0.0  0.118322  -0.00014  1.029441  0.0  0.08637  0.115867  -2.8e-05  1.029757  0.0
H  H27  1  0.98175502  0.14561326  0.17180222  1  0.12224  -0.0002  0.99792  0.0  0.123713  -0.000201  0.997558  0.0  0.086643  0.121395  4.5e-05  0.997995  0.0
H  H28  1  0.01824371  0.85437168  0.82819564  1  0.122204  -0.000201  0.998088  0.0  0.12363  -0.0002  0.997769  0.0  0.086684  0.121378  5e-05  0.998147  0.0
H  H29  1  0.00240520  0.15403475  0.02233883  1  0.113704  -7.6e-05  1.035623  0.0  0.114714  -9.3e-05  1.036008  0.0  0.085049  0.112825  -4.8e-05  1.035637  0.0
H  H30  1  0.99759160  0.84594735  0.97765478  1  0.113571  -7.6e-05  1.035706  0.0  0.114598  -9.1e-05  1.036073  0.0  0.084987  0.112693  -4.9e-05  1.035711  0.0
H  H31  1  0.23193469  0.28776901  0.99554395  1  0.116254  3.8e-05  1.015492  0.0  0.117645  1.1e-05  1.015312  0.0  0.084814  0.115119  3e-05  1.015831  0.0
H  H32  1  0.76805512  0.71220935  0.00444733  1  0.116047  3.8e-05  1.015452  0.0  0.117423  1e-05  1.015286  0.0  0.084714  0.114902  3.3e-05  1.015802  0.0
H  H33  1  0.13583226  0.38627596  0.91775778  1  0.123554  -2.8e-05  1.008381  0.0  0.124752  -2.4e-05  1.008651  0.0  0.088384  0.122869  -2.8e-05  1.008003  0.0
H  H34  1  0.86414716  0.61370921  0.08224099  1  0.123529  -2.8e-05  1.008524  0.0  0.124697  -2.3e-05  1.008825  0.0  0.088369  0.122834  -2.5e-05  1.008159  0.0
H  H35  1  0.35003839  0.42632851  0.97416424  1  0.114263  5.1e-05  1.019793  0.0  0.115409  5e-06  1.019968  0.0  0.083905  0.113478  4.4e-05  1.019613  0.0
H  H36  1  0.64994272  0.57366333  0.02584221  1  0.114274  5.1e-05  1.019782  0.0  0.115384  5e-06  1.01999  0.0  0.083844  0.113472  4.3e-05  1.019625  0.0
H  H37  1  0.13303489  0.11156924  0.66385554  1  0.12459  4.9e-05  1.030553  0.0  0.127114  -4.2e-05  1.029408  0.0  0.084581  0.122941  8.5e-05  1.030964  0.0
H  H38  1  0.86697259  0.88843164  0.33612754  1  0.124646  4.5e-05  1.030602  0.0  0.12716  -4.5e-05  1.029478  0.0  0.084587  0.122973  8.4e-05  1.031044  0.0
H  H39  1  0.01228727  0.20748395  0.75000879  1  0.116724  -0.000131  1.020686  0.0  0.11715  -0.000173  1.022318  0.0  0.082896  0.116472  9.2e-05  1.019583  0.0
H  H40  1  0.98772031  0.79250749  0.24998176  1  0.116693  -0.000127  1.020642  0.0  0.117103  -0.000165  1.022292  0.0  0.082935  0.116535  8.4e-05  1.019409  0.0
H  H41  1  0.10996285  0.09791676  0.81128936  1  0.114917  -0.000109  1.032653  0.0  0.115946  -0.000128  1.03308  0.0  0.082455  0.113895  -3.6e-05  1.032838  0.0
H  H42  1  0.89004350  0.90206988  0.18868963  1  0.114883  -0.000109  1.032698  0.0  0.115924  -0.000128  1.033101  0.0  0.082429  0.113809  -2.6e-05  1.032947  0.0
H  H43  1  0.40671635  0.43391865  0.76349758  1  0.11299  -5.8e-05  1.009172  0.0  0.113905  -6.9e-05  1.009748  0.0  0.080844  0.112416  4e-06  1.008724  0.0
H  H44  1  0.59329033  0.56608340  0.23651689  1  0.112954  -5.7e-05  1.009067  0.0  0.113845  -6.6e-05  1.009665  0.0  0.080828  0.112359  -7e-06  1.008608  0.0
H  H45  1  0.19000344  0.40289343  0.71404220  1  0.113941  -0.000372  1.037801  0.0  0.113739  -0.000377  1.03975  0.0  0.082706  0.114663  0.000339  1.035801  0.0
H  H46  1  0.81001329  0.59711510  0.28596420  1  0.113895  -0.000373  1.037618  0.0  0.113665  -0.000371  1.03958  0.0  0.082706  0.114655  0.000314  1.035543  0.0
H  H47  1  0.31587076  0.30605395  0.63594640  1  0.117047  0.000113  1.049328  0.0  0.119258  1.2e-05  1.048389  0.0  0.082717  0.115728  0.000119  1.049487  0.0
H  H48  1  0.68414309  0.69395271  0.36406019  1  0.116807  0.000116  1.049446  0.0  0.119005  1.2e-05  1.048527  0.0  0.082643  0.115533  0.000123  1.04957  0.0
C  C49  1  0.80025236  0.16217312  0.50068246  1  0.098166  0.003154  3.933685  0.004  0.110159  0.004672  3.943068  0.004  0.054357  0.089954  -0.003684  3.930295  -0.004
C  C50  1  0.19971833  0.83786438  0.49932437  1  0.098366  0.003094  3.933355  0.004  0.110447  0.004512  3.942667  0.004  0.054104  0.08989  -0.002923  3.930575  -0.004
C  C51  1  0.90279588  0.27235215  0.50090450  1  -0.194154  -0.023189  3.92603  -0.013  -0.201041  -0.021007  3.943405  -0.012  -0.076106  -0.1913  0.025489  3.916512  0.015
C  C52  1  0.09722435  0.72771357  0.49914593  1  -0.194441  -0.023129  3.926007  -0.013  -0.201342  -0.020855  3.943293  -0.012  -0.076255  -0.191353  0.024618  3.916941  0.015
C  C53  1  0.83265892  0.37774434  0.48529886  1  0.210507  -0.008474  4.0685  -0.002  0.215213  -0.005729  4.088606  0.0  0.1061  0.208951  0.009568  4.054907  0.003
C  C54  1  0.16733897  0.62228542  0.51472955  1  0.21083  -0.008666  4.068644  -0.002  0.215647  -0.006145  4.088668  -0.001  0.105883  0.208311  0.011355  4.055729  0.004
C  C55  1  0.66004242  0.36356330  0.46452681  1  -0.19214  -0.018286  3.929742  -0.01  -0.199519  -0.015402  3.947722  -0.008  -0.074465  -0.189171  0.021877  3.919651  0.012
C  C56  1  0.33998926  0.63648042  0.53551550  1  -0.19218  -0.018201  3.929484  -0.009  -0.199544  -0.015134  3.94733  -0.008  -0.074453  -0.18898  0.020889  3.920109  0.012
C  C57  1  0.56551865  0.24974844  0.46498347  1  0.100302  -0.00411  3.933956  -0.001  0.112629  -0.001986  3.944171  0.0  0.054267  0.091957  0.004985  3.929921  0.0
C  C58  1  0.43452754  0.75024735  0.53500893  1  0.100395  -0.004212  3.932971  -0.001  0.112844  -0.002239  3.943077  0.0  0.053716  0.091452  0.006539  3.929945  0.001
C  C59  1  0.47536637  0.12847177  0.72035223  1  0.169295  0.096371  4.047822  0.051  0.182934  0.110647  4.062358  0.057  0.075193  0.159142  0.04651  4.037905  0.024
C  C60  1  0.52455222  0.87144390  0.27965442  1  0.169003  0.095679  4.048122  0.051  0.182587  0.109658  4.062994  0.056  0.07521  0.159046  0.040079  4.038084  0.02
C  C61  1  0.61801606  0.07089640  0.73453589  1  0.233307  0.080134  4.134384  0.042  0.249725  0.091392  4.147337  0.047  0.072992  0.221476  0.03959  4.124451  0.02
C  C62  1  0.38189221  0.92901180  0.26547340  1  0.232618  0.07952  4.134721  0.042  0.248927  0.090486  4.148025  0.046  0.072703  0.220922  0.034159  4.124894  0.017
C  C63  1  0.71456100  0.09074275  0.84870920  1  -0.268745  -0.008543  3.995423  -0.008  -0.277714  -0.018032  4.015101  -0.014  -0.114234  -0.261415  -0.000256  3.981252  -0.002
C  C64  1  0.28545697  0.90926103  0.15129713  1  -0.268729  -0.008467  3.995967  -0.008  -0.277699  -0.017878  4.015866  -0.014  -0.114413  -0.261559  0.000532  3.981959  -0.001
C  C65  1  0.67190152  0.16875145  0.94895334  1  0.083506  0.062699  3.927902  0.039  0.086308  0.069246  3.951377  0.041  -0.008264  0.080547  0.029416  3.912048  0.017
C  C66  1  0.32809397  0.83124010  0.05103355  1  0.083324  0.062284  3.928056  0.038  0.086015  0.068656  3.951767  0.041  -0.008326  0.080407  0.024839  3.912255  0.015
C  C67  1  0.53077463  0.22550361  0.93292887  1  -0.196743  0.064422  3.995859  0.037  -0.199493  0.070402  4.018228  0.039  -0.10164  -0.194038  0.032452  3.979643  0.018
C  C68  1  0.46921630  0.77448898  0.06706390  1  -0.197426  0.063976  3.996412  0.036  -0.200256  0.069873  4.019047  0.038  -0.101872  -0.194636  0.02808  3.980168  0.015
C  C69  1  0.42960045  0.20776996  0.82236576  1  -0.034844  0.003281  3.90445  -0.002  -0.039777  -0.004198  3.929396  -0.007  -0.018178  -0.031116  0.003952  3.887469  0.001
C  C70  1  0.57039672  0.79223303  0.17763158  1  -0.034642  0.003286  3.904719  -0.002  -0.039622  -0.004166  3.929822  -0.007  -0.018158  -0.030918  0.003304  3.887623  0.001
C  C71  1  0.76924607  0.19448270  0.07630154  1  0.23707  0.000758  3.81658  0.0  0.23713  0.000505  3.835871  -0.001  -0.014243  0.237564  0.000703  3.803112  0.0
C  C72  1  0.23075098  0.80549558  0.92369039  1  0.237237  0.000757  3.816321  0.0  0.237222  0.000513  3.835801  0.0  -0.014228  0.237807  0.000605  3.802768  0.0
C  C73  1  0.65502681  0.14904250  0.15875266  1  -0.412036  0.005685  3.882794  0.003  -0.415343  0.006109  3.895238  0.004  -0.2475  -0.409938  0.003105  3.874252  0.002
C  C74  1  0.34498127  0.85096045  0.84125519  1  -0.412335  0.005669  3.882922  0.003  -0.415596  0.006101  3.895507  0.004  -0.247565  -0.410186  0.002625  3.874368  0.001
C  C75  1  0.83531973  0.33777394  0.12520304  1  -0.410325  0.004697  3.898486  0.003  -0.413403  0.004968  3.911036  0.003  -0.24288  -0.407859  0.002552  3.888985  0.002
C  C76  1  0.16469583  0.66221073  0.87478069  1  -0.410214  0.004664  3.898232  0.003  -0.413237  0.004925  3.910844  0.003  -0.242885  -0.407752  0.002251  3.888782  0.001
C  C77  1  0.91520959  0.12470624  0.07870828  1  -0.423951  -0.000712  3.925645  0.0  -0.426238  -0.000802  3.935524  0.0  -0.245109  -0.42214  -0.000298  3.918667  0.0
C  C78  1  0.08477802  0.87527785  0.92128493  1  -0.423612  -0.000709  3.925543  0.0  -0.425861  -0.000797  3.935492  0.0  -0.245064  -0.421783  -0.000269  3.918504  0.0
C  C79  1  0.27713075  0.26911208  0.80936865  1  0.260105  -0.000803  3.794937  0.0  0.261482  -0.00093  3.814991  0.0  -0.012618  0.258548  -0.000345  3.782513  0.0
C  C80  1  0.72286405  0.73088621  0.19063179  1  0.26019  -0.000799  3.794918  0.0  0.261586  -0.000925  3.814938  0.0  -0.012542  0.258717  -0.000281  3.782333  0.0
C  C81  1  0.24833948  0.34661331  0.93162385  1  -0.419441  -0.000256  3.917981  0.0  -0.422304  -0.000385  3.928646  0.0  -0.243049  -0.417026  -0.000139  3.910372  0.0
C  C82  1  0.75165274  0.65336981  0.06837302  1  -0.419262  -0.000255  3.917872  0.0  -0.422114  -0.000382  3.928604  0.0  -0.242956  -0.416871  -0.000108  3.910275  0.0
C  C83  1  0.12372819  0.16507098  0.75491827  1  -0.415598  2.2e-05  3.875434  0.0  -0.418689  -0.000379  3.885681  0.0  -0.247082  -0.412996  0.000408  3.868121  0.0
C  C84  1  0.87627621  0.83492713  0.24507086  1  -0.415604  1.9e-05  3.875432  0.0  -0.418693  -0.000365  3.885691  0.0  -0.247138  -0.413033  0.000368  3.868108  0.0
C  C85  1  0.29872992  0.35831176  0.72547139  1  -0.425645  0.000283  3.908838  0.0  -0.428733  -0.000121  3.920458  0.0  -0.248496  -0.423082  0.000911  3.899565  0.001
C  C86  1  0.70128143  0.64170439  0.27453099  1  -0.425504  0.000281  3.908944  0.0  -0.428566  -0.000132  3.92059  0.0  -0.24852  -0.422942  0.000863  3.899541  0.001
N  N87  1  0.63479773  0.15160834  0.48500579  1  -0.186855  -0.021379  3.620962  -0.017  -0.2052  -0.020578  3.635847  -0.016  -0.330554  -0.181115  0.035415  3.61564  0.029
N  N88  1  0.36523702  0.84841074  0.51490748  1  -0.187597  -0.021534  3.626022  -0.017  -0.205993  -0.020707  3.640844  -0.016  -0.332703  -0.182722  0.039516  3.62128  0.033
N  N89  1  0.92138211  0.49661117  0.48979158  1  -0.156271  -0.07217  3.260792  -0.048  -0.148602  -0.062921  3.257267  -0.042  -0.166768  -0.166205  0.083764  3.26818  0.061
N  N90  1  0.07859699  0.50347945  0.51022678  1  -0.156288  -0.071641  3.262479  -0.048  -0.148724  -0.061827  3.259  -0.041  -0.166454  -0.165293  0.079704  3.270156  0.057
O  O91  1  0.39337038  0.10167774  0.60816146  1  -0.433119  0.127678  2.399095  0.121  -0.471209  0.135259  2.404793  0.126  -0.280716  -0.404599  0.070082  2.392904  0.064
O  O92  1  0.60674506  0.89846523  0.39181915  1  -0.433175  0.126944  2.399481  0.121  -0.471514  0.133872  2.405394  0.124  -0.280736  -0.40454  0.06135  2.393368  0.056
O  O93  1  0.65167986  0.99840102  0.63454335  1  -0.446771  0.114753  2.338746  0.11  -0.484491  0.119264  2.341129  0.112  -0.291123  -0.416731  0.065177  2.333545  0.06
O  O94  1  0.34840405  0.00169775  0.36544553  1  -0.446801  0.114117  2.338219  0.109  -0.484725  0.118045  2.340818  0.11  -0.291591  -0.417043  0.059009  2.333232  0.054
