# generated using pymatgen
data_ZnH3(C2O)4
_symmetry_space_group_name_H-M   'P 1'
_cell_length_a   8.99887434
_cell_length_b   9.59040783
_cell_length_c   9.59040701
_cell_angle_alpha   100.99495544
_cell_angle_beta   101.74267541
_cell_angle_gamma   101.74269665
_symmetry_Int_Tables_number   1
_chemical_formula_structural   ZnH3(C2O)4
_chemical_formula_sum   'Zn4 H12 C32 O16'
_cell_volume   769.78111755
_cell_formula_units_Z   4
loop_
 _symmetry_equiv_pos_site_id
 _symmetry_equiv_pos_as_xyz
  1  'x, y, z'
loop_
 _atom_site_type_symbol
 _atom_site_label
 _atom_site_symmetry_multiplicity
 _atom_site_fract_x
 _atom_site_fract_y
 _atom_site_fract_z
 _atom_site_occupancy
 _atom_site_pbe_bader_spin_density
 _atom_site_pbe_cm5_charge
 _atom_site_pbe_ddec_charge
 _atom_site_pbe_ddec_spin_density
 _atom_site_pbe_ddec_sum_bond_order
 _atom_site_pbe_magmom
Zn  Zn0  1  0.10521759  0.89549724  0.82009241  1  0  0.707758  0.970137  0  2.286217  0
Zn  Zn1  1  0.39478319  0.17990589  0.10450129  1  0  0.707731  0.970096  0  2.286227  0
Zn  Zn2  1  0.89478283  0.10450122  0.17990616  1  0  0.707754  0.970104  0  2.286227  0
Zn  Zn3  1  0.60521752  0.82009366  0.89549754  1  0  0.707747  0.97012  0  2.286267  0
H  H4  1  0.96600269  0.37161524  0.91099516  1  0  0.104226  0.107752  0  1.008506  0
H  H5  1  0.53399650  0.08900346  0.62838467  1  0  0.104232  0.107779  0  1.008505  0
H  H6  1  0.03399717  0.62838541  0.08900476  1  0  0.10422  0.107745  0  1.008518  0
H  H7  1  0.46600308  0.91099609  0.37161603  1  0  0.104217  0.10774  0  1.008511  0
H  H8  1  0.96528417  0.54151065  0.74355676  1  0  0.098288  0.101133  0  1.045849  0
H  H9  1  0.53471403  0.25644225  0.45848988  1  0  0.098289  0.10115  0  1.04584  0
H  H10  1  0.03471570  0.45849000  0.25644316  1  0  0.098285  0.101126  0  1.045866  0
H  H11  1  0.46528470  0.74355840  0.54151086  1  0  0.098292  0.10115  0  1.045866  0
H  H12  1  0.81102152  0.87656233  0.49408314  1  0  0.114621  0.124691  0  0.983801  0
H  H13  1  0.68897703  0.50591765  0.12343732  1  0  0.114612  0.124735  0  0.983785  0
H  H14  1  0.18897949  0.12343832  0.50591699  1  0  0.11463  0.124705  0  0.983819  0
H  H15  1  0.31102170  0.49408300  0.87656342  1  0  0.114631  0.124752  0  0.983784  0
C  C16  1  0.75000078  0.11929223  0.88070767  1  0  0.226422  0.615321  0  4.159627  0
C  C17  1  0.25000022  0.88070842  0.11929247  1  0  0.226428  0.615336  0  4.159696  0
C  C18  1  0.74999973  0.22000411  0.77999528  1  0  -0.020766  -0.045558  0  3.965581  0
C  C19  1  0.25000013  0.77999654  0.22000464  1  0  -0.020788  -0.045612  0  3.965621  0
C  C20  1  0.87099436  0.34833815  0.81240192  1  0  -0.081153  -0.07753  0  3.959106  0
C  C21  1  0.62900457  0.18759735  0.65166034  1  0  -0.081157  -0.077583  0  3.959126  0
C  C22  1  0.12900521  0.65166140  0.18759774  1  0  -0.08114  -0.077515  0  3.959062  0
C  C23  1  0.37099416  0.81240330  0.34833936  1  0  -0.081156  -0.077509  0  3.959107  0
C  C24  1  0.86998128  0.44309320  0.71921413  1  0  -0.088018  -0.121957  0  3.945208  0
C  C25  1  0.63001842  0.28078508  0.55690605  1  0  -0.088039  -0.121992  0  3.945226  0
C  C26  1  0.13001859  0.55690745  0.28078684  1  0  -0.088007  -0.121947  0  3.945239  0
C  C27  1  0.36998145  0.71921557  0.44309387  1  0  -0.088026  -0.122  0  3.945223  0
C  C28  1  0.74999885  0.41046285  0.58953583  1  0  0.004023  0.092498  0  3.959269  0
C  C29  1  0.24999960  0.58953670  0.41046466  1  0  0.004004  0.09248  0  3.959299  0
C  C30  1  0.74999995  0.51053839  0.48946035  1  0  0.021526  0.06148  0  3.884468  0
C  C31  1  0.25000189  0.48946117  0.51053975  1  0  0.021544  0.061505  0  3.884525  0
C  C32  1  0.77472337  0.66320351  0.54300592  1  0  -0.004244  -0.064782  0  3.935818  0
C  C33  1  0.72527606  0.45699320  0.33679665  1  0  -0.004292  -0.064792  0  3.935897  0
C  C34  1  0.22527792  0.33679824  0.45699447  1  0  -0.004241  -0.064776  0  3.93582  0
C  C35  1  0.27472436  0.54300526  0.66320401  1  0  -0.004246  -0.064688  0  3.935756  0
C  C36  1  0.76729170  0.73191231  0.69433772  1  0  0.228235  0.601293  0  4.169167  0
C  C37  1  0.73270842  0.30566049  0.26808755  1  0  0.228203  0.601226  0  4.169235  0
C  C38  1  0.23270930  0.26808833  0.30566137  1  0  0.228171  0.601167  0  4.169269  0
C  C39  1  0.26729087  0.69433797  0.73191289  1  0  0.228207  0.601146  0  4.169291  0
C  C40  1  0.78444104  0.75828125  0.44968827  1  0  -0.066421  -0.09291  0  3.911149  0
C  C41  1  0.71555828  0.55031043  0.24171714  1  0  -0.066346  -0.092922  0  3.911082  0
C  C42  1  0.21555967  0.24171831  0.55031161  1  0  -0.066445  -0.09296  0  3.911109  0
C  C43  1  0.28444243  0.44968913  0.75828378  1  0  -0.066381  -0.092992  0  3.91106  0
C  C44  1  0.74999911  0.70176642  0.29823275  1  0  -0.012522  -0.033716  0  3.997388  0
C  C45  1  0.25000046  0.29823313  0.70176796  1  0  -0.012503  -0.033644  0  3.997321  0
C  C46  1  0.75000001  0.80224077  0.19775910  1  0  0.236363  0.622754  0  4.168302  0
C  C47  1  0.24999927  0.19775768  0.80224030  1  0  0.236397  0.622764  0  4.168396  0
O  O48  1  0.87183813  0.14594396  0.98646169  1  0  -0.317027  -0.565678  0  2.398343  0
O  O49  1  0.62816227  0.01353720  0.85405617  1  0  -0.317011  -0.56568  0  2.398337  0
O  O50  1  0.12816286  0.85405668  0.01353740  1  0  -0.317014  -0.565687  0  2.398366  0
O  O51  1  0.37183731  0.98646236  0.14594453  1  0  -0.317022  -0.565683  0  2.398357  0
O  O52  1  0.87161824  0.84419696  0.77560560  1  0  -0.314494  -0.560146  0  2.380278  0
O  O53  1  0.62838171  0.22439345  0.15580113  1  0  -0.314495  -0.560145  0  2.380267  0
O  O54  1  0.12838247  0.15580260  0.22439428  1  0  -0.314478  -0.560083  0  2.380267  0
O  O55  1  0.37161871  0.77560501  0.84419849  1  0  -0.314525  -0.560125  0  2.380333  0
O  O56  1  0.64074579  0.68226787  0.72913102  1  0  -0.300601  -0.529512  0  2.322115  0
O  O57  1  0.85925362  0.27086678  0.31773225  1  0  -0.300563  -0.529431  0  2.322132  0
O  O58  1  0.35925407  0.31773277  0.27086681  1  0  -0.300546  -0.529426  0  2.322164  0
O  O59  1  0.14074538  0.72913059  0.68226898  1  0  -0.300578  -0.529442  0  2.322138  0
O  O60  1  0.82863169  0.93465234  0.25336782  1  0  -0.308672  -0.548833  0  2.390032  0
O  O61  1  0.67136655  0.74663117  0.06534569  1  0  -0.308707  -0.548874  0  2.389985  0
O  O62  1  0.17136759  0.06534611  0.74663054  1  0  -0.308719  -0.548876  0  2.390034  0
O  O63  1  0.32863189  0.25336838  0.93465376  1  0  -0.308709  -0.548879  0  2.390065  0
