# generated using pymatgen
data_Ag2H14C10S3N2
_symmetry_space_group_name_H-M   'P 1'
_cell_length_a   9.48678305
_cell_length_b   10.41904972
_cell_length_c   15.70843509
_cell_angle_alpha   96.48703161
_cell_angle_beta   90.03771793
_cell_angle_gamma   117.04430549
_symmetry_Int_Tables_number   1
_chemical_formula_structural   Ag2H14C10S3N2
_chemical_formula_sum   'Ag8 H56 C40 S12 N8'
_cell_volume   1371.66556187
_cell_formula_units_Z   4
loop_
 _symmetry_equiv_pos_site_id
 _symmetry_equiv_pos_as_xyz
  1  'x, y, z'
loop_
 _atom_site_type_symbol
 _atom_site_label
 _atom_site_symmetry_multiplicity
 _atom_site_fract_x
 _atom_site_fract_y
 _atom_site_fract_z
 _atom_site_occupancy
 _atom_site_hle17_bader_spin_density
 _atom_site_hle17_ddec_charge
 _atom_site_hle17_ddec_spin_density
 _atom_site_hle17_ddec_sum_bond_order
 _atom_site_hle17_magmom
 _atom_site_hse06_10hf_bader_spin_density
 _atom_site_hse06_10hf_ddec_charge
 _atom_site_hse06_10hf_ddec_spin_density
 _atom_site_hse06_10hf_ddec_sum_bond_order
 _atom_site_hse06_10hf_magmom
 _atom_site_hse06_bader_spin_density
 _atom_site_hse06_ddec_charge
 _atom_site_hse06_ddec_spin_density
 _atom_site_hse06_ddec_sum_bond_order
 _atom_site_hse06_magmom
 _atom_site_pbe_bader_spin_density
 _atom_site_pbe_cm5_charge
 _atom_site_pbe_ddec_charge
 _atom_site_pbe_ddec_spin_density
 _atom_site_pbe_ddec_sum_bond_order
 _atom_site_pbe_magmom
Ag  Ag0  1  0.50588384  0.14044218  0.51823063  1  0  0.248319  0  2.164293  0  0  0.171119  0  2.68155  0  0  0.188828  0  2.635906  0  0  0.274027  0.159179  0  2.714185  0
Ag  Ag1  1  0.63453358  0.14041950  0.01834138  1  0  0.248318  0  2.164564  0  0  0.171292  0  2.681487  0  0  0.188994  0  2.635856  0  0  0.273989  0.159329  0  2.714139  0
Ag  Ag2  1  0.49411255  0.85955702  0.48177287  1  0  0.248321  0  2.16426  0  0  0.171154  0  2.681471  0  0  0.188847  0  2.635835  0  0  0.274031  0.159203  0  2.714111  0
Ag  Ag3  1  0.36546802  0.85957535  0.98166180  1  0  0.248257  0  2.164683  0  0  0.171232  0  2.681598  0  0  0.188936  0  2.635967  0  0  0.273956  0.159271  0  2.714247  0
Ag  Ag4  1  0.40453853  0.93686723  0.65552065  1  0  0.329688  0  1.904697  0  0  0.227292  0  2.400384  0  0  0.248935  0  2.353499  0  0  0.314441  0.209791  0  2.434664  0
Ag  Ag5  1  0.53232168  0.93671792  0.15545579  1  0  0.329396  0  1.902721  0  0  0.226959  0  2.39805  0  0  0.248609  0  2.351224  0  0  0.313837  0.209459  0  2.432288  0
Ag  Ag6  1  0.59546150  0.06312871  0.34448324  1  0  0.329642  0  1.904753  0  0  0.227234  0  2.400463  0  0  0.248879  0  2.353577  0  0  0.314423  0.209731  0  2.434745  0
Ag  Ag7  1  0.46767511  0.06327365  0.84454332  1  0  0.329355  0  1.90277  0  0  0.226901  0  2.398108  0  0  0.248548  0  2.351281  0  0  0.313818  0.209401  0  2.432342  0
H  H8  1  0.76769098  0.42749232  0.62504466  1  0  0.095343  0  0.993992  0  0  0.103435  0  1.065481  0  0  0.106591  0  1.064227  0  0  0.093956  0.101448  0  1.066029  0
H  H9  1  0.65973262  0.42790013  0.12513597  1  0  0.096141  0  0.993544  0  0  0.103685  0  1.065669  0  0  0.106815  0  1.064502  0  0  0.093904  0.101721  0  1.066143  0
H  H10  1  0.23230860  0.57250904  0.37495709  1  0  0.095314  0  0.994031  0  0  0.103394  0  1.065518  0  0  0.106553  0  1.064263  0  0  0.093928  0.101411  0  1.066063  0
H  H11  1  0.34027642  0.57209907  0.87486880  1  0  0.095983  0  0.993645  0  0  0.103543  0  1.065777  0  0  0.106662  0  1.064639  0  0  0.093876  0.101579  0  1.066251  0
H  H12  1  0.02465375  0.57901191  0.71097026  1  0  0.096238  0  0.943883  0  0  0.107181  0  1.004567  0  0  0.109729  0  1.002966  0  0  0.102497  0.106222  0  1.004028  0
H  H13  1  0.55471410  0.57962509  0.21123184  1  0  0.095858  0  0.944679  0  0  0.106963  0  1.005031  0  0  0.109556  0  1.003325  0  0  0.102066  0.105986  0  1.004544  0
H  H14  1  0.97534896  0.42098728  0.28903260  1  0  0.096236  0  0.943874  0  0  0.107224  0  1.004506  0  0  0.10973  0  1.002951  0  0  0.102496  0.106278  0  1.003955  0
H  H15  1  0.44530187  0.42037953  0.78877205  1  0  0.095862  0  0.944627  0  0  0.106906  0  1.00506  0  0  0.109496  0  1.003352  0  0  0.102041  0.105936  0  1.004571  0
H  H16  1  0.05782202  0.51625694  0.85696510  1  0  0.09391  0  0.989028  0  0  0.10379  0  1.05429  0  0  0.105922  0  1.055075  0  0  0.095988  0.101004  0  1.056559  0
H  H17  1  0.45872168  0.51646117  0.35708373  1  0  0.093331  0  0.988988  0  0  0.103296  0  1.054202  0  0  0.105405  0  1.055028  0  0  0.095871  0.100534  0  1.056384  0
H  H18  1  0.94217902  0.48373681  0.14303546  1  0  0.093918  0  0.989095  0  0  0.103809  0  1.054337  0  0  0.105941  0  1.055121  0  0  0.095967  0.101023  0  1.056609  0
H  H19  1  0.54128745  0.48354454  0.64292024  1  0  0.093309  0  0.989034  0  0  0.103303  0  1.054205  0  0  0.105421  0  1.055019  0  0  0.095852  0.10053  0  1.056415  0
H  H20  1  0.83393102  0.30061914  0.90860187  1  0  0.056718  0  0.987237  0  0  0.068106  0  1.05915  0  0  0.071071  0  1.054376  0  0  0.093504  0.06573  0  1.062878  0
H  H21  1  0.46623355  0.30016482  0.40838277  1  0  0.056946  0  0.987076  0  0  0.068611  0  1.058765  0  0  0.07162  0  1.053877  0  0  0.093404  0.066242  0  1.062464  0
H  H22  1  0.16606479  0.69937679  0.09139884  1  0  0.056741  0  0.987362  0  0  0.068117  0  1.059281  0  0  0.071081  0  1.05451  0  0  0.093496  0.065743  0  1.063007  0
H  H23  1  0.53376015  0.69983111  0.59161731  1  0  0.056975  0  0.987045  0  0  0.06859  0  1.058781  0  0  0.071602  0  1.053884  0  0  0.09343  0.066219  0  1.062482  0
H  H24  1  0.18463206  0.42436237  0.62195139  1  0  0.060277  0  0.947092  0  0  0.078319  0  1.008409  0  0  0.077878  0  1.010765  0  0  0.102039  0.078517  0  1.006816  0
H  H25  1  0.23966743  0.42450336  0.12220142  1  0  0.060497  0  0.946685  0  0  0.078423  0  1.008634  0  0  0.078028  0  1.010964  0  0  0.102026  0.07858  0  1.007078  0
H  H26  1  0.81536021  0.57564334  0.37805131  1  0  0.06027  0  0.947032  0  0  0.078334  0  1.008328  0  0  0.077891  0  1.010689  0  0  0.10204  0.078528  0  1.006738  0
H  H27  1  0.76033315  0.57549580  0.87779507  1  0  0.060507  0  0.946685  0  0  0.07839  0  1.00868  0  0  0.077991  0  1.011011  0  0  0.102018  0.07855  0  1.00712  0
H  H28  1  0.04008236  0.42450321  0.55016986  1  0  0.068134  0  0.966661  0  0  0.081538  0  1.033636  0  0  0.082276  0  1.033833  0  0  0.094453  0.081183  0  1.033192  0
H  H29  1  0.38405890  0.42474599  0.05028507  1  0  0.067799  0  0.96615  0  0  0.081238  0  1.033668  0  0  0.081987  0  1.033857  0  0  0.094588  0.080881  0  1.033219  0
H  H30  1  0.95991568  0.57550140  0.44983021  1  0  0.068156  0  0.966668  0  0  0.081559  0  1.033652  0  0  0.082297  0  1.03385  0  0  0.094488  0.081204  0  1.033206  0
H  H31  1  0.61594435  0.57525427  0.94971341  1  0  0.067811  0  0.96599  0  0  0.081262  0  1.03349  0  0  0.082009  0  1.033679  0  0  0.094583  0.080905  0  1.033042  0
H  H32  1  0.30204226  0.49441116  0.48373461  1  0  0.091804  0  0.969237  0  0  0.113638  0  1.037571  0  0  0.114596  0  1.03717  0  0  0.081642  0.112732  0  1.038369  0
H  H33  1  0.19155427  0.49451712  0.98397162  1  0  0.091381  0  0.96839  0  0  0.113167  0  1.036997  0  0  0.114126  0  1.036566  0  0  0.0816  0.11227  0  1.037786  0
H  H34  1  0.69796164  0.50559674  0.51627143  1  0  0.091735  0  0.969192  0  0  0.113585  0  1.037526  0  0  0.114544  0  1.037122  0  0  0.081607  0.112676  0  1.038334  0
H  H35  1  0.80845216  0.50548530  0.01602575  1  0  0.091393  0  0.96841  0  0  0.113195  0  1.036992  0  0  0.114155  0  1.03656  0  0  0.081601  0.112295  0  1.037784  0
H  H36  1  0.14927131  0.33164659  0.42659340  1  0  0.109596  0  0.943098  0  0  0.13255  0  1.000026  0  0  0.13384  0  1.000696  0  0  0.088579  0.131656  0  0.999356  0
H  H37  1  0.18159035  0.33169749  0.92687203  1  0  0.1094  0  0.943169  0  0  0.132594  0  0.999762  0  0  0.133866  0  1.000468  0  0  0.088615  0.131693  0  0.999096  0
H  H38  1  0.85073946  0.66836238  0.57341082  1  0  0.109524  0  0.943143  0  0  0.132427  0  1.000155  0  0  0.133715  0  1.00083  0  0  0.088537  0.131541  0  0.999488  0
H  H39  1  0.81841768  0.66830602  0.07312478  1  0  0.109438  0  0.943081  0  0  0.13265  0  0.999658  0  0  0.133924  0  1.00036  0  0  0.08862  0.131744  0  0.998996  0
H  H40  1  0.28918588  0.32203839  0.49764497  1  0  0.092759  0  0.976626  0  0  0.111165  0  1.049985  0  0  0.112523  0  1.049457  0  0  0.080056  0.110005  0  1.050459  0
H  H41  1  0.03235453  0.32214473  0.99799161  1  0  0.092505  0  0.977232  0  0  0.110878  0  1.050732  0  0  0.112236  0  1.050192  0  0  0.079925  0.109725  0  1.05119  0
H  H42  1  0.71081646  0.67797060  0.50236306  1  0  0.092762  0  0.976655  0  0  0.111202  0  1.049967  0  0  0.112565  0  1.049436  0  0  0.080071  0.110043  0  1.050444  0
H  H43  1  0.96764873  0.67785768  0.00200321  1  0  0.092445  0  0.977291  0  0  0.110849  0  1.050767  0  0  0.112208  0  1.050227  0  0  0.079903  0.109695  0  1.051224  0
H  H44  1  0.20627294  0.20193251  0.61370771  1  0  0.060523  0  0.958795  0  0  0.077511  0  1.027305  0  0  0.077543  0  1.028027  0  0  0.094108  0.077012  0  1.027408  0
H  H45  1  0.99569568  0.20188875  0.11371120  1  0  0.060435  0  0.958269  0  0  0.07737  0  1.026755  0  0  0.077336  0  1.02754  0  0  0.09436  0.076927  0  1.026783  0
H  H46  1  0.79372510  0.79807209  0.38629045  1  0  0.060507  0  0.958856  0  0  0.07751  0  1.027341  0  0  0.077541  0  1.028063  0  0  0.094126  0.077006  0  1.027446  0
H  H47  1  0.00430490  0.79811040  0.88628274  1  0  0.060524  0  0.95823  0  0  0.077417  0  1.026678  0  0  0.077384  0  1.027463  0  0  0.094365  0.076975  0  1.026705  0
H  H48  1  0.02659681  0.03781947  0.60494091  1  0  0.072215  0  0.940596  0  0  0.089652  0  1.000427  0  0  0.090193  0  1.000716  0  0  0.098853  0.088803  0  1.000868  0
H  H49  1  0.01178257  0.03793978  0.10517869  1  0  0.072123  0  0.941137  0  0  0.089714  0  1.000481  0  0  0.090242  0  1.000762  0  0  0.099163  0.088869  0  1.000932  0
H  H50  1  0.97340122  0.96218512  0.39505470  1  0  0.072232  0  0.940627  0  0  0.08964  0  1.000481  0  0  0.09018  0  1.000769  0  0  0.098828  0.088792  0  1.000919  0
H  H51  1  0.98821960  0.96206045  0.89481470  1  0  0.072076  0  0.941115  0  0  0.089614  0  1.000462  0  0  0.090141  0  1.000748  0  0  0.099169  0.088768  0  1.000913  0
H  H52  1  0.12441604  0.13811303  0.75919479  1  0  0.102123  0  0.948226  0  0  0.127479  0  1.00638  0  0  0.128328  0  1.006708  0  0  0.087156  0.126692  0  1.006595  0
H  H53  1  0.01412898  0.13873348  0.25931460  1  0  0.102643  0  0.948274  0  0  0.127997  0  1.00635  0  0  0.128839  0  1.006733  0  0  0.087331  0.127204  0  1.00655  0
H  H54  1  0.87558295  0.86188505  0.24080226  1  0  0.1021  0  0.948234  0  0  0.12746  0  1.006387  0  0  0.128308  0  1.006717  0  0  0.087137  0.126674  0  1.006603  0
H  H55  1  0.98586204  0.86126132  0.74067775  1  0  0.102591  0  0.94835  0  0  0.127943  0  1.006452  0  0  0.128779  0  1.006842  0  0  0.087337  0.127149  0  1.006651  0
H  H56  1  0.93613035  0.13096319  0.73772591  1  0  0.107324  0  0.962823  0  0  0.125889  0  1.028244  0  0  0.126872  0  1.029615  0  0  0.082576  0.12516  0  1.027116  0
H  H57  1  0.19529310  0.13156813  0.23807155  1  0  0.107548  0  0.96302  0  0  0.126408  0  1.028031  0  0  0.127402  0  1.029381  0  0  0.082671  0.125686  0  1.026897  0
H  H58  1  0.06386653  0.86903489  0.26227178  1  0  0.10734  0  0.962874  0  0  0.125867  0  1.028324  0  0  0.126857  0  1.029691  0  0  0.082551  0.125144  0  1.02719  0
H  H59  1  0.80470062  0.86842996  0.76192614  1  0  0.107538  0  0.962959  0  0  0.12643  0  1.027956  0  0  0.127425  0  1.029299  0  0  0.082679  0.125706  0  1.026823  0
H  H60  1  0.11226322  0.29932969  0.74470545  1  0  0.087918  0  0.985472  0  0  0.106829  0  1.054945  0  0  0.107041  0  1.057264  0  0  0.078769  0.106649  0  1.053167  0
H  H61  1  0.18725779  0.29988620  0.24473465  1  0  0.088244  0  0.985167  0  0  0.107014  0  1.054811  0  0  0.107229  0  1.057137  0  0  0.078613  0.10684  0  1.053025  0
H  H62  1  0.88773635  0.70067166  0.25529375  1  0  0.087936  0  0.985546  0  0  0.106858  0  1.054992  0  0  0.10707  0  1.057313  0  0  0.078761  0.106677  0  1.053216  0
H  H63  1  0.81273325  0.70010862  0.75526216  1  0  0.088255  0  0.985098  0  0  0.107095  0  1.054698  0  0  0.107308  0  1.057026  0  0  0.078677  0.106918  0  1.052915  0
C  C64  1  0.66306709  0.28965401  0.72378687  1  0  0.257582  0  3.766686  0  0  0.252618  0  4.022974  0  0  0.264691  0  4.043458  0  0  0.10564  0.24338  0  4.008496  0
C  C65  1  0.62626257  0.28957491  0.22368479  1  0  0.257983  0  3.765155  0  0  0.252664  0  4.022146  0  0  0.264708  0  4.042673  0  0  0.106338  0.243448  0  4.007636  0
C  C66  1  0.33692763  0.71033974  0.27621368  1  0  0.25758  0  3.766554  0  0  0.252642  0  4.022833  0  0  0.264723  0  4.043308  0  0  0.105639  0.243401  0  4.008357  0
C  C67  1  0.37373962  0.71042321  0.77632181  1  0  0.258021  0  3.765205  0  0  0.252728  0  4.022147  0  0  0.264761  0  4.042693  0  0  0.106337  0.24351  0  4.007638  0
C  C68  1  0.78616346  0.40479704  0.68882747  1  0  -0.162989  0  3.716095  0  0  -0.178238  0  3.963311  0  0  -0.186728  0  3.984235  0  0  -0.094642  -0.172618  0  3.94904  0
C  C69  1  0.61845185  0.40501799  0.18885371  1  0  -0.164183  0  3.715396  0  0  -0.179037  0  3.963082  0  0  -0.187514  0  3.983983  0  0  -0.095262  -0.173426  0  3.948835  0
C  C70  1  0.21382973  0.59519997  0.31117395  1  0  -0.163001  0  3.71621  0  0  -0.17825  0  3.963441  0  0  -0.186739  0  3.984344  0  0  -0.094656  -0.172632  0  3.949176  0
C  C71  1  0.38155566  0.59498447  0.81115130  1  0  -0.163958  0  3.715472  0  0  -0.178826  0  3.963148  0  0  -0.187299  0  3.984041  0  0  -0.095187  -0.173217  0  3.948905  0
C  C72  1  0.92924639  0.48725148  0.73621980  1  0  0.003916  0  3.726326  0  0  -0.012835  0  3.972564  0  0  -0.007336  0  3.988765  0  0  -0.070902  -0.016274  0  3.959862  0
C  C73  1  0.55814411  0.48763201  0.23636360  1  0  0.004408  0  3.727352  0  0  -0.012234  0  3.973204  0  0  -0.006742  0  3.989409  0  0  -0.070255  -0.015668  0  3.960458  0
C  C74  1  0.07075309  0.51274336  0.26378083  1  0  0.003962  0  3.72643  0  0  -0.0128  0  3.972637  0  0  -0.007267  0  3.988848  0  0  -0.070875  -0.016253  0  3.95993  0
C  C75  1  0.44185752  0.51236502  0.76364101  1  0  0.004386  0  3.727164  0  0  -0.012228  0  3.973067  0  0  -0.006725  0  3.989256  0  0  -0.070268  -0.015671  0  3.96033  0
C  C76  1  0.94865592  0.45248333  0.81734247  1  0  -0.141336  0  3.760125  0  0  -0.150723  0  4.001823  0  0  -0.157668  0  4.024056  0  0  -0.096508  -0.145894  0  3.986635  0
C  C77  1  0.50398239  0.45262885  0.31740090  1  0  -0.140291  0  3.761393  0  0  -0.149742  0  4.003001  0  0  -0.156693  0  4.025275  0  0  -0.096328  -0.144892  0  3.987807  0
C  C78  1  0.05134299  0.54750824  0.18265665  1  0  -0.141398  0  3.760246  0  0  -0.150809  0  4.001946  0  0  -0.157753  0  4.024165  0  0  -0.096505  -0.145978  0  3.986764  0
C  C79  1  0.49601716  0.54737033  0.68259941  1  0  -0.14023  0  3.761257  0  0  -0.149687  0  4.002822  0  0  -0.156644  0  4.025104  0  0  -0.09626  -0.144838  0  3.987625  0
C  C80  1  0.82416062  0.33409990  0.84633525  1  0  0.130874  0  3.721383  0  0  0.106191  0  3.957625  0  0  0.112957  0  3.976349  0  0  0.038372  0.102884  0  3.94263  0
C  C81  1  0.50966922  0.33385947  0.34620355  1  0  0.130255  0  3.722315  0  0  0.105294  0  3.958906  0  0  0.112061  0  3.977628  0  0  0.038029  0.101981  0  3.943944  0
C  C82  1  0.17583569  0.66589492  0.15366283  1  0  0.130855  0  3.721439  0  0  0.106188  0  3.957691  0  0  0.112954  0  3.976419  0  0  0.03838  0.102878  0  3.942696  0
C  C83  1  0.49032558  0.66613864  0.65379923  1  0  0.130237  0  3.722353  0  0  0.10529  0  3.958987  0  0  0.112056  0  3.977716  0  0  0.037966  0.10198  0  3.944018  0
C  C84  1  0.85593613  0.14738472  0.54346563  1  0  0.256564  0  3.715554  0  0  0.22775  0  4.012385  0  0  0.252847  0  4.022961  0  0  0.126433  0.210993  0  4.005152  0
C  C85  1  0.29167451  0.14767020  0.04358815  1  0  0.25616  0  3.716771  0  0  0.22819  0  4.013063  0  0  0.253313  0  4.023642  0  0  0.12665  0.211416  0  4.005829  0
C  C86  1  0.14406350  0.85262098  0.45653452  1  0  0.256431  0  3.715698  0  0  0.227737  0  4.012501  0  0  0.252835  0  4.023079  0  0  0.126424  0.210979  0  4.005276  0
C  C87  1  0.70832873  0.85233004  0.95640842  1  0  0.256225  0  3.716617  0  0  0.22829  0  4.012875  0  0  0.253412  0  4.023456  0  0  0.126739  0.211515  0  4.005638  0
C  C88  1  0.11289416  0.37056433  0.56160048  1  0  0.038073  0  3.660766  0  0  -0.015304  0  3.913501  0  0  -0.011162  0  3.926669  0  0  -0.06878  -0.018315  0  3.904612  0
C  C89  1  0.25744742  0.37074054  0.06180601  1  0  0.038469  0  3.658096  0  0  -0.015666  0  3.91312  0  0  -0.011582  0  3.926261  0  0  -0.069387  -0.018633  0  3.904239  0
C  C90  1  0.88710287  0.62944247  0.43840230  1  0  0.038005  0  3.660571  0  0  -0.015349  0  3.913418  0  0  -0.011204  0  3.926587  0  0  -0.068805  -0.018359  0  3.904538  0
C  C91  1  0.74255741  0.62926080  0.93819064  1  0  0.038442  0  3.65794  0  0  -0.015672  0  3.912983  0  0  -0.011586  0  3.926132  0  0  -0.069373  -0.01864  0  3.904097  0
C  C92  1  0.21958443  0.37989216  0.48774909  1  0  -0.304543  0  3.693527  0  0  -0.383414  0  3.935863  0  0  -0.386263  0  3.947017  0  0  -0.24799  -0.380843  0  3.927168  0
C  C93  1  0.15969053  0.38001813  0.98802884  1  0  -0.304116  0  3.693105  0  0  -0.382635  0  3.935557  0  0  -0.385462  0  3.946726  0  0  -0.247565  -0.380042  0  3.926803  0
C  C94  1  0.78041736  0.62011574  0.51225760  1  0  -0.304384  0  3.693402  0  0  -0.383253  0  3.935739  0  0  -0.386094  0  3.946874  0  0  -0.247932  -0.380664  0  3.92699  0
C  C95  1  0.84031481  0.61998212  0.01196773  1  0  -0.304177  0  3.692981  0  0  -0.382736  0  3.935375  0  0  -0.385567  0  3.946546  0  0  -0.247575  -0.380138  0  3.926622  0
C  C96  1  0.08016274  0.15466816  0.62724122  1  0  0.04344  0  3.640626  0  0  -0.012573  0  3.894562  0  0  -0.008006  0  3.907011  0  0  -0.068563  -0.015269  0  3.886304  0
C  C97  1  0.07478226  0.15483838  0.12737440  1  0  0.044421  0  3.640877  0  0  -0.010764  0  3.893798  0  0  -0.006068  0  3.906089  0  0  -0.068802  -0.013533  0  3.885614  0
C  C98  1  0.91983369  0.84533535  0.37275496  1  0  0.043323  0  3.640766  0  0  -0.012575  0  3.894668  0  0  -0.008005  0  3.907121  0  0  -0.068576  -0.015268  0  3.886406  0
C  C99  1  0.92521778  0.84515969  0.87262074  1  0  0.044178  0  3.640966  0  0  -0.010787  0  3.893659  0  0  -0.006095  0  3.905955  0  0  -0.06885  -0.01355  0  3.885461  0
C  C100  1  0.06140900  0.18248161  0.72290101  1  0  -0.309861  0  3.697151  0  0  -0.387203  0  3.93832  0  0  -0.390324  0  3.949855  0  0  -0.250979  -0.384661  0  3.930287  0
C  C101  1  0.12143074  0.18298018  0.22305602  1  0  -0.311621  0  3.697476  0  0  -0.389386  0  3.938384  0  0  -0.392558  0  3.949864  0  0  -0.251178  -0.386822  0  3.930357  0
C  C102  1  0.93858894  0.81751647  0.27709668  1  0  -0.309857  0  3.697303  0  0  -0.387185  0  3.938449  0  0  -0.390314  0  3.949972  0  0  -0.25091  -0.384653  0  3.930413  0
C  C103  1  0.87856243  0.81701680  0.77693903  1  0  -0.311478  0  3.697355  0  0  -0.389374  0  3.938186  0  0  -0.392538  0  3.949667  0  0  -0.251202  -0.386813  0  3.930173  0
S  S104  1  0.47265186  0.19584510  0.67307445  1  0  -0.392833  0  2.554865  0  0  -0.339215  0  3.000102  0  0  -0.358498  0  2.984168  0  0  -0.226825  -0.325725  0  3.013503  0
S  S105  1  0.72307866  0.19582089  0.17313107  1  0  -0.392896  0  2.553615  0  0  -0.339007  0  2.998634  0  0  -0.358299  0  2.982746  0  0  -0.226931  -0.325516  0  3.011969  0
S  S106  1  0.52734714  0.80415300  0.32692705  1  0  -0.392891  0  2.554776  0  0  -0.33929  0  3.000032  0  0  -0.358572  0  2.984092  0  0  -0.226859  -0.325797  0  3.013431  0
S  S107  1  0.27691974  0.80417179  0.82687131  1  0  -0.392854  0  2.553702  0  0  -0.338989  0  2.998726  0  0  -0.358273  0  2.98284  0  0  -0.226903  -0.325497  0  3.012059  0
S  S108  1  0.78914014  0.23234705  0.47537113  1  0  -0.375534  0  2.34927  0  0  -0.328832  0  2.755319  0  0  -0.347653  0  2.742144  0  0  -0.212676  -0.316789  0  2.764379  0
S  S109  1  0.44307168  0.23261544  0.97547950  1  0  -0.375295  0  2.347505  0  0  -0.328756  0  2.752847  0  0  -0.34758  0  2.739705  0  0  -0.212459  -0.316698  0  2.76189  0
S  S110  1  0.21085688  0.76765974  0.52462974  1  0  -0.375502  0  2.349345  0  0  -0.328807  0  2.75537  0  0  -0.347623  0  2.742189  0  0  -0.212652  -0.316764  0  2.764433  0
S  S111  1  0.55693154  0.76738265  0.02452010  1  0  -0.375341  0  2.347436  0  0  -0.328823  0  2.75279  0  0  -0.347645  0  2.739645  0  0  -0.212498  -0.316769  0  2.761833  0
S  S112  1  0.74130517  0.97965280  0.57444494  1  0  -0.363829  0  2.291014  0  0  -0.329263  0  2.680276  0  0  -0.348117  0  2.671305  0  0  -0.189512  -0.315902  0  2.685671  0
S  S113  1  0.23909170  0.98000937  0.07464106  1  0  -0.364045  0  2.291392  0  0  -0.329611  0  2.680358  0  0  -0.348435  0  2.671289  0  0  -0.190149  -0.316249  0  2.685808  0
S  S114  1  0.25869495  0.02034964  0.42555433  1  0  -0.363816  0  2.291058  0  0  -0.329267  0  2.680313  0  0  -0.348122  0  2.671342  0  0  -0.189505  -0.315906  0  2.685711  0
S  S115  1  0.76090464  0.01998762  0.92535463  1  0  -0.364045  0  2.291406  0  0  -0.329636  0  2.680393  0  0  -0.348462  0  2.671325  0  0  -0.19016  -0.316273  0  2.685841  0
N  N116  1  0.68472435  0.25418386  0.80130882  1  0  -0.326059  0  3.252402  0  0  -0.248161  0  3.515084  0  0  -0.266335  0  3.53041  0  0  -0.346095  -0.23308  0  3.501251  0
N  N117  1  0.56897068  0.25382781  0.30110577  1  0  -0.326233  0  3.254399  0  0  -0.248291  0  3.517359  0  0  -0.266474  0  3.53277  0  0  -0.346238  -0.233209  0  3.503509  0
N  N118  1  0.31527353  0.74580989  0.19869045  1  0  -0.325956  0  3.252265  0  0  -0.248109  0  3.514978  0  0  -0.266286  0  3.530306  0  0  -0.346043  -0.233027  0  3.501148  0
N  N119  1  0.43102673  0.74616921  0.69889756  1  0  -0.326403  0  3.254465  0  0  -0.248449  0  3.517415  0  0  -0.26663  0  3.532826  0  0  -0.346285  -0.233368  0  3.503565  0
N  N120  1  0.00785452  0.21998136  0.57479483  1  0  -0.125932  0  3.37814  0  0  -0.025885  0  3.595228  0  0  -0.044186  0  3.618725  0  0  -0.259005  -0.013305  0  3.578974  0
N  N121  1  0.21222764  0.22016563  0.07493903  1  0  -0.125909  0  3.378871  0  0  -0.026902  0  3.597052  0  0  -0.045218  0  3.620531  0  0  -0.258991  -0.014322  0  3.580818  0
N  N122  1  0.99214409  0.78002652  0.42520612  1  0  -0.125709  0  3.37799  0  0  -0.025939  0  3.595351  0  0  -0.044242  0  3.618851  0  0  -0.25903  -0.01336  0  3.579099  0
N  N123  1  0.78777610  0.77983352  0.92505682  1  0  -0.125788  0  3.379034  0  0  -0.026869  0  3.597193  0  0  -0.045181  0  3.620672  0  0  -0.259039  -0.014288  0  3.580957  0
