# generated using pymatgen
data_Cu3MoH16C20S7IN4O
_symmetry_space_group_name_H-M   'P 1'
_cell_length_a   10.39463477
_cell_length_b   19.28505556
_cell_length_c   19.82653900
_cell_angle_alpha   89.99999989
_cell_angle_beta   90.00011846
_cell_angle_gamma   90.49653263
_symmetry_Int_Tables_number   1
_chemical_formula_structural   Cu3MoH16C20S7IN4O
_chemical_formula_sum   'Cu12 Mo4 H64 C80 S28 I4 N16 O4'
_cell_volume   3974.30075633
_cell_formula_units_Z   4
loop_
 _symmetry_equiv_pos_site_id
 _symmetry_equiv_pos_as_xyz
  1  'x, y, z'
loop_
 _atom_site_type_symbol
 _atom_site_label
 _atom_site_symmetry_multiplicity
 _atom_site_fract_x
 _atom_site_fract_y
 _atom_site_fract_z
 _atom_site_occupancy
 _atom_site_pbe_bader_charge
 _atom_site_pbe_bader_spin_density
 _atom_site_pbe_cm5_charge
 _atom_site_pbe_ddec_charge
 _atom_site_pbe_ddec_spin_density
 _atom_site_pbe_ddec_sum_bond_order
 _atom_site_pbe_magmom
Cu  Cu0  1  0.75386327  0.87064736  0.25850796  1  0.599094  0  0.462241  0.32315  0  2.844367  0
Cu  Cu1  1  0.24613530  0.62935222  0.75850720  1  0.599114  0  0.462175  0.323041  0  2.84441  0
Cu  Cu2  1  0.24613687  0.12935258  0.74149213  1  0.599104  0  0.462218  0.323117  0  2.84429  0
Cu  Cu3  1  0.75386386  0.37064669  0.24149288  1  0.599071  0  0.462182  0.323024  0  2.844393  0
Cu  Cu4  1  0.77503253  0.88664598  0.44161254  1  0.599058  0  0.460366  0.315117  0  2.842925  0
Cu  Cu5  1  0.22496584  0.61335568  0.94161378  1  0.59905  0  0.460334  0.315118  0  2.842806  0
Cu  Cu6  1  0.22496670  0.11335604  0.55838653  1  0.59902  0  0.460318  0.315067  0  2.842861  0
Cu  Cu7  1  0.77503434  0.38664582  0.05838681  1  0.599069  0  0.460372  0.315162  0  2.842837  0
Cu  Cu8  1  0.71817797  0.03663094  0.34370990  1  0.384468  0  0.279729  0.274643  0  2.861452  0
Cu  Cu9  1  0.28182416  0.46336937  0.84371019  1  0.38442  0  0.279754  0.274677  0  2.861444  0
Cu  Cu10  1  0.28182413  0.96337004  0.65628968  1  0.384421  0  0.279752  0.274673  0  2.861416  0
Cu  Cu11  1  0.71817693  0.53663005  0.15629040  1  0.384437  0  0.279743  0.274659  0  2.861439  0
Mo  Mo12  1  0.90771175  0.94471953  0.33911515  1  1.680094  0  0.9288  1.143581  0  5.090088  0
Mo  Mo13  1  0.09228906  0.55528004  0.83911574  1  1.680062  0  0.928791  1.143584  0  5.090201  0
Mo  Mo14  1  0.09228936  0.05528041  0.66088393  1  1.68006  0  0.9288  1.143595  0  5.090105  0
Mo  Mo15  1  0.90771204  0.44471990  0.16088485  1  1.680092  0  0.928809  1.143584  0  5.090136  0
H  H16  1  0.88772222  0.92249845  0.13553901  1  0.108806  0  0.10773  0.092409  0  1.003119  0
H  H17  1  0.11227586  0.57750113  0.63553660  1  0.108962  0  0.107766  0.092438  0  1.003082  0
H  H18  1  0.11227794  0.07750201  0.86446259  1  0.108977  0  0.107753  0.092428  0  1.003105  0
H  H19  1  0.88772521  0.42249726  0.36446248  1  0.108989  0  0.107757  0.092446  0  1.003103  0
H  H20  1  0.93657252  0.88082896  0.01935689  1  0.098954  0  0.109222  0.123103  0  0.98151  0
H  H21  1  0.06342607  0.61917061  0.51935392  1  0.098888  0  0.109196  0.12307  0  0.98154  0
H  H22  1  0.06342859  0.11917098  0.98064471  1  0.09893  0  0.109226  0.123109  0  0.981481  0
H  H23  1  0.93657502  0.38082881  0.48064516  1  0.098901  0  0.109211  0.123057  0  0.981544  0
H  H24  1  0.80853489  0.67661423  0.08340531  1  0.107903  0  0.092534  0.103924  0  1.069448  0
H  H25  1  0.19146682  0.82338482  0.58340399  1  0.107939  0  0.092536  0.103881  0  1.069499  0
H  H26  1  0.19146621  0.32338571  0.91659578  1  0.107932  0  0.092503  0.103859  0  1.069439  0
H  H27  1  0.80853138  0.17661409  0.41659761  1  0.107884  0  0.092547  0.103921  0  1.069442  0
H  H28  1  0.77237780  0.72585619  0.19643057  1  0.090397  0  0.109907  0.079492  0  1.012266  0
H  H29  1  0.22761765  0.77414391  0.69642979  1  0.090467  0  0.109904  0.079507  0  1.012262  0
H  H30  1  0.22762236  0.27414427  0.80357053  1  0.090396  0  0.109908  0.079504  0  1.012287  0
H  H31  1  0.77238152  0.22585551  0.30357181  1  0.090436  0  0.109928  0.079544  0  1.012295  0
H  H32  1  0.69243181  0.52903745  0.94799286  1  0.097391  0  0.104008  0.132991  0  0.994509  0
H  H33  1  0.30756758  0.97096525  0.44799464  1  0.097301  0  0.103966  0.132968  0  0.994488  0
H  H34  1  0.30756740  0.47096354  0.05200723  1  0.097346  0  0.104025  0.133035  0  0.994464  0
H  H35  1  0.69243265  0.02903833  0.55200645  1  0.097411  0  0.103983  0.132931  0  0.994492  0
H  H36  1  0.45532598  0.51957361  0.94223429  1  0.113997  0  0.095978  0.069378  0  1.067554  0
H  H37  1  0.54467336  0.98042805  0.44223229  1  0.113983  0  0.095985  0.069399  0  1.067574  0
H  H38  1  0.54467133  0.48042841  0.05776832  1  0.113995  0  0.096014  0.069403  0  1.067532  0
H  H39  1  0.45532684  0.01957449  0.55776628  1  0.114058  0  0.096004  0.069442  0  1.067524  0
H  H40  1  0.41397754  0.73305120  0.93773525  1  0.095734  0  0.113139  0.082679  0  0.97866  0
H  H41  1  0.58602084  0.76695150  0.43773431  1  0.095798  0  0.113168  0.082736  0  0.978559  0
H  H42  1  0.58602460  0.26695185  0.06226635  1  0.095774  0  0.113163  0.082707  0  0.97859  0
H  H43  1  0.41397842  0.23305208  0.56226376  1  0.095729  0  0.113133  0.082669  0  0.978666  0
H  H44  1  0.65037885  0.75234160  0.94655033  1  0.098406  0  0.099577  0.109223  0  1.028985  0
H  H45  1  0.34961954  0.74766006  0.44654812  1  0.098467  0  0.099579  0.10919  0  1.028934  0
H  H46  1  0.34962226  0.24765886  0.05344926  1  0.098426  0  0.099589  0.109232  0  1.028953  0
H  H47  1  0.65038068  0.25234299  0.55344944  1  0.098359  0  0.099562  0.109211  0  1.028942  0
H  H48  1  0.58615446  0.74477418  0.23791123  1  0.099506  0  0.102629  0.073554  0  1.042031  0
H  H49  1  0.41384303  0.75522385  0.73791217  1  0.099497  0  0.102598  0.073506  0  1.042022  0
H  H50  1  0.41384375  0.25522525  0.76208886  1  0.099483  0  0.102605  0.07352  0  1.042015  0
H  H51  1  0.58615705  0.24477350  0.26208741  1  0.099462  0  0.10263  0.073518  0  1.042028  0
H  H52  1  0.35658369  0.71548330  0.24016011  1  0.139194  0  0.091555  0.106339  0  1.062874  0
H  H53  1  0.64341382  0.78451525  0.74016029  1  0.139242  0  0.091499  0.106262  0  1.062844  0
H  H54  1  0.64341453  0.28451665  0.75984098  1  0.139286  0  0.091524  0.106305  0  1.062903  0
H  H55  1  0.35658625  0.21548159  0.25984030  1  0.139367  0  0.091528  0.106317  0  1.06287  0
H  H56  1  0.28070654  0.93085868  0.28831371  1  0.132842  0  0.109292  0.143921  0  0.996177  0
H  H57  1  0.71929691  0.56913934  0.78831095  1  0.132738  0  0.109298  0.143924  0  0.996193  0
H  H58  1  0.71929936  0.06914073  0.71169041  1  0.132756  0  0.109285  0.143929  0  0.996235  0
H  H59  1  0.28070222  0.43085853  0.21169065  1  0.132773  0  0.109302  0.143967  0  0.996216  0
H  H60  1  0.51762133  0.95204230  0.28261289  1  0.097947  0  0.099679  0.072281  0  1.048902  0
H  H61  1  0.48237922  0.54795572  0.78261239  1  0.097927  0  0.099658  0.072263  0  1.048902  0
H  H62  1  0.48238168  0.04795660  0.71738921  1  0.098237  0  0.099667  0.072269  0  1.048908  0
H  H63  1  0.51761895  0.45204215  0.21738920  1  0.09826  0  0.099683  0.072305  0  1.048907  0
H  H64  1  0.18795824  0.79086687  0.13209224  1  0.10148  0  0.101242  0.112056  0  1.024159  0
H  H65  1  0.81204264  0.70912959  0.63208807  1  0.101269  0  0.101193  0.111974  0  1.024177  0
H  H66  1  0.81204575  0.20913307  0.86790784  1  0.101492  0  0.10122  0.112017  0  1.024134  0
H  H67  1  0.18795452  0.29086621  0.36790698  1  0.101532  0  0.101215  0.112036  0  1.024136  0
H  H68  1  0.22600413  0.74916964  0.01497651  1  0.101072  0  0.113313  0.081505  0  0.988955  0
H  H69  1  0.77399636  0.75082993  0.51497230  1  0.100979  0  0.113397  0.081607  0  0.98892  0
H  H70  1  0.77400082  0.25083029  0.98502458  1  0.101073  0  0.113369  0.081603  0  0.988889  0
H  H71  1  0.22599992  0.24916951  0.48502325  1  0.101101  0  0.113325  0.081536  0  0.988908  0
H  H72  1  0.11349189  0.54863795  0.06445559  1  0.100301  0  0.103702  0.089374  0  1.026523  0
H  H73  1  0.88650591  0.95136163  0.56445452  1  0.100288  0  0.103704  0.089366  0  1.02647  0
H  H74  1  0.88650347  0.45136305  0.93554500  1  0.100234  0  0.103715  0.089379  0  1.02651  0
H  H75  1  0.11349611  0.04863623  0.43554456  1  0.100343  0  0.103712  0.089372  0  1.026501  0
H  H76  1  0.07459066  0.58041149  0.18296843  1  0.130358  0  0.104366  0.12489  0  1.023019  0
H  H77  1  0.92540851  0.91958550  0.68296640  1  0.13047  0  0.10441  0.124955  0  1.023023  0
H  H78  1  0.92540663  0.41959002  0.81703317  1  0.13038  0  0.104382  0.124964  0  1.022985  0
H  H79  1  0.07459440  0.08040925  0.31703218  1  0.130469  0  0.104384  0.124942  0  1.023001  0
C  C80  1  0.87227340  0.86826781  0.12172167  1  0.454849  0  0.037415  0.092567  0  3.9604  0
C  C81  1  0.12772462  0.63173177  0.62171877  1  0.454645  0  0.037297  0.09244  0  3.960342  0
C  C82  1  0.12772578  0.13173214  0.87827943  1  0.454633  0  0.037392  0.09256  0  3.960413  0
C  C83  1  0.87227646  0.36826713  0.37827930  1  0.454674  0  0.037318  0.092394  0  3.960333  0
C  C84  1  0.89892223  0.84483858  0.05710375  1  -0.046007  0  -0.095967  -0.185421  0  3.978752  0
C  C85  1  0.10107843  0.65516099  0.55710183  1  -0.046217  0  -0.095899  -0.18533  0  3.978737  0
C  C86  1  0.10107984  0.15516136  0.94289584  1  -0.046191  0  -0.095975  -0.185428  0  3.97883  0
C  C87  1  0.89892076  0.34483947  0.44289776  1  -0.046011  0  -0.095918  -0.18525  0  3.978644  0
C  C88  1  0.87478782  0.77488639  0.04134405  1  -0.161245  0  0.000585  0.09517  0  4.031403  0
C  C89  1  0.12521280  0.72511422  0.54134215  1  -0.161059  0  0.000561  0.095174  0  4.031393  0
C  C90  1  0.12521233  0.22511408  0.95865806  1  -0.161049  0  0.000573  0.095185  0  4.031438  0
C  C91  1  0.87479024  0.27488624  0.45865844  1  -0.161261  0  0.000543  0.095067  0  4.031445  0
C  C92  1  0.82857276  0.73141647  0.09238420  1  0.038868  0  -0.093943  -0.172336  0  3.971917  0
C  C93  1  0.17142805  0.76858362  0.59238134  1  0.038828  0  -0.09392  -0.172249  0  3.971988  0
C  C94  1  0.17142835  0.26858347  0.90761791  1  0.038877  0  -0.093922  -0.172301  0  3.971884  0
C  C95  1  0.82857017  0.23141633  0.40761874  1  0.038877  0  -0.093948  -0.172283  0  3.97188  0
C  C96  1  0.80692593  0.75935447  0.15591923  1  0.463809  0  0.042546  0.102225  0  3.943235  0
C  C97  1  0.19307223  0.74064511  0.65591539  1  0.463831  0  0.042486  0.10212  0  3.943152  0
C  C98  1  0.19307421  0.24064548  0.84408237  1  0.463827  0  0.042534  0.102206  0  3.943217  0
C  C99  1  0.80692500  0.25935380  0.34408419  1  0.463795  0  0.042504  0.102109  0  3.943219  0
C  C100  1  0.69144915  0.64219301  0.94950951  1  -0.200494  0  0.005364  0.097205  0  4.006418  0
C  C101  1  0.30855026  0.85781021  0.44950777  1  -0.200585  0  0.005394  0.097254  0  4.006457  0
C  C102  1  0.30855201  0.35780901  0.05049108  1  -0.200485  0  0.005394  0.097261  0  4.006455  0
C  C103  1  0.69145093  0.14219336  0.55049030  1  -0.200527  0  0.005387  0.097212  0  4.006371  0
C  C104  1  0.63478852  0.57594346  0.94727763  1  0.07689  0  -0.088632  -0.155258  0  3.917488  0
C  C105  1  0.36520992  0.92405976  0.44727544  1  0.076963  0  -0.088626  -0.155314  0  3.917561  0
C  C106  1  0.36521071  0.42405856  0.05272296  1  0.076904  0  -0.088683  -0.155417  0  3.91762  0
C  C107  1  0.63478840  0.07594434  0.55272213  1  0.076801  0  -0.088595  -0.155146  0  3.917376  0
C  C108  1  0.50176409  0.57048360  0.94414589  1  0.40796  0  0.038463  0.095734  0  3.949451  0
C  C109  1  0.49823623  0.92951858  0.44414587  1  0.407898  0  0.038508  0.095768  0  3.949533  0
C  C110  1  0.49823505  0.42951479  0.05585419  1  0.407963  0  0.03847  0.095829  0  3.949477  0
C  C111  1  0.50176300  0.07048344  0.55585473  1  0.40803  0  0.038417  0.095638  0  3.949392  0
C  C112  1  0.47894703  0.68907074  0.94176624  1  0.45523  0  0.042441  0.10495  0  3.951931  0
C  C113  1  0.52104846  0.81093093  0.44176120  1  0.454654  0  0.042413  0.104881  0  3.951881  0
C  C114  1  0.52104930  0.31093077  0.05823637  1  0.454718  0  0.042395  0.104906  0  3.951847  0
C  C115  1  0.47894984  0.18907213  0.55823334  1  0.455133  0  0.042423  0.104942  0  3.95198  0
C  C116  1  0.61091617  0.69983801  0.94616748  1  -0.006011  0  -0.095826  -0.182141  0  3.991928  0
C  C117  1  0.38908224  0.80016469  0.44616683  1  -0.005907  0  -0.09581  -0.182064  0  3.991961  0
C  C118  1  0.38908015  0.30016298  0.05383210  1  -0.00595  0  -0.095797  -0.182086  0  3.991912  0
C  C119  1  0.61091703  0.19983940  0.55383174  1  -0.005914  0  -0.09585  -0.182176  0  3.991895  0
C  C120  1  0.51684588  0.78534067  0.24878450  1  0.439601  0  0.037586  0.103816  0  3.93835  0
C  C121  1  0.48315260  0.71465684  0.74878400  1  0.439637  0  0.037599  0.103896  0  3.938479  0
C  C122  1  0.48315325  0.21465720  0.75121761  1  0.44028  0  0.037508  0.10375  0  3.93849  0
C  C123  1  0.51684752  0.28534207  0.25121609  1  0.439755  0  0.037587  0.103903  0  3.93843  0
C  C124  1  0.38673616  0.76877413  0.24999341  1  0.045506  0  -0.099663  -0.186116  0  3.994403  0
C  C125  1  0.61325946  0.73122442  0.74999255  1  0.044972  0  -0.099563  -0.185986  0  3.994386  0
C  C126  1  0.61326111  0.23122634  0.75000768  1  0.04472  0  -0.099576  -0.186044  0  3.994374  0
C  C127  1  0.38673966  0.26877293  0.25000854  1  0.045091  0  -0.099643  -0.186139  0  3.99441  0
C  C128  1  0.29883942  0.82142506  0.26343293  1  -0.235399  0  -0.000467  0.088775  0  4.029233  0
C  C129  1  0.70116107  0.67857400  0.76343065  1  -0.235352  0  -0.000543  0.088616  0  4.029296  0
C  C130  1  0.70116172  0.17857644  0.73657069  1  -0.235291  0  -0.000457  0.088776  0  4.029182  0
C  C131  1  0.29883801  0.32142180  0.23656994  1  -0.235233  0  -0.000443  0.088778  0  4.029234  0
C  C132  1  0.34593076  0.88873312  0.27582745  1  -0.015524  0  -0.090559  -0.171409  0  3.924776  0
C  C133  1  0.65407168  0.61126489  0.77582714  1  -0.015448  0  -0.090512  -0.171319  0  3.924686  0
C  C134  1  0.65407320  0.11126578  0.72417465  1  -0.015409  0  -0.090562  -0.171445  0  3.924776  0
C  C135  1  0.34592649  0.38873298  0.22417446  1  -0.015399  0  -0.090566  -0.171446  0  3.924751  0
C  C136  1  0.47768571  0.90036586  0.27313467  1  0.473953  0  0.039642  0.105308  0  3.925893  0
C  C137  1  0.52231386  0.59963320  0.77313572  1  0.474478  0  0.039668  0.105304  0  3.926004  0
C  C138  1  0.52231732  0.09963408  0.72686492  1  0.474211  0  0.039685  0.105348  0  3.925938  0
C  C139  1  0.47768337  0.40036571  0.22686386  1  0.47421  0  0.039669  0.105303  0  3.925906  0
C  C140  1  0.12791695  0.68898035  0.16749728  1  -0.171049  0  0.002426  0.099061  0  4.026174  0
C  C141  1  0.87208123  0.81101819  0.66749418  1  -0.171378  0  0.002419  0.099038  0  4.025972  0
C  C142  1  0.87208225  0.31102063  0.83250281  1  -0.171075  0  0.002414  0.09912  0  4.025946  0
C  C143  1  0.12791788  0.18897865  0.33250238  1  -0.170975  0  0.002398  0.099074  0  4.025951  0
C  C144  1  0.17139277  0.73660761  0.11920194  1  -0.037118  0  -0.095411  -0.178576  0  3.985292  0
C  C145  1  0.82860039  0.76338991  0.61919778  1  -0.037175  0  -0.095322  -0.178418  0  3.984973  0
C  C146  1  0.82860450  0.26339286  0.88079815  1  -0.037098  0  -0.095415  -0.178566  0  3.985049  0
C  C147  1  0.17139776  0.23660693  0.38079777  1  -0.037144  0  -0.09536  -0.178593  0  3.985021  0
C  C148  1  0.19253727  0.71336076  0.05388394  1  0.507642  0  0.037874  0.092571  0  3.964808  0
C  C149  1  0.80746144  0.78663830  0.55387925  1  0.508132  0  0.037788  0.092389  0  3.964861  0
C  C150  1  0.80746383  0.28663918  0.94611665  1  0.507608  0  0.037831  0.092407  0  3.964693  0
C  C151  1  0.19253673  0.21335958  0.44611579  1  0.507645  0  0.037912  0.092619  0  3.964725  0
C  C152  1  0.13061516  0.60171516  0.08123008  1  0.501342  0  0.039677  0.105497  0  3.921708  0
C  C153  1  0.86938460  0.89828338  0.58122798  1  0.501443  0  0.039725  0.105642  0  3.921309  0
C  C154  1  0.86938212  0.39828583  0.91877051  1  0.501402  0  0.039661  0.105534  0  3.921691  0
C  C155  1  0.13061836  0.10171397  0.41876958  1  0.501147  0  0.039621  0.105504  0  3.921646  0
C  C156  1  0.10722826  0.62010793  0.14765719  1  -0.046408  0  -0.090904  -0.166757  0  3.933749  0
C  C157  1  0.89277271  0.87988957  0.64765411  1  -0.046398  0  -0.090994  -0.166917  0  3.933721  0
C  C158  1  0.89277000  0.37989357  0.85234390  1  -0.046398  0  -0.090898  -0.166878  0  3.933713  0
C  C159  1  0.10723116  0.12010518  0.35234244  1  -0.046455  0  -0.090913  -0.166849  0  3.933664  0
S  S160  1  0.79331584  0.98710729  0.25000019  1  -0.705769  0  -0.450345  -0.56912  0  2.716025  0
S  S161  1  0.20668270  0.51289281  0.75000091  1  -0.705896  0  -0.450361  -0.56913  0  2.716107  0
S  S162  1  0.20668431  0.01289317  0.74999939  1  -0.705885  0  -0.45035  -0.569135  0  2.71607  0
S  S163  1  0.79331646  0.48710662  0.24999969  1  -0.705758  0  -0.450326  -0.569063  0  2.715991  0
S  S164  1  0.85486752  0.83020201  0.35115101  1  -0.695946  0  -0.454058  -0.615602  0  2.883606  0
S  S165  1  0.14513239  0.66979809  0.85115065  1  -0.695938  0  -0.454066  -0.615607  0  2.883569  0
S  S166  1  0.14513264  0.16979845  0.64884908  1  -0.695949  0  -0.454066  -0.615624  0  2.883643  0
S  S167  1  0.85486679  0.33020186  0.14884893  1  -0.695929  0  -0.454058  -0.6156  0  2.883615  0
S  S168  1  0.83207762  0.00056680  0.43235781  1  -0.703808  0  -0.430512  -0.568546  0  2.908184  0
S  S169  1  0.16792679  0.49943403  0.93235899  1  -0.703594  0  -0.430524  -0.568547  0  2.908149  0
S  S170  1  0.16792543  0.99943418  0.56764127  1  -0.703587  0  -0.430515  -0.568529  0  2.908128  0
S  S171  1  0.83207625  0.50056643  0.06764261  1  -0.703785  0  -0.430542  -0.568567  0  2.908235  0
S  S172  1  0.90523265  0.74841087  0.95754684  1  0.076468  0  0.048727  0.018403  0  2.815031  0
S  S173  1  0.09476867  0.75159079  0.45754486  1  0.076203  0  0.048705  0.018346  0  2.814843  0
S  S174  1  0.09476751  0.25159012  0.04245476  1  0.07638  0  0.048719  0.018369  0  2.814978  0
S  S175  1  0.90523248  0.24841123  0.54245573  1  0.07631  0  0.048725  0.018372  0  2.815058  0
S  S176  1  0.86061857  0.64583392  0.95683262  1  0.138384  0  0.076519  0.07086  0  2.91978  0
S  S177  1  0.13938085  0.85416878  0.45683321  1  0.138544  0  0.076527  0.070903  0  2.919658  0
S  S178  1  0.13938063  0.35416707  0.04316848  1  0.138382  0  0.07651  0.070873  0  2.919706  0
S  S179  1  0.86062033  0.14583427  0.54317041  1  0.138436  0  0.076517  0.070907  0  2.919782  0
S  S180  1  0.13008873  0.81091049  0.26415157  1  0.144504  0  0.064485  0.05011  0  2.948656  0
S  S181  1  0.86991079  0.68908805  0.76414947  1  0.144456  0  0.064491  0.05012  0  2.948763  0
S  S182  1  0.86991240  0.18909049  0.73585003  1  0.144472  0  0.064469  0.050109  0  2.948683  0
S  S183  1  0.13008832  0.31090878  0.23585011  1  0.144486  0  0.064492  0.050135  0  2.948722  0
S  S184  1  0.09976696  0.70737079  0.25333171  1  0.086202  0  0.044822  0.016508  0  2.766051  0
S  S185  1  0.90023444  0.79262723  0.75332713  1  0.086387  0  0.04484  0.016551  0  2.766059  0
S  S186  1  0.90023321  0.29263019  0.74666888  1  0.086251  0  0.044808  0.016461  0  2.766042  0
S  S187  1  0.09976755  0.20736908  0.24666792  1  0.086208  0  0.044803  0.016485  0  2.766093  0
I  I188  1  0.52680586  0.11196000  0.35195834  1  -0.512459  0  -0.293261  -0.42133  0  1.424866  0
I  I189  1  0.47319532  0.38803979  0.85195783  1  -0.512429  0  -0.293251  -0.421314  0  1.424844  0
I  I190  1  0.47319524  0.88803994  0.64804175  1  -0.512422  0  -0.293264  -0.421328  0  1.424817  0
I  I191  1  0.52680482  0.61196016  0.14804226  1  -0.512432  0  -0.293256  -0.421324  0  1.424821  0
N  N192  1  0.82514364  0.82691210  0.17095313  1  -1.222133  0  -0.355821  -0.2161  0  3.603179  0
N  N193  1  0.17485265  0.67308696  0.67095078  1  -1.22202  0  -0.355668  -0.215932  0  3.602962  0
N  N194  1  0.17485650  0.17308784  0.82904847  1  -1.22209  0  -0.355775  -0.216064  0  3.603108  0
N  N195  1  0.82514650  0.32691143  0.32904880  1  -1.222039  0  -0.355697  -0.215901  0  3.603057  0
N  N196  1  0.42340100  0.62571911  0.94167341  1  -1.193243  0  -0.356187  -0.217422  0  3.608231  0
N  N197  1  0.57659833  0.87428255  0.44167145  1  -1.192689  0  -0.356259  -0.217495  0  3.608243  0
N  N198  1  0.57660013  0.37428187  0.05832718  1  -1.192807  0  -0.356233  -0.217532  0  3.608369  0
N  N199  1  0.42340285  0.12572050  0.55832561  1  -1.193134  0  -0.356121  -0.21736  0  3.608168  0
N  N200  1  0.56330378  0.84987782  0.25955140  1  -1.247747  0  -0.363117  -0.205734  0  3.61668  0
N  N201  1  0.43669668  0.65012020  0.75955237  1  -1.247828  0  -0.363103  -0.205722  0  3.61685  0
N  N202  1  0.43670019  0.15012107  0.74044818  1  -1.248386  0  -0.363066  -0.205641  0  3.616777  0
N  N203  1  0.56330150  0.34987820  0.24044721  1  -1.248384  0  -0.363164  -0.205767  0  3.616861  0
N  N204  1  0.17357858  0.64704988  0.03430260  1  -1.231984  0  -0.363025  -0.213677  0  3.637893  0
N  N205  1  0.82641908  0.85294866  0.53429995  1  -1.232086  0  -0.363109  -0.21374  0  3.637807  0
N  N206  1  0.82642158  0.35295058  0.96569799  1  -1.231972  0  -0.363048  -0.213636  0  3.637812  0
N  N207  1  0.17358008  0.14705025  0.46569711  1  -1.232008  0  -0.363034  -0.213683  0  3.637915  0
O  O208  1  0.07079395  0.95767667  0.32819902  1  -0.855922  0  -0.529851  -0.566836  0  1.876623  0
O  O209  1  0.92920776  0.54232239  0.82820052  1  -0.855907  0  -0.529841  -0.566842  0  1.876698  0
O  O210  1  0.92920713  0.04232223  0.67179955  1  -0.855898  0  -0.529828  -0.566813  0  1.876599  0
O  O211  1  0.07079333  0.45767704  0.17180057  1  -0.855921  0  -0.529854  -0.566849  0  1.87667  0
