# generated using pymatgen
data_NiH10(C5N4)2
_symmetry_space_group_name_H-M   'P 1'
_cell_length_a   7.98636433
_cell_length_b   9.21907720
_cell_length_c   10.03409454
_cell_angle_alpha   84.66530777
_cell_angle_beta   66.68740926
_cell_angle_gamma   66.01523230
_symmetry_Int_Tables_number   1
_chemical_formula_structural   NiH10(C5N4)2
_chemical_formula_sum   'Ni2 H20 C20 N16'
_cell_volume   617.84922060
_cell_formula_units_Z   2
loop_
 _symmetry_equiv_pos_site_id
 _symmetry_equiv_pos_as_xyz
  1  'x, y, z'
loop_
 _atom_site_type_symbol
 _atom_site_label
 _atom_site_symmetry_multiplicity
 _atom_site_fract_x
 _atom_site_fract_y
 _atom_site_fract_z
 _atom_site_occupancy
 _atom_site_hle17_ddec_charge
 _atom_site_hle17_ddec_spin_density
 _atom_site_hle17_ddec_sum_bond_order
 _atom_site_hle17_magmom
 _atom_site_hse06_10hf_ddec_charge
 _atom_site_hse06_10hf_ddec_spin_density
 _atom_site_hse06_10hf_ddec_sum_bond_order
 _atom_site_hse06_10hf_magmom
 _atom_site_hse06_ddec_charge
 _atom_site_hse06_ddec_spin_density
 _atom_site_hse06_ddec_sum_bond_order
 _atom_site_hse06_magmom
 _atom_site_pbe_cm5_charge
 _atom_site_pbe_ddec_charge
 _atom_site_pbe_ddec_spin_density
 _atom_site_pbe_ddec_sum_bond_order
 _atom_site_pbe_magmom
Ni  Ni0  1  0.70000598  0.52190564  0.47864201  1  0.650503  1.669161  2.356496  1.322  0.693637  1.742172  2.750864  1.482  0.791754  1.877131  2.671984  1.618  0.680576  0.624986  1.578573  2.805288  1.324
Ni  Ni1  1  0.29994680  0.47817496  0.52142300  1  0.650585  -1.669363  2.354843  -1.322  0.693315  -1.742328  2.749326  -1.482  0.791454  -1.877269  2.670552  -1.618  0.680152  0.624569  -1.578817  2.803713  -1.324
H  H2  1  0.60134173  0.56209418  0.80277066  1  0.072442  0.000542  0.954711  0.001  0.080548  0.000432  1.019838  0.001  0.082326  0.000309  1.018227  0.001  0.11642  0.079322  0.000548  1.02103  0.001
H  H3  1  0.39871571  0.43767481  0.19711600  1  0.072763  -0.000543  0.954135  -0.001  0.080566  -0.00043  1.019596  -0.001  0.082341  -0.000308  1.017999  -0.001  0.116575  0.079339  -0.000546  1.02079  -0.001
H  H4  1  0.70127844  0.39226560  0.99145947  1  0.094095  0.000264  0.983325  0.0  0.100459  0.00031  1.052113  0.0  0.102723  0.000225  1.052591  0.0  0.101352  0.099181  0.000392  1.051151  0.0
H  H5  1  0.29894291  0.60758219  0.00841778  1  0.094183  -0.000266  0.983213  0.0  0.100514  -0.000311  1.052004  0.0  0.102767  -0.000226  1.052485  0.0  0.101334  0.099254  -0.000394  1.051012  0.0
H  H6  1  0.90566056  0.10055734  0.92745322  1  0.098306  0.00016  0.95889  0.0  0.106722  -6.5e-05  1.026457  0.0  0.109222  -5.4e-05  1.023643  0.0  0.107764  0.104796  -4.7e-05  1.028632  0.0
H  H7  1  0.09481026  0.89933275  0.07239889  1  0.09777  -0.00016  0.959205  0.0  0.106161  6.5e-05  1.026912  0.0  0.108649  5.4e-05  1.02413  0.0  0.107682  0.10424  4.7e-05  1.029079  0.0
H  H8  1  0.99145855  0.98697821  0.68038684  1  0.099029  0.000436  0.97461  0.0  0.107939  0.000456  1.036358  0.0  0.110611  0.000344  1.035818  0.0  0.102911  0.105932  0.00056  1.037103  0.0
H  H9  1  0.00859034  0.01278852  0.31958343  1  0.098799  -0.000436  0.974669  0.0  0.107603  -0.000456  1.036515  0.0  0.110268  -0.000344  1.036029  0.0  0.10273  0.105597  -0.000559  1.037256  0.0
H  H10  1  0.88095900  0.17404814  0.50302444  1  0.070038  0.000566  0.967115  0.001  0.078232  0.00049  1.032818  0.001  0.080252  0.000363  1.030642  0.001  0.113906  0.076812  0.000603  1.034367  0.001
H  H11  1  0.11891555  0.82562547  0.49699364  1  0.069796  -0.000569  0.966749  -0.001  0.07772  -0.000491  1.032934  -0.001  0.079744  -0.000364  1.030747  -0.001  0.113732  0.076304  -0.000605  1.03447  -0.001
H  H12  1  0.51743409  0.86890742  0.46197031  1  0.079905  0.000703  0.948784  0.001  0.088426  0.000561  1.013242  0.001  0.090507  0.000395  1.010733  0.001  0.116882  0.086747  0.000701  1.015586  0.001
H  H13  1  0.48255956  0.13109100  0.53809595  1  0.079985  -0.000705  0.948987  -0.001  0.088497  -0.000563  1.013412  -0.001  0.090573  -0.000396  1.010926  -0.001  0.117011  0.086818  -0.000703  1.01574  -0.001
H  H14  1  0.49677187  0.06526306  0.27405805  1  0.104298  0.000787  0.976967  0.0  0.111103  0.000875  1.042131  0.0  0.114317  0.000742  1.041527  0.0  0.10089  0.108795  0.000949  1.042684  0.001
H  H15  1  0.50324165  0.93481324  0.72603710  1  0.104101  -0.000782  0.976832  0.0  0.111018  -0.000869  1.041871  0.0  0.114241  -0.000737  1.041252  0.0  0.100773  0.10871  -0.000944  1.042423  -0.001
H  H16  1  0.66080996  0.96154041  0.00924908  1  0.089236  0.000244  0.948242  0.001  0.102405  -2.7e-05  1.004577  0.0  0.104378  -2.8e-05  1.0036  0.0  0.106613  0.100859  -0.0  1.005635  0.0
H  H17  1  0.33909094  0.03858532  0.99085024  1  0.089082  -0.000245  0.948056  -0.001  0.102327  2.7e-05  1.004298  0.0  0.104318  2.8e-05  1.003296  0.0  0.106599  0.100747  0.0  1.005415  0.0
H  H18  1  0.82808573  0.66568912  0.94811430  1  0.101606  0.000429  0.97039  0.0  0.108808  0.000572  1.035615  0.0  0.111908  0.000479  1.035122  0.0  0.102262  0.10697  0.000523  1.035726  0.0
H  H19  1  0.17149581  0.33443786  0.05192669  1  0.101693  -0.00043  0.970273  0.0  0.108733  -0.000573  1.03574  0.0  0.111829  -0.000479  1.035249  0.0  0.102414  0.106897  -0.000524  1.035849  0.0
H  H20  1  0.83834433  0.48675899  0.15149927  1  0.073397  0.000695  0.970568  0.001  0.079385  0.000537  1.042168  0.001  0.081092  0.000376  1.04018  0.001  0.115465  0.078093  0.000711  1.043874  0.001
H  H21  1  0.16138885  0.51329843  0.84850312  1  0.073423  -0.000696  0.970656  -0.001  0.079448  -0.000536  1.042175  -0.001  0.081162  -0.000376  1.040174  -0.001  0.115337  0.078156  -0.00071  1.043882  -0.001
C  C22  1  0.68811186  0.43399005  0.77997439  1  0.117706  -0.007165  3.700553  -0.009  0.090994  -0.001443  3.952405  -0.002  0.099575  -0.001968  3.972004  -0.003  0.041043  0.08471  -0.001094  3.939811  -0.002
C  C23  1  0.31202293  0.56579269  0.21994163  1  0.117723  0.007189  3.699529  0.009  0.091252  0.00144  3.951186  0.002  0.09984  0.001964  3.970764  0.003  0.041085  0.084951  0.001095  3.938622  0.002
C  C24  1  0.74354832  0.33952684  0.88425567  1  -0.12564  0.007645  3.748898  0.009  -0.134344  0.002509  3.99289  0.003  -0.142156  0.002519  4.014894  0.003  -0.088246  -0.129125  0.002695  3.977652  0.003
C  C25  1  0.25667065  0.66031497  0.11562583  1  -0.126052  -0.007677  3.748868  -0.009  -0.134614  -0.002515  3.992703  -0.003  -0.142406  -0.002523  4.014688  -0.003  -0.088329  -0.12941  -0.002701  3.977482  -0.003
C  C26  1  0.85655915  0.17652909  0.84894007  1  -0.001012  -0.008551  3.728284  -0.009  -0.020405  -0.002723  3.971924  -0.003  -0.015634  -0.002702  3.990152  -0.003  -0.06607  -0.023597  -0.002961  3.959342  -0.003
C  C27  1  0.14375124  0.82329660  0.15093207  1  -0.000153  0.008568  3.728838  0.009  -0.01961  0.002725  3.972554  0.003  -0.014842  0.002701  3.990777  0.003  -0.065885  -0.0228  0.002964  3.959972  0.003
C  C28  1  0.90544107  0.11404980  0.71088049  1  -0.125908  0.007621  3.74473  0.009  -0.134682  0.002532  3.988495  0.003  -0.142487  0.002527  4.009937  0.003  -0.08684  -0.129628  0.00265  3.974534  0.003
C  C29  1  0.09469055  0.88573649  0.28902825  1  -0.126146  -0.007647  3.745144  -0.009  -0.134723  -0.002533  3.988903  -0.003  -0.142546  -0.002528  4.010349  -0.003  -0.086885  -0.129672  -0.002647  3.974953  -0.003
C  C30  1  0.84482069  0.21652787  0.61264336  1  0.125042  -0.007645  3.699625  -0.009  0.098352  -0.00175  3.950406  -0.003  0.107144  -0.002223  3.969721  -0.003  0.042479  0.092246  -0.001484  3.937126  -0.002
C  C31  1  0.15517188  0.78322651  0.38732074  1  0.125696  0.007688  3.699502  0.009  0.098954  0.001763  3.950438  0.003  0.107754  0.002236  3.969737  0.003  0.042899  0.092855  0.001496  3.937143  0.002
C  C32  1  0.58452185  0.82978641  0.34668285  1  0.122983  -0.008861  3.687342  -0.011  0.094346  -0.00229  3.941617  -0.003  0.103501  -0.00277  3.960051  -0.004  0.046134  0.087787  -0.00198  3.929725  -0.003
C  C33  1  0.41544247  0.17027984  0.65334589  1  0.123192  0.008872  3.687791  0.011  0.094507  0.002288  3.942127  0.003  0.103644  0.002768  3.960563  0.004  0.046283  0.087948  0.001982  3.930252  0.003
C  C34  1  0.57353632  0.93805345  0.24087752  1  -0.123479  0.008986  3.743875  0.011  -0.132499  0.003196  3.98831  0.004  -0.14024  0.003194  4.009439  0.004  -0.086652  -0.127463  0.003251  3.974617  0.004
C  C35  1  0.42644978  0.06202857  0.75918986  1  -0.123646  -0.009  3.743937  -0.011  -0.132763  -0.003194  3.988444  -0.004  -0.140501  -0.003191  4.00956  -0.004  -0.086758  -0.127732  -0.003248  3.974756  -0.004
C  C36  1  0.66330409  0.88005933  0.09505667  1  -0.004128  -0.009853  3.729799  -0.011  -0.02022  -0.003293  3.969991  -0.003  -0.016014  -0.003216  3.98835  -0.003  -0.067079  -0.023271  -0.00363  3.958298  -0.004
C  C37  1  0.33661019  0.12003529  0.90498732  1  -0.003909  0.009858  3.730444  0.011  -0.020003  0.003288  3.970556  0.003  -0.015804  0.003212  3.988924  0.003  -0.067142  -0.023046  0.003629  3.958868  0.004
C  C38  1  0.75762869  0.71570743  0.06078961  1  -0.126623  0.008567  3.736141  0.01  -0.134328  0.002819  3.978289  0.004  -0.142092  0.002884  3.999553  0.004  -0.087513  -0.129615  0.002976  3.964547  0.004
C  C39  1  0.24213181  0.28439210  0.93925438  1  -0.126627  -0.008572  3.736024  -0.01  -0.134193  -0.002813  3.978225  -0.004  -0.141945  -0.002878  3.99949  -0.004  -0.087456  -0.129494  -0.002968  3.964495  -0.004
C  C40  1  0.76338170  0.61566909  0.17328866  1  0.118677  -0.008517  3.684144  -0.01  0.090766  -0.002024  3.93735  -0.003  0.099474  -0.002553  3.95706  -0.004  0.043768  0.084535  -0.001734  3.924578  -0.003
C  C41  1  0.23645258  0.38440102  0.82672775  1  0.118621  0.008535  3.684109  0.01  0.090654  0.002028  3.937303  0.003  0.099361  0.002556  3.956974  0.004  0.043871  0.084416  0.001741  3.924553  0.003
N  N42  1  0.74041344  0.37463538  0.64497857  1  -0.28051  0.054407  3.317739  0.077  -0.234945  0.036348  3.591021  0.053  -0.265737  0.030557  3.61715  0.046  -0.322448  -0.213602  0.040596  3.572596  0.058
N  N43  1  0.25963434  0.62515754  0.35494893  1  -0.280735  -0.054418  3.318801  -0.077  -0.235043  -0.036346  3.591958  -0.053  -0.265834  -0.030558  3.618078  -0.046  -0.322719  -0.213688  -0.040575  3.573527  -0.058
N  N44  1  0.67962831  0.67129580  0.31392831  1  -0.262412  0.054792  3.325627  0.078  -0.217309  0.036198  3.602152  0.054  -0.247973  0.030743  3.626523  0.046  -0.319472  -0.195991  0.039878  3.585398  0.058
N  N45  1  0.32034823  0.32873346  0.68608982  1  -0.2623  -0.05473  3.32658  -0.078  -0.217099  -0.036147  3.603126  -0.054  -0.247734  -0.030704  3.627455  -0.046  -0.319499  -0.195787  -0.039806  3.586384  -0.058
N  N46  1  0.39089304  0.63133706  0.59232024  1  -0.485701  -0.000122  2.919841  0.0  -0.53708  0.000336  3.291873  0.0  -0.585371  0.000668  3.306599  0.001  -0.301654  -0.503111  0.000244  3.280914  0.0
N  N47  1  0.60900723  0.36900983  0.40780701  1  -0.484546  0.000163  2.921087  0.0  -0.536267  -0.000323  3.293832  0.0  -0.584503  -0.000666  3.308421  -0.001  -0.301413  -0.502227  -0.000206  3.282763  0.0
N  N48  1  0.30017437  0.71278718  0.70585321  1  0.372652  0.000969  4.175395  0.002  0.421319  0.000301  4.487675  0.001  0.442843  0.000296  4.51914  0.001  0.08341  0.405857  0.00016  4.465927  0.0
N  N49  1  0.69981253  0.28765107  0.29424693  1  0.371443  -0.000986  4.174926  -0.002  0.420055  -0.00029  4.487404  -0.001  0.441584  -0.000294  4.518923  -0.001  0.08225  0.404586  -0.000148  4.465665  0.0
N  N50  1  0.20929359  0.79360689  0.81533168  1  -0.375995  -0.003699  2.38098  -0.005  -0.386259  -0.001623  2.62017  -0.002  -0.3962  -0.001281  2.630037  -0.002  -0.184252  -0.378269  -0.001504  2.612861  -0.002
N  N51  1  0.79078156  0.20690115  0.18470682  1  -0.3752  0.00386  2.379876  0.005  -0.385398  0.001711  2.618946  0.002  -0.395313  0.001369  2.628744  0.002  -0.183604  -0.377402  0.001601  2.611643  0.002
N  N52  1  0.74375458  0.68664378  0.57418443  1  -0.422365  -0.042988  2.683163  -0.052  -0.460206  -0.025409  2.993228  -0.032  -0.489105  -0.02938  3.002848  -0.039  -0.244502  -0.438587  -0.022756  2.986248  -0.028
N  N53  1  0.25656125  0.31362834  0.42543118  1  -0.421984  0.042828  2.683962  0.052  -0.459346  0.025364  2.994004  0.032  -0.488258  0.029374  3.003565  0.039  -0.244216  -0.437716  0.022671  2.987062  0.028
N  N54  1  0.87691673  0.64813549  0.61346895  1  0.366354  -0.000303  4.177765  0.0  0.421034  -7.5e-05  4.484559  0.0  0.442451  -0.000118  4.519712  0.0  0.080734  0.405144  -0.000385  4.459326  -0.001
N  N55  1  0.12302747  0.35192471  0.38658756  1  0.366244  0.000352  4.177122  0.0  0.420366  0.000101  4.48431  0.0  0.441827  0.000137  4.519464  0.0  0.080505  0.404442  0.000406  4.459076  0.001
N  N56  1  0.99316091  0.38731103  0.34422430  1  -0.423231  -0.043169  2.677521  -0.052  -0.462365  -0.025447  2.989912  -0.032  -0.491325  -0.029591  3.000207  -0.039  -0.247777  -0.440642  -0.022696  2.981836  -0.028
N  N57  1  0.00649095  0.61242046  0.65618058  1  -0.423065  0.043208  2.676378  0.052  -0.462465  0.02544  2.98842  0.032  -0.491413  0.029574  2.99876  0.039  -0.247429  -0.440726  0.022727  2.98032  0.028
