# generated using pymatgen
data_ZnH22C28Br3N3O4
_symmetry_space_group_name_H-M   'P 1'
_cell_length_a   15.60081479
_cell_length_b   15.95099813
_cell_length_c   17.12616591
_cell_angle_alpha   88.16460551
_cell_angle_beta   89.07121164
_cell_angle_gamma   70.84121956
_symmetry_Int_Tables_number   1
_chemical_formula_structural   ZnH22C28Br3N3O4
_chemical_formula_sum   'Zn2 H44 C56 Br6 N6 O8'
_cell_volume   4023.63247520
_cell_formula_units_Z   2
loop_
 _symmetry_equiv_pos_site_id
 _symmetry_equiv_pos_as_xyz
  1  'x, y, z'
loop_
 _atom_site_type_symbol
 _atom_site_label
 _atom_site_symmetry_multiplicity
 _atom_site_fract_x
 _atom_site_fract_y
 _atom_site_fract_z
 _atom_site_occupancy
 _atom_site_pbe_bader_charge
 _atom_site_pbe_bader_spin_density
 _atom_site_pbe_cm5_charge
 _atom_site_pbe_ddec_charge
 _atom_site_pbe_ddec_spin_density
 _atom_site_pbe_ddec_sum_bond_order
 _atom_site_pbe_magmom
Zn  Zn0  1  0.49823821  0.41205179  0.49362110  1  1.298929  0  0.66792  0.845562  0  2.395022  0
Zn  Zn1  1  0.50373693  0.58746998  0.50415709  1  1.306353  0  0.670678  0.843507  0  2.403044  0
H  H2  1  0.57958034  0.24723411  0.56649253  1  0.147584  0  0.132852  0.113516  0  0.980797  0
H  H3  1  0.42979953  0.75037969  0.42542713  1  0.152624  0  0.13402  0.116089  0  0.973289  0
H  H4  1  0.58202390  0.08732458  0.56925392  1  0.104844  0  0.121296  0.13487  0  0.993517  0
H  H5  1  0.42094439  0.91200017  0.42730137  1  0.130228  0  0.12143  0.134316  0  0.996212  0
H  H6  1  0.22821466  0.46791738  0.52833169  1  0.07321  0  0.102064  0.109539  0  1.033088  0
H  H7  1  0.77336107  0.53197992  0.51018551  1  0.077911  0  0.099532  0.1052  0  1.047498  0
H  H8  1  0.20253965  0.74268806  0.51197905  1  0.066182  0  0.107738  0.108843  0  1.000919  0
H  H9  1  0.79784469  0.25774713  0.52446161  1  0.078221  0  0.106604  0.109808  0  0.994741  0
H  H10  1  0.96355203  0.21691350  0.55043654  1  0.057042  0  0.092928  0.098025  0  1.032109  0
H  H11  1  0.03424572  0.78470550  0.52230243  1  0.083653  0  0.091856  0.097232  0  1.034131  0
H  H12  1  0.17164173  0.37934011  0.56621763  1  0.110022  0  0.105509  0.123168  0  1.005719  0
H  H13  1  0.82448938  0.62388831  0.53270967  1  0.047277  0  0.096425  0.108674  0  1.044532  0
H  H14  1  0.60996141  0.45524731  0.09472650  1  0.076886  0  0.100373  0.103476  0  1.032017  0
H  H15  1  0.37008915  0.58157169  0.89192806  1  0.084028  0  0.102544  0.106455  0  1.024497  0
H  H16  1  0.62651971  0.37340263  0.89411675  1  0.078875  0  0.102024  0.102022  0  1.038305  0
H  H17  1  0.32897109  0.60790261  0.12001256  1  0.064924  0  0.10161  0.103989  0  1.033658  0
H  H18  1  0.80898469  0.39674442  0.34413869  1  0.030802  0  0.079559  0.106681  0  1.021309  0
H  H19  1  0.84583420  0.41339555  0.24804364  1  0.006198  0  0.080619  0.101433  0  1.010024  0
H  H20  1  0.84204824  0.49100174  0.32127500  1  -0.011978  0  0.082226  0.108707  0  1.006022  0
H  H21  1  0.70870634  0.54896151  0.22867288  1  0.01235  0  0.084028  0.071359  0  0.978908  0
H  H22  1  0.67262849  0.53773148  0.32549646  1  0.030442  0  0.085103  0.08435  0  0.993305  0
H  H23  1  0.65201988  0.39463308  0.29672087  1  0.049233  0  0.092719  0.102234  0  0.985249  0
H  H24  1  0.69969420  0.39537887  0.20245115  1  0.023969  0  0.090674  0.088442  0  0.979851  0
H  H25  1  0.29671317  0.74517039  0.62123744  1  0.019149  0  0.078568  0.111116  0  1.043274  0
H  H26  1  0.22062065  0.77174658  0.70206398  1  -0.00304  0  0.080328  0.105002  0  1.006992  0
H  H27  1  0.29895030  0.82999086  0.68548530  1  0.01316  0  0.077834  0.100749  0  1.01229  0
H  H28  1  0.35900461  0.71791771  0.79291145  1  0.013886  0  0.08387  0.070243  0  0.980646  0
H  H29  1  0.42912394  0.68648387  0.70971121  1  0.051175  0  0.078575  0.070155  0  1.010846  0
H  H30  1  0.34048920  0.58405244  0.67538559  1  0.033989  0  0.090503  0.096307  0  1.00399  0
H  H31  1  0.28185595  0.60978554  0.76518013  1  0.051333  0  0.091628  0.090039  0  0.973435  0
H  H32  1  0.78869423  0.20111380  0.69178918  1  -0.016505  0  0.07955  0.101781  0  1.0103  0
H  H33  1  0.83714812  0.28664312  0.69800592  1  0.034733  0  0.080275  0.10904  0  1.023981  0
H  H34  1  0.86478052  0.19816773  0.76875086  1  0.018406  0  0.083985  0.108733  0  1.006173  0
H  H35  1  0.75259377  0.33720256  0.82249172  1  0.004186  0  0.088255  0.077721  0  0.976203  0
H  H36  1  0.70668459  0.24997243  0.82155845  1  0.020229  0  0.087319  0.076206  0  0.972407  0
H  H37  1  0.62602325  0.31092433  0.69667681  1  0.032858  0  0.092084  0.096333  0  0.990034  0
H  H38  1  0.67563198  0.39435280  0.69229268  1  0.010009  0  0.091947  0.095885  0  0.972301  0
H  H39  1  0.14891190  0.64104622  0.34239085  1  -0.005138  0  0.081115  0.109448  0  1.013223  0
H  H40  1  0.17019170  0.74337681  0.34106310  1  0.0109  0  0.080411  0.105246  0  1.013331  0
H  H41  1  0.09029566  0.72740318  0.27540436  1  0.017318  0  0.084114  0.109444  0  1.005205  0
H  H42  1  0.23527582  0.71368025  0.20377640  1  0.004476  0  0.087481  0.076298  0  0.972793  0
H  H43  1  0.21554026  0.61100599  0.20678094  1  0.009213  0  0.08679  0.075388  0  0.977566  0
H  H44  1  0.31800746  0.56385901  0.32481598  1  0.037004  0  0.087683  0.093179  0  0.985022  0
H  H45  1  0.33944229  0.66450071  0.31878489  1  0.055547  0  0.092764  0.099362  0  0.982858  0
C  C46  1  0.49689836  0.47551999  0.65026175  1  1.50008  0  0.219597  0.612231  0  4.163268  0
C  C47  1  0.49896649  0.52332918  0.34843769  1  1.559735  0  0.223112  0.62058  0  4.149677  0
C  C48  1  0.09903421  0.39803684  0.55616748  1  0.006379  0  -0.095948  -0.184134  0  3.99398  0
C  C49  1  0.89811977  0.60443915  0.53327682  1  0.168395  0  -0.099048  -0.185263  0  4.000537  0
C  C50  1  0.05911038  0.33325890  0.55873906  1  -0.132052  0  -0.014787  0.072114  0  3.960267  0
C  C51  1  0.93788017  0.66922908  0.53239588  1  -0.166113  0  -0.014541  0.074995  0  3.956102  0
C  C52  1  0.49601836  0.47392891  0.73798417  1  0.06634  0  -0.011818  -0.12884  0  3.87266  0
C  C53  1  0.49000970  0.52937803  0.26110164  1  -0.08424  0  -0.011646  -0.128059  0  3.871616  0
C  C54  1  0.42314609  0.53501546  0.77791709  1  -0.025891  0  -0.002273  0.117887  0  3.950592  0
C  C55  1  0.56568532  0.48636854  0.21371635  1  0.045482  0  -0.003525  0.117826  0  3.956985  0
C  C56  1  0.42499254  0.53512566  0.85929327  1  -0.06153  0  -0.090875  -0.209831  0  3.934972  0
C  C57  1  0.55348298  0.48832287  0.13323115  1  -0.067773  0  -0.092423  -0.213305  0  3.946418  0
C  C58  1  0.49896271  0.47707109  0.90018005  1  0.391181  0  0.07959  0.175748  0  4.096355  0
C  C59  1  0.46793581  0.53103873  0.10028635  1  0.37864  0  0.077806  0.175896  0  4.094535  0
C  C60  1  0.57047252  0.41675550  0.85959165  1  -0.106112  0  -0.091682  -0.214286  0  3.957366  0
C  C61  1  0.39413274  0.57516692  0.14800916  1  -0.077943  0  -0.092638  -0.216587  0  3.956709  0
C  C62  1  0.57063566  0.41417300  0.77834421  1  0.056785  0  -0.007623  0.106916  0  3.949812  0
C  C63  1  0.40363444  0.57415321  0.22897919  1  0.055729  0  -0.009  0.104241  0  3.953101  0
C  C64  1  0.46777882  0.77447669  0.46702965  1  0.468164  0  0.062359  0.124915  0  3.891736  0
C  C65  1  0.53554324  0.22493133  0.52957640  1  0.479305  0  0.060991  0.124257  0  3.896307  0
C  C66  1  0.46304410  0.86238414  0.46813409  1  0.016384  0  -0.069954  -0.176364  0  3.917863  0
C  C67  1  0.53645724  0.13803394  0.53134097  1  0.047775  0  -0.071715  -0.179565  0  3.920804  0
C  C68  1  0.67666483  0.42637346  0.50302316  1  1.558751  0  0.21563  0.594781  0  4.164652  0
C  C69  1  0.32475494  0.57505795  0.50829062  1  1.573244  0  0.21328  0.587936  0  4.182047  0
C  C70  1  0.51271855  0.88834944  0.52465310  1  0.374303  0  0.103276  0.168533  0  4.020998  0
C  C71  1  0.47804614  0.11463286  0.48142646  1  0.35206  0  0.102562  0.167628  0  4.032642  0
C  C72  1  0.56714873  0.82412580  0.57727696  1  -0.007205  0  -0.007963  -0.035049  0  3.905543  0
C  C73  1  0.41901277  0.18038736  0.43283491  1  -0.00143  0  -0.009168  -0.037556  0  3.909818  0
C  C74  1  0.56969724  0.73547596  0.57044714  1  0.531805  0  0.119383  0.196281  0  3.956582  0
C  C75  1  0.42317746  0.26718335  0.43446133  1  0.532305  0  0.118822  0.198483  0  3.959003  0
C  C76  1  0.77684948  0.39846453  0.51663304  1  0.039511  0  -0.017989  -0.035155  0  3.991411  0
C  C77  1  0.22404421  0.60195904  0.51933837  1  -0.022994  0  -0.017037  -0.032984  0  3.987284  0
C  C78  1  0.92198893  0.28621997  0.54173904  1  -0.072651  0  -0.093188  -0.126492  0  3.993649  0
C  C79  1  0.07670920  0.71517429  0.52449435  1  -0.104709  0  -0.092943  -0.123968  0  3.989623  0
C  C80  1  0.83024698  0.30853844  0.52740266  1  -0.009011  0  -0.080437  -0.085574  0  3.990515  0
C  C81  1  0.16978016  0.69219832  0.51868286  1  0.073684  0  -0.079212  -0.083046  0  3.992046  0
C  C82  1  0.81704729  0.46385990  0.52034600  1  -0.053036  0  -0.080591  -0.13255  0  3.948015  0
C  C83  1  0.18374216  0.53661611  0.52879941  1  -0.032657  0  -0.079708  -0.131947  0  3.933869  0
C  C84  1  0.91023313  0.44382637  0.53488974  1  -0.032434  0  0.000238  0.045222  0  3.945025  0
C  C85  1  0.08897451  0.55746535  0.53572250  1  0.001276  0  -0.000206  0.043971  0  3.944368  0
C  C86  1  0.96425631  0.35216790  0.54555602  1  0.065678  0  -0.009849  0.03234  0  3.995434  0
C  C87  1  0.03408687  0.64943347  0.53144235  1  -0.004272  0  -0.009501  0.033977  0  3.996749  0
C  C88  1  0.95152090  0.51278373  0.53694569  1  0.003166  0  -0.002515  0.045369  0  3.96876  0
C  C89  1  0.04682699  0.48908272  0.54290579  1  -0.022526  0  -0.00195  0.044101  0  3.971263  0
C  C90  1  0.65831319  0.43848639  0.24756803  1  -0.009856  0  -0.16205  -0.195144  0  3.944019  0
C  C91  1  0.70911052  0.49987715  0.27556136  1  -0.023171  0  -0.166857  -0.088933  0  3.948697  0
C  C92  1  0.80678547  0.44757377  0.29855392  1  -0.022467  0  -0.247496  -0.348495  0  3.984547  0
C  C93  1  0.34658006  0.60390764  0.73529937  1  -0.036523  0  -0.161411  -0.192343  0  3.937229  0
C  C94  1  0.36052988  0.69519068  0.73266123  1  -0.029976  0  -0.166391  -0.078725  0  3.945885  0
C  C95  1  0.29024066  0.76445951  0.68264801  1  -0.045227  0  -0.250703  -0.354411  0  3.981045  0
C  C96  1  0.65041571  0.35331918  0.73391864  1  0.008688  0  -0.160955  -0.188668  0  3.946504  0
C  C97  1  0.72967629  0.29541836  0.78334305  1  0.002268  0  -0.166517  -0.089463  0  3.978602  0
C  C98  1  0.80949124  0.24234562  0.73294578  1  -0.03962  0  -0.247089  -0.351702  0  3.988855  0
C  C99  1  0.32369718  0.61564834  0.28253688  1  -0.039872  0  -0.162539  -0.19062  0  3.945333  0
C  C100  1  0.23180403  0.65914949  0.24355237  1  0.006662  0  -0.166442  -0.088329  0  3.981464  0
C  C101  1  0.15606602  0.69473800  0.30363173  1  -0.026032  0  -0.247434  -0.353747  0  3.986722  0
Br  Br102  1  0.13496988  0.21390315  0.58044790  1  -0.088687  0  0.002256  -0.095241  0  1.351366  0
Br  Br103  1  0.85989794  0.79003257  0.53002951  1  -0.090195  0  0.000189  -0.09761  0  1.410827  0
Br  Br104  1  0.63546565  0.85703364  0.65262549  1  0.034769  0  0.063071  -0.015593  0  1.526032  0
Br  Br105  1  0.33540626  0.15117314  0.37051208  1  0.03312  0  0.063596  -0.014127  0  1.474328  0
Br  Br106  1  0.64462594  0.64615106  0.63695856  1  0.054187  0  0.114082  0.036794  0  1.556928  0
Br  Br107  1  0.34813997  0.35690358  0.36844114  1  0.05608  0  0.102311  0.030148  0  1.524386  0
N  N108  1  0.51128481  0.47535921  0.98163984  1  -0.481667  0  -0.153023  -0.134016  0  3.306854  0
N  N109  1  0.45023593  0.53231597  0.01953037  1  -0.481156  0  -0.154024  -0.136544  0  3.275778  0
N  N110  1  0.52012013  0.71223524  0.51743108  1  -1.21152  0  -0.307489  -0.223824  0  3.472203  0
N  N111  1  0.48042386  0.28806614  0.48156878  1  -1.197038  0  -0.30858  -0.223467  0  3.473482  0
N  N112  1  0.50672198  0.97766140  0.53409861  1  -0.428022  0  -0.127374  -0.091677  0  3.248203  0
N  N113  1  0.48156984  0.02601672  0.47327269  1  -0.444713  0  -0.125785  -0.087804  0  3.260378  0
O  O114  1  0.49612769  0.40662919  0.61540464  1  -1.15534  0  -0.314142  -0.544318  0  2.298807  0
O  O115  1  0.49299976  0.59369444  0.38436461  1  -1.164419  0  -0.312872  -0.551263  0  2.31687  0
O  O116  1  0.49944095  0.54751814  0.61745740  1  -1.172133  0  -0.314138  -0.5613  0  2.415563  0
O  O117  1  0.51015668  0.44706094  0.37974819  1  -1.163415  0  -0.315604  -0.561071  0  2.372316  0
O  O118  1  0.63893557  0.36654759  0.50406946  1  -1.161151  0  -0.318235  -0.547687  0  2.289226  0
O  O119  1  0.36165502  0.63550323  0.50707142  1  -1.179084  0  -0.314763  -0.546205  0  2.301847  0
O  O120  1  0.63636578  0.50944434  0.49254678  1  -1.173424  0  -0.322883  -0.570249  0  2.399816  0
O  O121  1  0.36602006  0.49231460  0.50082537  1  -1.185344  0  -0.323011  -0.575218  0  2.427727  0
