# generated using pymatgen
data_CuH11C14NO3
_symmetry_space_group_name_H-M   'P 1'
_cell_length_a   4.79179620
_cell_length_b   9.91354442
_cell_length_c   15.90895388
_cell_angle_alpha   92.56362627
_cell_angle_beta   90.00113370
_cell_angle_gamma   90.00105535
_symmetry_Int_Tables_number   1
_chemical_formula_structural   CuH11C14NO3
_chemical_formula_sum   'Cu2 H22 C28 N2 O6'
_cell_volume   754.97756168
_cell_formula_units_Z   2
loop_
 _symmetry_equiv_pos_site_id
 _symmetry_equiv_pos_as_xyz
  1  'x, y, z'
loop_
 _atom_site_type_symbol
 _atom_site_label
 _atom_site_symmetry_multiplicity
 _atom_site_fract_x
 _atom_site_fract_y
 _atom_site_fract_z
 _atom_site_occupancy
 _atom_site_hle17_ddec_charge
 _atom_site_hle17_ddec_spin_density
 _atom_site_hle17_ddec_sum_bond_order
 _atom_site_hle17_magmom
 _atom_site_hse06_10hf_ddec_charge
 _atom_site_hse06_10hf_ddec_spin_density
 _atom_site_hse06_10hf_ddec_sum_bond_order
 _atom_site_hse06_10hf_magmom
 _atom_site_hse06_ddec_charge
 _atom_site_hse06_ddec_spin_density
 _atom_site_hse06_ddec_sum_bond_order
 _atom_site_hse06_magmom
 _atom_site_pbe_cm5_charge
 _atom_site_pbe_ddec_charge
 _atom_site_pbe_ddec_spin_density
 _atom_site_pbe_ddec_sum_bond_order
 _atom_site_pbe_magmom
Cu  Cu0  1  0.69955459  0.95561729  0.42027356  1  0.915158  -0.685667  1.786997  -0.505  0.901206  -0.768043  2.181887  -0.614  0.992112  -0.831649  2.109099  -0.697  0.748107  0.843773  -0.723968  2.235455  -0.562
Cu  Cu1  1  0.19960166  0.04439446  0.57972247  1  0.915155  -0.685677  1.787157  -0.505  0.901306  -0.768047  2.182077  -0.614  0.992198  -0.831637  2.109255  -0.697  0.748071  0.843746  -0.723981  2.235691  -0.562
H  H2  1  0.55637427  0.62827376  0.13560992  1  0.082619  -0.000304  0.970246  0.0  0.095299  -0.000397  1.028529  0.0  0.098164  -0.000267  1.027303  0.0  0.095477  0.09323  -0.000514  1.029627  0.0
H  H3  1  0.05646972  0.37173549  0.86437942  1  0.082811  -0.000314  0.970133  0.0  0.095479  -0.000397  1.028429  0.0  0.098339  -0.000266  1.027197  0.0  0.095617  0.093411  -0.000514  1.029528  0.0
H  H4  1  0.63700832  0.55811965  0.99007386  1  0.082376  -3.4e-05  0.975205  0.0  0.092723  1e-05  1.037554  0.0  0.094664  2e-05  1.037763  0.0  0.095089  0.091314  1e-06  1.037448  0.0
H  H5  1  0.13701740  0.44185593  0.00993128  1  0.082395  -3.2e-05  0.975173  0.0  0.092799  1e-05  1.037461  0.0  0.094732  2e-05  1.037679  0.0  0.095087  0.091383  1e-06  1.037357  0.0
H  H6  1  0.99381385  0.67329963  0.90347825  1  0.087749  2.6e-05  0.941223  0.0  0.101906  -1.5e-05  0.992403  0.0  0.104881  -1.1e-05  0.991785  0.0  0.099761  0.099609  -1.6e-05  0.993232  0.0
H  H7  1  0.49378353  0.32666092  0.09654071  1  0.087839  3.5e-05  0.941159  0.0  0.101956  -1.5e-05  0.992361  0.0  0.104936  -1.1e-05  0.991742  0.0  0.099727  0.099658  -1.6e-05  0.993194  0.0
H  H8  1  0.26929924  0.86404117  0.96897861  1  0.091865  -4.6e-05  0.949149  0.0  0.103485  -1.1e-05  1.008743  0.0  0.105818  -1e-06  1.008363  0.0  0.100811  0.101811  -2e-05  1.009037  0.0
H  H9  1  0.76930159  0.13595281  0.03102984  1  0.091906  -4.6e-05  0.949037  0.0  0.103472  -1.1e-05  1.008699  0.0  0.105804  -1e-06  1.008316  0.0  0.100816  0.101793  -2e-05  1.009005  0.0
H  H10  1  0.37346997  0.01657195  0.08661095  1  0.087002  -0.000933  0.973428  -0.001  0.09826  -0.000464  1.037295  -0.001  0.099859  -0.00026  1.037053  0.0  0.099293  0.097203  -0.000653  1.037261  -0.001
H  H11  1  0.87352661  0.98343457  0.91338452  1  0.087076  -0.000931  0.97332  -0.001  0.098241  -0.000463  1.037294  -0.001  0.09985  -0.00026  1.037049  0.0  0.099274  0.097171  -0.000652  1.037299  -0.001
H  H12  1  0.29964434  0.09768698  0.23514561  1  0.121013  0.000747  0.922195  0.001  0.133181  0.000208  0.973925  0.0  0.136909  0.000208  0.972451  0.0  0.110398  0.130288  0.000172  0.975488  0.0
H  H13  1  0.79968737  0.90232837  0.76484736  1  0.121007  0.000743  0.922263  0.001  0.133245  0.000208  0.973914  0.0  0.136973  0.000208  0.972439  0.0  0.110438  0.130352  0.000172  0.975478  0.0
H  H14  1  0.51331843  0.68548965  0.24863739  1  0.065696  -0.009034  0.935562  -0.011  0.081309  -0.005901  0.992924  -0.007  0.081468  -0.004252  0.989155  -0.005  0.118684  0.080676  -0.007048  0.995999  -0.008
H  H15  1  0.01336998  0.31452011  0.75136228  1  0.065674  -0.009034  0.935518  -0.011  0.0813  -0.0059  0.992871  -0.007  0.08145  -0.004251  0.989102  -0.005  0.11865  0.080666  -0.007047  0.995947  -0.008
H  H16  1  0.17662900  0.69850858  0.35778283  1  0.066244  -0.002466  0.907621  -0.003  0.07915  -0.002112  0.96334  -0.002  0.079415  -0.001558  0.964495  -0.001  0.113898  0.078914  -0.002486  0.962634  -0.002
H  H17  1  0.67664258  0.30147956  0.64221225  1  0.06622  -0.002472  0.907748  -0.003  0.079159  -0.002113  0.963472  -0.002  0.079409  -0.001559  0.964616  -0.001  0.113959  0.078922  -0.002487  0.962766  -0.002
H  H18  1  0.55871895  0.53007989  0.37630300  1  0.107314  -7.6e-05  0.932892  0.0  0.130582  -0.000162  0.987854  0.0  0.132374  -9.1e-05  0.987438  0.0  0.091978  0.129522  -0.000224  0.987916  0.0
H  H19  1  0.05872666  0.46992868  0.62370014  1  0.10731  -7.6e-05  0.932831  0.0  0.130571  -0.000162  0.987813  0.0  0.132364  -9.1e-05  0.987397  0.0  0.091933  0.129507  -0.000224  0.98788  0.0
H  H20  1  0.34313050  0.53973130  0.46740795  1  0.120644  -0.000482  0.961575  -0.001  0.143027  -0.00028  1.018418  0.0  0.143782  -0.000181  1.019606  0.0  0.097367  0.142186  -0.000358  1.018001  0.0
H  H21  1  0.84312895  0.46027184  0.53259394  1  0.120582  -0.000481  0.961618  -0.001  0.143022  -0.00028  1.018398  0.0  0.143778  -0.000181  1.019586  0.0  0.097374  0.142182  -0.000358  1.01798  0.0
H  H22  1  0.67488737  0.62363335  0.46831877  1  0.126912  -0.000133  0.968237  0.0  0.144959  -0.000221  1.031195  0.0  0.146905  -0.000128  1.030625  0.0  0.094096  0.143283  -0.000311  1.03191  0.0
H  H23  1  0.17489491  0.37638916  0.53168078  1  0.126883  -0.000135  0.968293  0.0  0.144993  -0.000221  1.031166  0.0  0.146936  -0.000128  1.030601  0.0  0.09411  0.143316  -0.000311  1.031882  0.0
C  C24  1  0.98153712  0.95094190  0.26052501  1  0.356148  0.013395  3.835397  0.012  0.347246  0.002721  4.102953  0.003  0.37316  0.004075  4.116959  0.004  0.097723  0.330325  0.001247  4.092776  0.003
C  C25  1  0.48157884  0.04907552  0.73947190  1  0.356346  0.013355  3.835173  0.012  0.347613  0.002711  4.102541  0.003  0.373525  0.004075  4.116544  0.004  0.097903  0.330689  0.001247  4.092372  0.003
C  C26  1  0.82494088  0.83762924  0.22728588  1  -0.19063  -0.008527  3.789998  -0.012  -0.184246  -0.003191  4.0438  -0.006  -0.205441  -0.001801  4.073041  -0.004  -0.047097  -0.170446  -0.004464  4.0239  -0.007
C  C27  1  0.32498563  0.16238156  0.77271061  1  -0.190694  -0.008463  3.789831  -0.012  -0.184436  -0.003174  4.043746  -0.006  -0.205633  -0.001798  4.072988  -0.004  -0.047205  -0.170636  -0.004459  4.023854  -0.007
C  C28  1  0.86681612  0.78984754  0.14050151  1  0.049563  0.006025  3.765436  0.004  0.059924  0.001725  3.995066  0.001  0.064307  0.001867  4.02222  0.001  -0.005819  0.057253  0.001539  3.976577  0.001
C  C29  1  0.36683683  0.21014390  0.85950188  1  0.049945  0.005982  3.765333  0.004  0.060257  0.001722  3.994939  0.001  0.064639  0.001869  4.022092  0.001  -0.005695  0.057589  0.001539  3.976448  0.001
C  C30  1  0.71653634  0.68107169  0.10128825  1  -0.13608  -0.003051  3.770983  -0.003  -0.159078  -0.000705  4.02517  -0.001  -0.165092  -0.000548  4.048382  -0.001  -0.101987  -0.155141  -0.000938  4.009405  -0.001
C  C31  1  0.21656126  0.31891727  0.89871478  1  -0.136422  -0.00301  3.771081  -0.003  -0.159424  -0.000708  4.025335  -0.001  -0.165425  -0.000551  4.048526  -0.001  -0.102102  -0.155486  -0.000937  4.009571  -0.001
C  C32  1  0.76084734  0.64083800  0.01788520  1  -0.064506  0.004422  3.809926  0.003  -0.07724  0.000878  4.063174  0.0  -0.076608  0.00097  4.084903  0.001  -0.095701  -0.077275  0.000813  4.048096  0.0
C  C33  1  0.26087464  0.35914367  0.98212055  1  -0.064486  0.004401  3.809965  0.003  -0.077253  0.000881  4.063199  0.0  -0.076612  0.000971  4.084927  0.001  -0.095807  -0.077286  0.000812  4.048137  0.0
C  C34  1  0.96015883  0.70613063  0.96902049  1  -0.093339  -0.001617  3.815197  -0.002  -0.109982  0.00016  4.070311  0.0  -0.114671  5.9e-05  4.092569  0.0  -0.103055  -0.10697  0.000177  4.055236  0.0
C  C35  1  0.46016524  0.29385144  0.03099220  1  -0.093447  -0.001629  3.815082  -0.002  -0.110044  0.000167  4.070215  0.0  -0.114739  5.9e-05  4.092471  0.0  -0.102924  -0.107032  0.000179  4.055143  0.0
C  C36  1  0.11145738  0.81230005  0.00514359  1  -0.104359  0.003643  3.769416  0.002  -0.122052  0.000604  4.018467  0.0  -0.121978  0.000711  4.039688  0.0  -0.089057  -0.121794  0.00049  4.003835  0.0
C  C37  1  0.61146642  0.18768825  0.99486259  1  -0.104287  0.003654  3.769189  0.002  -0.121997  0.000596  4.018149  0.0  -0.12192  0.000709  4.039368  0.0  -0.089132  -0.121739  0.00049  4.003516  0.0
C  C38  1  0.06709434  0.85622452  0.08987167  1  0.024262  -0.001864  3.813273  -0.002  0.040139  -5.5e-05  4.044266  0.0  0.03527  -0.000126  4.069699  0.0  -0.020321  0.043235  -4.6e-05  4.026963  0.0
C  C39  1  0.56711324  0.14376497  0.91012978  1  0.023978  -0.001865  3.813588  -0.002  0.040113  -5.3e-05  4.044182  0.0  0.035245  -0.000127  4.069619  0.0  -0.02026  0.04321  -4.5e-05  4.026878  0.0
C  C40  1  0.22108224  0.96746247  0.12597128  1  -0.062956  0.01224  3.771462  0.007  -0.08736  0.003029  4.025646  0.001  -0.08302  0.003777  4.044679  0.002  -0.081041  -0.090036  0.00239  4.012561  0.0
C  C41  1  0.72114554  0.03254668  0.87402834  1  -0.063022  0.012255  3.771198  0.007  -0.087426  0.003029  4.025346  0.001  -0.083096  0.003778  4.044389  0.002  -0.081094  -0.090107  0.002389  4.012262  0.0
C  C42  1  0.18100941  0.01319256  0.20721583  1  -0.182909  -0.018208  3.728053  -0.02  -0.202748  -0.008713  3.982708  -0.011  -0.212669  -0.006341  4.00062  -0.008  -0.102031  -0.19647  -0.010508  3.97102  -0.013
C  C43  1  0.68104384  0.98681379  0.79277770  1  -0.182993  -0.018207  3.727718  -0.02  -0.202944  -0.008711  3.982363  -0.011  -0.212866  -0.006341  4.000273  -0.008  -0.102132  -0.196665  -0.010507  3.97068  -0.013
C  C44  1  0.62431124  0.77244165  0.27765396  1  0.168525  0.028159  3.743432  0.019  0.12745  0.009124  4.011137  0.005  0.151969  0.011348  4.021601  0.007  0.069024  0.111607  0.007011  4.004175  0.004
C  C45  1  0.12435656  0.22757191  0.72234321  1  0.168554  0.028157  3.74337  0.019  0.127492  0.009124  4.011122  0.005  0.152021  0.01135  4.021576  0.007  0.069128  0.111649  0.007012  4.004157  0.004
C  C46  1  0.35481904  0.72427660  0.39937773  1  0.057124  -0.008171  3.673807  -0.007  0.04933  -0.006254  3.913006  -0.005  0.049377  -0.004192  3.929519  -0.003  0.005728  0.049616  -0.007833  3.901851  -0.007
C  C47  1  0.85484291  0.27572155  0.60061770  1  0.057183  -0.00815  3.67421  -0.007  0.049212  -0.006251  3.913553  -0.005  0.049341  -0.004191  3.92993  -0.003  0.005652  0.049497  -0.007831  3.902389  -0.007
C  C48  1  0.49161605  0.59565839  0.42997651  1  -0.326683  -0.001786  3.656147  -0.002  -0.403944  -0.001014  3.883655  -0.001  -0.407218  -0.000752  3.893878  -0.001  -0.240061  -0.4013  -0.001263  3.876741  -0.001
C  C49  1  0.99162389  0.40434619  0.57002573  1  -0.326613  -0.001782  3.656176  -0.002  -0.403924  -0.001013  3.883674  -0.001  -0.407219  -0.000751  3.89387  -0.001  -0.24004  -0.401279  -0.001262  3.876767  -0.001
C  C50  1  0.23815660  0.80701417  0.47490698  1  0.632039  0.007256  3.829305  0.006  0.588452  0.001596  4.13615  0.001  0.624263  0.001929  4.128774  0.001  0.211041  0.564198  0.00119  4.139319  0.001
C  C51  1  0.73820870  0.19297609  0.52509280  1  0.63173  0.007253  3.829483  0.006  0.58839  0.001599  4.136035  0.001  0.62419  0.001933  4.128644  0.001  0.211076  0.564136  0.001193  4.139197  0.001
N  N52  1  0.55729833  0.80551630  0.35515264  1  -0.370318  -0.108254  3.317295  -0.138  -0.333851  -0.069823  3.64116  -0.094  -0.371884  -0.057795  3.659273  -0.084  -0.39514  -0.31191  -0.07541  3.631869  -0.097
N  N53  1  0.05732161  0.19448711  0.64484664  1  -0.370339  -0.108269  3.317347  -0.138  -0.333881  -0.069823  3.641309  -0.094  -0.371923  -0.057796  3.659374  -0.084  -0.395149  -0.311895  -0.075408  3.631985  -0.097
O  O54  1  0.96132275  0.00375441  0.33678709  1  -0.518563  -0.12366  2.072303  -0.168  -0.508942  -0.078466  2.363486  -0.118  -0.557309  -0.057046  2.359878  -0.094  -0.324095  -0.478075  -0.092056  2.367026  -0.13
O  O55  1  0.46139917  0.99628272  0.66320279  1  -0.51865  -0.123662  2.072278  -0.168  -0.50916  -0.078457  2.363469  -0.118  -0.557522  -0.057037  2.359844  -0.094  -0.324182  -0.478259  -0.092042  2.367015  -0.13
O  O56  1  0.37799375  0.91778258  0.49554497  1  -0.624794  -0.088547  2.240694  -0.122  -0.586219  -0.068006  2.562026  -0.1  -0.632761  -0.056062  2.545722  -0.089  -0.342561  -0.555048  -0.075318  2.57422  -0.106
O  O57  1  0.87804329  0.08221587  0.50444655  1  -0.624621  -0.088531  2.240831  -0.122  -0.586133  -0.067995  2.562069  -0.1  -0.63268  -0.056056  2.545778  -0.089  -0.342517  -0.55496  -0.075306  2.574253  -0.106
O  O58  1  0.02910517  0.77084363  0.51328299  1  -0.567113  -0.013063  1.909909  -0.018  -0.54198  -0.006238  2.137078  -0.01  -0.566067  -0.001924  2.125829  -0.005  -0.300517  -0.52356  -0.011611  2.143532  -0.017
O  O59  1  0.52911213  0.22913911  0.48671479  1  -0.567022  -0.01306  1.909569  -0.018  -0.541981  -0.006238  2.136657  -0.01  -0.566073  -0.001922  2.12541  -0.005  -0.300571  -0.523555  -0.011612  2.143109  -0.017
