# generated using pymatgen
data_CoH12C12(NO)4
_symmetry_space_group_name_H-M   'P 1'
_cell_length_a   5.52015369
_cell_length_b   8.61541242
_cell_length_c   14.65263407
_cell_angle_alpha   83.75016598
_cell_angle_beta   79.43887862
_cell_angle_gamma   70.31171857
_symmetry_Int_Tables_number   1
_chemical_formula_structural   CoH12C12(NO)4
_chemical_formula_sum   'Co2 H24 C24 N8 O8'
_cell_volume   644.16644760
_cell_formula_units_Z   2
loop_
 _symmetry_equiv_pos_site_id
 _symmetry_equiv_pos_as_xyz
  1  'x, y, z'
loop_
 _atom_site_type_symbol
 _atom_site_label
 _atom_site_symmetry_multiplicity
 _atom_site_fract_x
 _atom_site_fract_y
 _atom_site_fract_z
 _atom_site_occupancy
 _atom_site_hle17_ddec_charge
 _atom_site_hle17_ddec_spin_density
 _atom_site_hle17_ddec_sum_bond_order
 _atom_site_hle17_magmom
 _atom_site_pbe_cm5_charge
 _atom_site_pbe_ddec_charge
 _atom_site_pbe_ddec_spin_density
 _atom_site_pbe_ddec_sum_bond_order
 _atom_site_pbe_magmom
Co  Co0  1  0.83708531  0.24831182  0.74879624  1  0.704762  1.169249  2.346277  1.078  0.605225  0.628951  1.044418  2.832753  0.976
Co  Co1  1  0.15628231  0.75048215  0.25069967  1  0.913224  2.79813  1.970034  2.573  0.643834  0.823774  2.81126  2.415909  2.601
H  H2  1  0.74624451  0.92689971  0.77582565  1  0.082285  -0.000329  0.975383  0.0  0.113314  0.087672  -0.000368  1.042454  0.0
H  H3  1  0.57169593  0.41196145  0.27005257  1  0.072408  0.000131  0.973441  0.001  0.107664  0.077817  0.000245  1.042006  0.001
H  H4  1  0.25226833  0.08650308  0.23029053  1  0.072377  0.000119  0.972421  0.001  0.108194  0.078422  0.000212  1.039995  0.001
H  H5  1  0.45556331  0.58046956  0.71926844  1  0.079491  -0.000148  0.974214  0.0  0.112974  0.085588  -0.000234  1.04015  0.0
H  H6  1  0.87992151  0.67370331  0.69027835  1  0.117814  -0.000339  0.979258  0.0  0.104207  0.124126  -0.000193  1.039822  0.0
H  H7  1  0.78358936  0.15765503  0.18477137  1  0.117043  0.000122  0.982234  0.0  0.103387  0.123759  0.000197  1.042734  0.0
H  H8  1  0.13061656  0.33786883  0.31669912  1  0.117536  0.000115  0.978107  0.0  0.103779  0.124444  0.000184  1.038324  0.0
H  H9  1  0.24496219  0.83234387  0.80547583  1  0.117182  -0.000232  0.982873  0.0  0.103918  0.124344  -8e-05  1.042392  0.0
H  H10  1  0.36742968  0.88757221  0.48681242  1  0.118189  -0.000223  0.952929  0.0  0.105886  0.125667  -5.6e-05  1.010815  0.0
H  H11  1  0.26228222  0.37086336  0.98350094  1  0.113423  0.00018  0.959816  0.0  0.104811  0.123817  0.000259  1.016228  0.0
H  H12  1  0.61775567  0.13678363  0.51635813  1  0.113641  0.000183  0.958248  0.0  0.105308  0.124908  0.000243  1.012874  0.0
H  H13  1  0.73376423  0.60353433  0.01495402  1  0.118064  -0.000171  0.953682  0.0  0.105937  0.125486  -2e-05  1.01184  0.0
H  H14  1  0.20988564  0.13356926  0.58058345  1  0.078669  -0.000328  0.98039  0.0  0.112787  0.082791  -0.000316  1.051564  0.0
H  H15  1  0.07006479  0.61607215  0.07812459  1  0.07006  4e-06  0.973055  0.001  0.10858  0.076433  8.2e-05  1.04182  0.001
H  H16  1  0.76149978  0.89310340  0.42094303  1  0.069058  -1.5e-05  0.972208  0.001  0.108305  0.076217  7.3e-05  1.040429  0.001
H  H17  1  0.91839038  0.35858539  0.92151041  1  0.078983  -0.00014  0.971367  0.0  0.113293  0.083767  -0.000201  1.040386  0.0
H  H18  1  0.16618253  0.51894610  0.55791634  1  0.32658  0.000118  0.919638  0.0  0.296606  0.303753  0.000175  0.988263  0.0
H  H19  1  0.77958957  0.00224132  0.05465436  1  0.326793  0.000182  0.913863  0.0  0.298208  0.304911  0.000266  0.980274  0.0
H  H20  1  0.85360359  0.49279618  0.45053744  1  0.328501  0.000172  0.906776  0.0  0.30155  0.307714  0.000234  0.970661  0.0
H  H21  1  0.22010584  0.97796565  0.94369700  1  0.32902  -1.8e-05  0.899752  0.0  0.303578  0.307426  -7.2e-05  0.966743  0.0
H  H22  1  0.32200152  0.61745206  0.46510292  1  0.333117  -3.9e-05  0.919647  0.0  0.297448  0.307979  -6.6e-05  0.990548  0.0
H  H23  1  0.60507030  0.09964130  0.96311631  1  0.332494  -0.000108  0.922557  0.0  0.299246  0.310952  -6.8e-05  0.989416  0.0
H  H24  1  0.68928052  0.39677378  0.54169110  1  0.330333  -7.8e-05  0.916566  0.0  0.301786  0.308865  -0.000104  0.982345  0.0
H  H25  1  0.39007574  0.87878662  0.03570250  1  0.335504  -6.7e-05  0.917297  0.0  0.299012  0.311011  -0.000102  0.986539  0.0
C  C26  1  0.34388387  0.30035642  0.70216297  1  0.510191  -0.012453  3.873485  -0.007  0.208848  0.44303  -0.008242  4.188333  -0.004
C  C27  1  0.65617379  0.79678031  0.20257196  1  0.525442  -0.020038  3.887822  -0.013  0.211685  0.460089  -0.011429  4.195343  -0.007
C  C28  1  0.65874025  0.70299525  0.29867296  1  0.522409  -0.01995  3.893076  -0.013  0.208598  0.457402  -0.011244  4.200721  -0.007
C  C29  1  0.32567259  0.20192750  0.79560286  1  0.512137  -0.012302  3.883738  -0.007  0.209028  0.445291  -0.007985  4.198642  -0.004
C  C30  1  0.88328315  0.91426079  0.71133614  1  0.107886  -0.006876  3.752163  -0.005  0.02631  0.069417  -0.004135  4.003059  -0.003
C  C31  1  0.50621399  0.39868746  0.20647977  1  0.121099  -0.006801  3.773029  -0.004  0.02474  0.086007  -0.001242  4.021898  0.0
C  C32  1  0.11173694  0.10115320  0.29408413  1  0.122051  -0.006497  3.776027  -0.004  0.026273  0.086539  -0.001226  4.024103  0.0
C  C33  1  0.51269183  0.58880642  0.78525676  1  0.114387  -0.00939  3.750158  -0.006  0.025926  0.076534  -0.005208  3.999174  -0.003
C  C34  1  0.95949300  0.77223624  0.66331049  1  -0.251506  0.000245  3.714178  0.001  -0.105264  -0.254989  -0.000303  3.947997  0.0
C  C35  1  0.62483562  0.25607599  0.15878905  1  -0.256815  0.003786  3.712038  0.005  -0.107771  -0.260217  0.002088  3.943924  0.003
C  C36  1  0.04288893  0.24250251  0.34231411  1  -0.256243  0.003667  3.70819  0.005  -0.107095  -0.259359  0.002061  3.940555  0.003
C  C37  1  0.39563504  0.73077532  0.83357593  1  -0.255678  0.001129  3.716516  0.002  -0.106879  -0.259166  -3.4e-05  3.949461  0.0
C  C38  1  0.13545399  0.75638900  0.57874132  1  0.371747  -0.003886  3.863771  -0.003  0.117115  0.347186  -0.002851  4.102541  -0.002
C  C39  1  0.54374055  0.23981382  0.07514893  1  0.37328  -0.005205  3.863223  -0.004  0.118412  0.350277  -0.00162  4.098343  -0.001
C  C40  1  0.86385622  0.26082687  0.42621910  1  0.374889  -0.004934  3.859335  -0.003  0.119635  0.350412  -0.001494  4.096256  -0.001
C  C41  1  0.46576655  0.74248345  0.92007197  1  0.373994  -0.00645  3.863535  -0.004  0.117297  0.348198  -0.004138  4.103204  -0.002
C  C42  1  0.23196197  0.88981378  0.55119999  1  -0.248639  0.00041  3.715167  0.001  -0.105351  -0.253107  -0.000167  3.951961  0.0
C  C43  1  0.33319609  0.37318899  0.04777653  1  -0.256564  0.004196  3.723527  0.006  -0.107016  -0.256976  0.002316  3.950949  0.003
C  C44  1  0.75604485  0.13197992  0.45251848  1  -0.256751  0.003976  3.722515  0.006  -0.106632  -0.257006  0.00219  3.95045  0.003
C  C45  1  0.66780723  0.60508149  0.94911302  1  -0.249908  0.001237  3.716518  0.002  -0.105385  -0.254205  9e-06  3.952888  0.001
C  C46  1  0.14468095  0.02780869  0.60327461  1  0.120539  -0.00671  3.742712  -0.005  0.029053  0.078018  -0.004052  3.998424  -0.003
C  C47  1  0.22576187  0.51051532  0.10041650  1  0.130613  -0.008446  3.772076  -0.005  0.027883  0.093592  -0.001996  4.020292  -0.001
C  C48  1  0.83577220  0.99570925  0.39930739  1  0.132785  -0.008083  3.769891  -0.005  0.028841  0.094904  -0.001851  4.018014  -0.001
C  C49  1  0.77283229  0.46732407  0.89670373  1  0.122204  -0.009489  3.738146  -0.006  0.028243  0.081047  -0.005258  3.991916  -0.003
N  N50  1  0.96965542  0.04443283  0.68271159  1  -0.30045  -0.022267  3.37847  -0.016  -0.363041  -0.238391  -0.011188  3.66078  -0.008
N  N51  1  0.30787196  0.52785088  0.17915992  1  -0.37472  0.034296  3.307097  0.059  -0.357321  -0.311898  0.031817  3.584042  0.047
N  N52  1  0.01399251  0.97546884  0.32084711  1  -0.375597  0.033181  3.305614  0.057  -0.356378  -0.311816  0.031023  3.582314  0.046
N  N53  1  0.69871570  0.45393373  0.81531454  1  -0.306068  -0.017827  3.358561  -0.011  -0.359897  -0.245745  -0.008981  3.641834  -0.006
N  N54  1  0.20096567  0.62332582  0.52723938  1  -0.641987  -0.001669  3.117051  -0.001  -0.580682  -0.589969  -0.001384  3.348695  -0.001
N  N55  1  0.66689793  0.10657798  0.02362399  1  -0.646651  0.000542  3.119721  0.001  -0.58052  -0.590616  0.001256  3.344213  0.002
N  N56  1  0.80674898  0.39135550  0.47890757  1  -0.638921  0.000474  3.126348  0.001  -0.576878  -0.581933  0.001197  3.351703  0.002
N  N57  1  0.34154078  0.87482020  0.97222656  1  -0.638382  -0.002996  3.11815  -0.002  -0.577092  -0.587024  -0.002314  3.34969  -0.001
O  O58  1  0.14855661  0.34820183  0.66060545  1  -0.537356  0.017962  2.066363  0.032  -0.277583  -0.483511  0.021537  2.319933  0.036
O  O59  1  0.85705980  0.83541521  0.16702345  1  -0.564618  0.030644  2.118281  0.057  -0.2901  -0.504104  0.032008  2.382602  0.054
O  O60  1  0.86367483  0.66746015  0.33514705  1  -0.561781  0.030947  2.102967  0.057  -0.290838  -0.50424  0.03229  2.369243  0.054
O  O61  1  0.11834379  0.16310711  0.82282311  1  -0.514841  -0.010936  2.185036  -0.008  -0.288255  -0.463823  -0.003037  2.471153  -0.002
O  O62  1  0.56047838  0.32716342  0.67225088  1  -0.520135  -0.00963  2.208734  -0.007  -0.28583  -0.464315  -0.002255  2.490656  -0.001
O  O63  1  0.45330438  0.82793556  0.16534008  1  -0.568085  0.03048  2.123305  0.057  -0.291941  -0.505684  0.031884  2.38483  0.054
O  O64  1  0.45408760  0.66908856  0.33497693  1  -0.566374  0.030654  2.129594  0.057  -0.290034  -0.502927  0.031944  2.390314  0.054
O  O65  1  0.51476204  0.16548341  0.83978845  1  -0.544132  0.018691  2.089674  0.033  -0.278936  -0.487516  0.022065  2.342941  0.037
