# generated using pymatgen
data_LiAlH16C28(NO)4
_symmetry_space_group_name_H-M   'P 1'
_cell_length_a   6.90542817
_cell_length_b   6.90785624
_cell_length_c   13.66921836
_cell_angle_alpha   104.67670829
_cell_angle_beta   104.64531816
_cell_angle_gamma   89.96347113
_symmetry_Int_Tables_number   1
_chemical_formula_structural   LiAlH16C28(NO)4
_chemical_formula_sum   'Li1 Al1 H16 C28 N4 O4'
_cell_volume   608.87258178
_cell_formula_units_Z   1
loop_
 _symmetry_equiv_pos_site_id
 _symmetry_equiv_pos_as_xyz
  1  'x, y, z'
loop_
 _atom_site_type_symbol
 _atom_site_label
 _atom_site_symmetry_multiplicity
 _atom_site_fract_x
 _atom_site_fract_y
 _atom_site_fract_z
 _atom_site_occupancy
 _atom_site_hle17_bader_spin_density
 _atom_site_hle17_ddec_charge
 _atom_site_hle17_ddec_spin_density
 _atom_site_hle17_ddec_sum_bond_order
 _atom_site_hle17_magmom
 _atom_site_hse06_10hf_bader_spin_density
 _atom_site_hse06_10hf_ddec_charge
 _atom_site_hse06_10hf_ddec_spin_density
 _atom_site_hse06_10hf_ddec_sum_bond_order
 _atom_site_hse06_10hf_magmom
 _atom_site_hse06_bader_spin_density
 _atom_site_hse06_ddec_charge
 _atom_site_hse06_ddec_spin_density
 _atom_site_hse06_ddec_sum_bond_order
 _atom_site_hse06_magmom
 _atom_site_pbe_bader_spin_density
 _atom_site_pbe_cm5_charge
 _atom_site_pbe_ddec_charge
 _atom_site_pbe_ddec_spin_density
 _atom_site_pbe_ddec_sum_bond_order
 _atom_site_pbe_magmom
Li  Li0  1  0.99983510  0.00004112  0.99999070  1  0  0.839819  0  0.423954  0  0  0.777591  0  0.568346  0  0  0.788956  0  0.549429  0  0  0.570275  0.769725  0  0.581494  0
Al  Al1  1  0.25034593  0.74997226  0.49999359  1  0  1.728045  0  2.366596  0  0  1.566352  0  2.763275  0  0  1.601644  0  2.711303  0  0  0.483245  1.541596  0  2.797651  0
H  H2  1  0.58069444  0.83801180  0.78025195  1  0  0.112781  0  0.965957  0  0  0.123192  0  1.026684  0  0  0.126017  0  1.026631  0  0  0.106894  0.121189  0  1.02691  0
H  H3  1  0.19757021  0.94225714  0.78037374  1  0  0.114283  0  0.966065  0  0  0.124728  0  1.026725  0  0  0.127477  0  1.02672  0  0  0.107276  0.122773  0  1.026919  0
H  H4  1  0.05729288  0.41868420  0.21948892  1  0  0.113585  0  0.96688  0  0  0.123951  0  1.027625  0  0  0.126772  0  1.027558  0  0  0.106852  0.121954  0  1.027852  0
H  H5  1  0.16192002  0.80154418  0.22004640  1  0  0.112935  0  0.966355  0  0  0.123539  0  1.026819  0  0  0.126287  0  1.026838  0  0  0.10729  0.121583  0  1.026995  0
H  H6  1  0.68810271  0.63137684  0.90619724  1  0  0.098563  0  0.959236  0  0  0.108878  0  1.019954  0  0  0.111392  0  1.018646  0  0  0.109719  0.107103  0  1.020854  0
H  H7  1  0.21585294  0.27500899  0.90608715  1  0  0.099619  0  0.958761  0  0  0.109969  0  1.019351  0  0  0.11245  0  1.018057  0  0  0.110925  0.108258  0  1.020164  0
H  H8  1  0.72460077  0.31124251  0.09383736  1  0  0.099239  0  0.958991  0  0  0.109751  0  1.019503  0  0  0.11224  0  1.018192  0  0  0.110508  0.108012  0  1.020371  0
H  H9  1  0.36818214  0.78261652  0.09392003  1  0  0.098255  0  0.95972  0  0  0.108795  0  1.020193  0  0  0.111282  0  1.0189  0  0  0.110167  0.107081  0  1.021008  0
H  H10  1  0.60414218  0.09913328  0.64755198  1  0  0.101486  0  0.947754  0  0  0.110274  0  1.011014  0  0  0.114027  0  1.007753  0  0  0.110719  0.107413  0  1.013604  0
H  H11  1  0.04537182  0.54813296  0.64734196  1  0  0.100438  0  0.948014  0  0  0.109289  0  1.011378  0  0  0.113038  0  1.008139  0  0  0.110597  0.106435  0  1.013966  0
H  H12  1  0.45170109  0.39718722  0.35267591  1  0  0.100224  0  0.947332  0  0  0.10901  0  1.010857  0  0  0.112788  0  1.007535  0  0  0.109937  0.106117  0  1.013537  0
H  H13  1  0.90106704  0.95501195  0.35217102  1  0  0.100967  0  0.947467  0  0  0.110193  0  1.010462  0  0  0.113871  0  1.007279  0  0  0.110871  0.107349  0  1.013035  0
H  H14  1  0.49393441  0.30751893  0.52243915  1  0  0.119859  0  0.945389  0  0  0.130572  0  1.004666  0  0  0.133885  0  1.003834  0  0  0.109672  0.128233  0  1.005413  0
H  H15  1  0.03099734  0.21429246  0.52234040  1  0  0.120228  0  0.945225  0  0  0.130991  0  1.004219  0  0  0.134247  0  1.003462  0  0  0.110053  0.128699  0  1.004919  0
H  H16  1  0.78573232  0.50767760  0.47768393  1  0  0.120215  0  0.944833  0  0  0.130528  0  1.004418  0  0  0.133884  0  1.003509  0  0  0.109895  0.12815  0  1.005232  0
H  H17  1  0.69321351  0.97034859  0.47756571  1  0  0.120527  0  0.9441  0  0  0.131163  0  1.00334  0  0  0.134426  0  1.00256  0  0  0.110101  0.128838  0  1.004101  0
C  C18  1  0.53309061  0.58710812  0.64307038  1  0  0.39946  0  3.842579  0  0  0.389921  0  4.093967  0  0  0.405497  0  4.106846  0  0  0.110027  0.379271  0  4.085208  0
C  C19  1  0.11003894  0.05549079  0.64303401  1  0  0.404252  0  3.841449  0  0  0.39376  0  4.093964  0  0  0.40938  0  4.106786  0  0  0.113081  0.383102  0  4.085221  0
C  C20  1  0.94429829  0.46710166  0.35689678  1  0  0.401133  0  3.845065  0  0  0.391229  0  4.096684  0  0  0.406835  0  4.109585  0  0  0.111727  0.380588  0  4.087889  0
C  C21  1  0.41305827  0.89032223  0.35713861  1  0  0.404141  0  3.838303  0  0  0.393498  0  4.090778  0  0  0.409118  0  4.103635  0  0  0.112145  0.382869  0  4.081997  0
C  C22  1  0.58643671  0.67656532  0.75194206  1  0  -0.201711  0  3.725553  0  0  -0.220933  0  3.976103  0  0  -0.230193  0  3.997836  0  0  -0.100145  -0.214922  0  3.961519  0
C  C23  1  0.16416005  0.07522133  0.75191038  1  0  -0.203147  0  3.724227  0  0  -0.222245  0  3.975245  0  0  -0.231422  0  3.996912  0  0  -0.100332  -0.216269  0  3.960674  0
C  C24  1  0.92442508  0.41316850  0.24798888  1  0  -0.200783  0  3.725229  0  0  -0.219873  0  3.975596  0  0  -0.229123  0  3.997322  0  0  -0.099432  -0.213866  0  3.960998  0
C  C25  1  0.32340503  0.83538948  0.24827690  1  0  -0.202764  0  3.72331  0  0  -0.221977  0  3.974388  0  0  -0.231142  0  3.996048  0  0  -0.100916  -0.216008  0  3.959803  0
C  C26  1  0.64557888  0.56107818  0.82218700  1  0  -0.057878  0  3.764555  0  0  -0.080642  0  4.012343  0  0  -0.078566  0  4.033617  0  0  -0.070748  -0.081585  0  3.997636  0
C  C27  1  0.17529631  0.26112681  0.82208225  1  0  -0.061666  0  3.765371  0  0  -0.084408  0  4.013601  0  0  -0.082316  0  4.034749  0  0  -0.074479  -0.085347  0  3.998911  0
C  C28  1  0.73852581  0.35407731  0.17784750  1  0  -0.061817  0  3.764952  0  0  -0.08457  0  4.013511  0  0  -0.082498  0  4.034706  0  0  -0.073548  -0.085489  0  3.998794  0
C  C29  1  0.43872155  0.82383470  0.17789421  1  0  -0.058135  0  3.764902  0  0  -0.081227  0  4.012938  0  0  -0.079062  0  4.034084  0  0  -0.072123  -0.082191  0  3.998238  0
C  C30  1  0.65375619  0.35209170  0.78489252  1  0  -0.038029  0  3.92676  0  0  -0.015879  0  4.159786  0  0  -0.023885  0  4.184929  0  0  -0.01639  -0.010685  0  4.142807  0
C  C31  1  0.13101490  0.43277943  0.78468687  1  0  -0.037393  0  3.925504  0  0  -0.015624  0  4.159083  0  0  -0.023544  0  4.184051  0  0  -0.016174  -0.010489  0  4.142241  0
C  C32  1  0.56696523  0.34644198  0.21529682  1  0  -0.036395  0  3.923966  0  0  -0.015457  0  4.15886  0  0  -0.023341  0  4.18379  0  0  -0.015954  -0.010327  0  4.141993  0
C  C33  1  0.64785750  0.86843919  0.21502102  1  0  -0.039458  0  3.927551  0  0  -0.016974  0  4.16011  0  0  -0.025189  0  4.185641  0  0  -0.017149  -0.011805  0  4.143204  0
C  C34  1  0.59916437  0.26099859  0.67618316  1  0  -0.048117  0  3.740119  0  0  -0.072693  0  3.991962  0  0  -0.069812  0  4.012037  0  0  -0.069852  -0.074226  0  3.978473  0
C  C35  1  0.07815379  0.41488918  0.67599018  1  0  -0.046606  0  3.739649  0  0  -0.071038  0  3.991554  0  0  -0.068173  0  4.011544  0  0  -0.069536  -0.072601  0  3.97814  0
C  C36  1  0.58496435  0.40169845  0.32401115  1  0  -0.047348  0  3.73971  0  0  -0.071662  0  3.991714  0  0  -0.068814  0  4.011778  0  0  -0.069811  -0.073216  0  3.97826  0
C  C37  1  0.73910215  0.92207555  0.32369517  1  0  -0.047046  0  3.741221  0  0  -0.072073  0  3.993032  0  0  -0.069091  0  4.013063  0  0  -0.069465  -0.07364  0  3.979558  0
C  C38  1  0.53952812  0.37755422  0.60640075  1  0  -0.198419  0  3.717566  0  0  -0.218057  0  3.971764  0  0  -0.226863  0  3.992589  0  0  -0.09575  -0.212445  0  3.957989  0
C  C39  1  0.06808904  0.22834851  0.60627233  1  0  -0.200904  0  3.718779  0  0  -0.220399  0  3.973911  0  0  -0.229134  0  3.994703  0  0  -0.097342  -0.21484  0  3.960172  0
C  C40  1  0.77151836  0.46141978  0.39370561  1  0  -0.199504  0  3.719351  0  0  -0.218615  0  3.973563  0  0  -0.227408  0  3.994354  0  0  -0.096347  -0.212997  0  3.95979  0
C  C41  1  0.62275523  0.93256367  0.39365061  1  0  -0.2007  0  3.716258  0  0  -0.220073  0  3.97136  0  0  -0.228771  0  3.99211  0  0  -0.096846  -0.214502  0  3.957568  0
C  C42  1  0.72432405  0.23604571  0.85646891  1  0  0.344624  0  3.763203  0  0  0.327297  0  4.027767  0  0  0.342342  0  4.043982  0  0  0.21957  0.317057  0  4.016908  0
C  C43  1  0.13179434  0.62053816  0.85619160  1  0  0.344486  0  3.760091  0  0  0.327188  0  4.024996  0  0  0.342219  0  4.041131  0  0  0.218298  0.31695  0  4.014208  0
C  C44  1  0.37918140  0.27587913  0.14378941  1  0  0.344382  0  3.759082  0  0  0.327445  0  4.023979  0  0  0.342452  0  4.040139  0  0  0.219211  0.317225  0  4.013155  0
C  C45  1  0.76393895  0.86758956  0.14343518  1  0  0.3455  0  3.76212  0  0  0.32802  0  4.026809  0  0  0.343109  0  4.042926  0  0  0.218755  0.317783  0  4.015986  0
N  N46  1  0.78825529  0.14047463  0.91534293  1  0  -0.531167  0  2.673724  0  0  -0.496356  0  2.914913  0  0  -0.509511  0  2.921713  0  0  -0.388542  -0.487578  0  2.910423  0
N  N47  1  0.12644810  0.77491868  0.91513504  1  0  -0.531166  0  2.671995  0  0  -0.496292  0  2.913117  0  0  -0.509464  0  2.919935  0  0  -0.387011  -0.487501  0  2.908604  0
N  N48  1  0.22476151  0.21193420  0.08482831  1  0  -0.531344  0  2.671113  0  0  -0.496369  0  2.911919  0  0  -0.509541  0  2.918752  0  0  -0.387691  -0.487571  0  2.907395  0
N  N49  1  0.85957243  0.87293358  0.08461635  1  0  -0.531125  0  2.674341  0  0  -0.496193  0  2.915409  0  0  -0.509347  0  2.922169  0  0  -0.386887  -0.487411  0  2.910909  0
O  O50  1  0.48092324  0.70185014  0.57630584  1  0  -0.743133  0  2.108023  0  0  -0.671313  0  2.348284  0  0  -0.691763  0  2.334097  0  0  -0.2891  -0.656377  0  2.357666  0
O  O51  1  0.09589665  0.87376514  0.57640434  1  0  -0.744483  0  2.108548  0  0  -0.672149  0  2.348973  0  0  -0.692672  0  2.334865  0  0  -0.288626  -0.657244  0  2.358447  0
O  O52  1  0.12605832  0.51950564  0.42347362  1  0  -0.743798  0  2.108933  0  0  -0.671551  0  2.348847  0  0  -0.692049  0  2.334667  0  0  -0.288834  -0.656645  0  2.358328  0
O  O53  1  0.29838567  0.90471201  0.42396396  1  0  -0.745006  0  2.107165  0  0  -0.672485  0  2.347622  0  0  -0.692938  0  2.333292  0  0  -0.288779  -0.657576  0  2.357076  0
