# generated using pymatgen
data_HgH10C8(SN2)2
_symmetry_space_group_name_H-M   'P 1'
_cell_length_a   7.88077718
_cell_length_b   7.88061792
_cell_length_c   8.86076362
_cell_angle_alpha   92.73646538
_cell_angle_beta   92.73853630
_cell_angle_gamma   91.27800565
_symmetry_Int_Tables_number   1
_chemical_formula_structural   HgH10C8(SN2)2
_chemical_formula_sum   'Hg2 H20 C16 S4 N8'
_cell_volume   548.87924867
_cell_formula_units_Z   2
loop_
 _symmetry_equiv_pos_site_id
 _symmetry_equiv_pos_as_xyz
  1  'x, y, z'
loop_
 _atom_site_type_symbol
 _atom_site_label
 _atom_site_symmetry_multiplicity
 _atom_site_fract_x
 _atom_site_fract_y
 _atom_site_fract_z
 _atom_site_occupancy
 _atom_site_pbe_bader_spin_density
 _atom_site_pbe_cm5_charge
 _atom_site_pbe_ddec_charge
 _atom_site_pbe_ddec_spin_density
 _atom_site_pbe_ddec_sum_bond_order
 _atom_site_pbe_magmom
Hg  Hg0  1  0.05400543  0.94597360  0.24999096  1  0  0.463667  0.416489  0  2.684547  0
Hg  Hg1  1  0.94599915  0.05403452  0.75000653  1  0  0.463657  0.416472  0  2.684581  0
H  H2  1  0.59433203  0.36593063  0.63081005  1  0  0.106619  0.095089  0  1.040396  0
H  H3  1  0.36591563  0.59429879  0.13081031  1  0  0.106589  0.095098  0  1.040336  0
H  H4  1  0.40568401  0.63407872  0.36918686  1  0  0.106554  0.09502  0  1.040513  0
H  H5  1  0.63408259  0.40570934  0.86918915  1  0  0.106563  0.095046  0  1.040383  0
H  H6  1  0.32737863  0.44049343  0.84115068  1  0  0.112578  0.10864  0  1.043451  0
H  H7  1  0.44047927  0.32737304  0.34116465  1  0  0.112572  0.108622  0  1.043462  0
H  H8  1  0.67261430  0.55950709  0.15884822  1  0  0.112556  0.108614  0  1.043439  0
H  H9  1  0.55952615  0.67261982  0.65883672  1  0  0.112547  0.108615  0  1.043406  0
H  H10  1  0.14245572  0.49468121  0.61538390  1  0  0.10053  0.125805  0  1.014991  0
H  H11  1  0.49466580  0.14246391  0.11539675  1  0  0.100528  0.125874  0  1.01505  0
H  H12  1  0.85753699  0.50531169  0.38461805  1  0  0.100499  0.125761  0  1.014994  0
H  H13  1  0.50533100  0.85753913  0.88461033  1  0  0.100533  0.12588  0  1.015004  0
H  H14  1  0.00194180  0.67002778  0.62263052  1  0  0.090599  0.10747  0  1.059787  0
H  H15  1  0.67001212  0.00194386  0.12264609  1  0  0.090653  0.107602  0  1.059613  0
H  H16  1  0.99804570  0.32996005  0.37736646  1  0  0.090608  0.107472  0  1.059754  0
H  H17  1  0.32998466  0.99805793  0.87735078  1  0  0.090649  0.1076  0  1.059694  0
H  H18  1  0.93368477  0.46739714  0.68315890  1  0  0.098226  0.120947  0  1.003566  0
H  H19  1  0.46738367  0.93368264  0.18317017  1  0  0.098256  0.121041  0  1.003618  0
H  H20  1  0.06631172  0.53259447  0.31684654  1  0  0.09829  0.121035  0  1.003584  0
H  H21  1  0.53261435  0.06631787  0.81682557  1  0  0.098278  0.121089  0  1.003559  0
C  C22  1  0.04060056  0.71239266  0.93233055  1  0  0.189107  0.242659  0  4.053399  0
C  C23  1  0.71240011  0.04059960  0.43234255  1  0  0.189026  0.242534  0  4.053632  0
C  C24  1  0.95939643  0.28761675  0.06767117  1  0  0.189119  0.242686  0  4.053294  0
C  C25  1  0.28760551  0.95940087  0.56766706  1  0  0.189115  0.2427  0  4.053621  0
C  C26  1  0.61313453  0.26975423  0.54204707  1  0  -0.017141  -0.042306  0  4.056952  0
C  C27  1  0.26975009  0.61311759  0.04204548  1  0  -0.017052  -0.042145  0  4.056772  0
C  C28  1  0.38687344  0.73023863  0.45794425  1  0  -0.017005  -0.042051  0  4.056624  0
C  C29  1  0.73025057  0.38688672  0.95795167  1  0  -0.017032  -0.04203  0  4.05655  0
C  C30  1  0.25518704  0.53729405  0.89866642  1  0  -0.007239  -0.103632  0  3.947076  0
C  C31  1  0.53729389  0.25518828  0.39867621  1  0  -0.007209  -0.103599  0  3.947061  0
C  C32  1  0.74480847  0.46270773  0.10133377  1  0  -0.007213  -0.103657  0  3.947039  0
C  C33  1  0.46270800  0.74481476  0.60132206  1  0  -0.007218  -0.103701  0  3.947246  0
C  C34  1  0.04287486  0.55574648  0.67873202  1  0  -0.139792  -0.261714  0  3.86898  0
C  C35  1  0.55573207  0.04287496  0.17873933  1  0  -0.139846  -0.261992  0  3.869196  0
C  C36  1  0.95711916  0.44424768  0.32127116  1  0  -0.139812  -0.261711  0  3.868927  0
C  C37  1  0.44426477  0.95712935  0.82126442  1  0  -0.13987  -0.261987  0  3.869052  0
S  S38  1  0.85124876  0.81421706  0.89798094  1  0  -0.174319  -0.3463  0  2.642065  0
S  S39  1  0.81420718  0.85123953  0.39799131  1  0  -0.174268  -0.346209  0  2.642113  0
S  S40  1  0.14875208  0.18579360  0.10201762  1  0  -0.174277  -0.346243  0  2.641974  0
S  S41  1  0.18580205  0.14875331  0.60200910  1  0  -0.17425  -0.346207  0  2.642352  0
N  N42  1  0.13677451  0.72115697  0.06221204  1  0  -0.344364  -0.308633  0  3.438792  0
N  N43  1  0.72118029  0.13678415  0.56221590  1  0  -0.344406  -0.308606  0  3.438858  0
N  N44  1  0.86323130  0.27884987  0.93778544  1  0  -0.344398  -0.308725  0  3.438657  0
N  N45  1  0.27883048  0.86321885  0.43778840  1  0  -0.344438  -0.308759  0  3.438701  0
N  N46  1  0.11114553  0.60124425  0.83050064  1  0  -0.246714  0.053492  0  3.752461  0
N  N47  1  0.60123372  0.11113465  0.33051404  1  0  -0.246626  0.053744  0  3.752206  0
N  N48  1  0.88884747  0.39875882  0.16949837  1  0  -0.246722  0.05351  0  3.752511  0
N  N49  1  0.39876630  0.88884679  0.66948434  1  0  -0.246708  0.0536  0  3.752375  0
