# generated using pymatgen
data_CdH15C19BrN2O5
_symmetry_space_group_name_H-M   'P 1'
_cell_length_a   8.74198669
_cell_length_b   9.57404285
_cell_length_c   11.73929897
_cell_angle_alpha   103.54120906
_cell_angle_beta   90.00049671
_cell_angle_gamma   90.00252448
_symmetry_Int_Tables_number   1
_chemical_formula_structural   CdH15C19BrN2O5
_chemical_formula_sum   'Cd2 H30 C38 Br2 N4 O10'
_cell_volume   955.22147265
_cell_formula_units_Z   2
loop_
 _symmetry_equiv_pos_site_id
 _symmetry_equiv_pos_as_xyz
  1  'x, y, z'
loop_
 _atom_site_type_symbol
 _atom_site_label
 _atom_site_symmetry_multiplicity
 _atom_site_fract_x
 _atom_site_fract_y
 _atom_site_fract_z
 _atom_site_occupancy
 _atom_site_hle17_bader_spin_density
 _atom_site_hle17_ddec_charge
 _atom_site_hle17_ddec_spin_density
 _atom_site_hle17_ddec_sum_bond_order
 _atom_site_hle17_magmom
 _atom_site_hse06_10hf_bader_spin_density
 _atom_site_hse06_10hf_ddec_charge
 _atom_site_hse06_10hf_ddec_spin_density
 _atom_site_hse06_10hf_ddec_sum_bond_order
 _atom_site_hse06_10hf_magmom
 _atom_site_hse06_bader_spin_density
 _atom_site_hse06_ddec_charge
 _atom_site_hse06_ddec_spin_density
 _atom_site_hse06_ddec_sum_bond_order
 _atom_site_hse06_magmom
 _atom_site_pbe_bader_spin_density
 _atom_site_pbe_cm5_charge
 _atom_site_pbe_ddec_charge
 _atom_site_pbe_ddec_spin_density
 _atom_site_pbe_ddec_sum_bond_order
 _atom_site_pbe_magmom
Cd  Cd0  1  0.70560461  0.64217692  0.98357572  1  0  1.193996  0  1.714767  0  0  1.00719  0  2.177183  0  0  1.060192  0  2.123389  0  0  0.794155  0.968714  0  2.214895  0
Cd  Cd1  1  0.20561070  0.35783624  0.01643993  1  0  1.193971  0  1.714618  0  0  1.007128  0  2.177028  0  0  1.060142  0  2.123238  0  0  0.79415  0.968642  0  2.214737  0
H  H2  1  0.55956068  0.01588493  0.55055935  1  0  0.086526  0  0.977241  0  0  0.092266  0  1.049542  0  0  0.096388  0  1.04623  0  0  0.088397  0.089292  0  1.052011  0
H  H3  1  0.05961918  0.98409081  0.44941809  1  0  0.086712  0  0.977256  0  0  0.092509  0  1.049414  0  0  0.096672  0  1.046061  0  0  0.088504  0.089535  0  1.051885  0
H  H4  1  0.38354063  0.87342213  0.64605458  1  0  0.081758  0  0.955938  0  0  0.091168  0  1.017696  0  0  0.094963  0  1.015031  0  0  0.091932  0.088514  0  1.019572  0
H  H5  1  0.88358920  0.12654032  0.35392879  1  0  0.081986  0  0.955686  0  0  0.091451  0  1.017382  0  0  0.095246  0  1.014713  0  0  0.092086  0.088796  0  1.019255  0
H  H6  1  0.42424866  0.86515092  0.85350187  1  0  0.102247  0  0.948701  0  0  0.113322  0  1.009707  0  0  0.116633  0  1.007665  0  0  0.1037  0.110818  0  1.011539  0
H  H7  1  0.92426198  0.13481650  0.14648010  1  0  0.102287  0  0.948837  0  0  0.11342  0  1.009759  0  0  0.116731  0  1.007713  0  0  0.103725  0.110929  0  1.011573  0
H  H8  1  0.95731969  0.15391632  0.83837947  1  0  0.115554  0  0.949238  0  0  0.126076  0  1.017035  0  0  0.129021  0  1.015089  0  0  0.098396  0.123968  0  1.018749  0
H  H9  1  0.45735669  0.84610916  0.16160005  1  0  0.115573  0  0.949035  0  0  0.126102  0  1.0169  0  0  0.129065  0  1.014961  0  0  0.098375  0.123988  0  1.018615  0
H  H10  1  0.88241776  0.11449783  0.96496137  1  0  0.114254  0  0.961782  0  0  0.129324  0  1.021882  0  0  0.130993  0  1.021622  0  0  0.105201  0.12815  0  1.022168  0
H  H11  1  0.38242541  0.88551230  0.03500813  1  0  0.114367  0  0.961691  0  0  0.129455  0  1.02181  0  0  0.131134  0  1.021573  0  0  0.10516  0.12828  0  1.022084  0
H  H12  1  0.61310982  0.42900047  0.14990120  1  0  0.092604  0  0.960101  0  0  0.099856  0  1.024532  0  0  0.103013  0  1.021428  0  0  0.119551  0.097428  0  1.026892  0
H  H13  1  0.11312694  0.57100424  0.85011147  1  0  0.092687  0  0.95997  0  0  0.099886  0  1.02443  0  0  0.103046  0  1.021321  0  0  0.119515  0.097459  0  1.026789  0
H  H14  1  0.62604829  0.41476433  0.35847120  1  0  0.105554  0  0.953354  0  0  0.117773  0  1.010137  0  0  0.120827  0  1.009483  0  0  0.107691  0.115629  0  1.010688  0
H  H15  1  0.12606475  0.58523102  0.64152971  1  0  0.105526  0  0.953183  0  0  0.117729  0  1.010017  0  0  0.120783  0  1.009365  0  0  0.107667  0.115589  0  1.010571  0
H  H16  1  0.79083423  0.85342615  0.44193526  1  0  0.103391  0  0.964264  0  0  0.111947  0  1.030002  0  0  0.114535  0  1.029984  0  0  0.103221  0.110035  0  1.03026  0
H  H17  1  0.29081031  0.14656957  0.55808648  1  0  0.103416  0  0.964287  0  0  0.111941  0  1.030116  0  0  0.114524  0  1.030102  0  0  0.10327  0.110031  0  1.030369  0
H  H18  1  0.77894302  0.84580801  0.22767261  1  0  0.092507  0  0.950272  0  0  0.098106  0  1.01723  0  0  0.100805  0  1.014905  0  0  0.117723  0.096027  0  1.019037  0
H  H19  1  0.27891287  0.15418617  0.77235133  1  0  0.092547  0  0.950209  0  0  0.098123  0  1.01721  0  0  0.100829  0  1.014873  0  0  0.117688  0.096042  0  1.019018  0
H  H20  1  0.51678419  0.48849535  0.53647859  1  0  0.098572  0  0.973773  0  0  0.106683  0  1.039433  0  0  0.109216  0  1.039974  0  0  0.101319  0.104916  0  1.039192  0
H  H21  1  0.01678584  0.51151251  0.46353140  1  0  0.098612  0  0.973639  0  0  0.106733  0  1.039312  0  0  0.109265  0  1.039852  0  0  0.101331  0.104968  0  1.039075  0
H  H22  1  0.52588540  0.49541015  0.75034960  1  0  0.092321  0  0.921223  0  0  0.101959  0  0.980826  0  0  0.104296  0  0.979275  0  0  0.121012  0.100459  0  0.981706  0
H  H23  1  0.02587958  0.50458745  0.24966122  1  0  0.092381  0  0.921239  0  0  0.101987  0  0.980871  0  0  0.104325  0  0.979317  0  0  0.121032  0.100487  0  0.981748  0
H  H24  1  0.89212275  0.77816000  0.80231334  1  0  0.099014  0  0.941806  0  0  0.107644  0  1.003379  0  0  0.110266  0  1.001253  0  0  0.123233  0.105497  0  1.005309  0
H  H25  1  0.39208787  0.22187142  0.19771617  1  0  0.099002  0  0.94206  0  0  0.107604  0  1.003642  0  0  0.110225  0  1.001517  0  0  0.123151  0.105457  0  1.005573  0
H  H26  1  0.90174180  0.78087286  0.59143239  1  0  0.105527  0  0.940699  0  0  0.118411  0  0.996117  0  0  0.121618  0  0.994924  0  0  0.109174  0.116108  0  0.996998  0
H  H27  1  0.40174018  0.21915798  0.40859965  1  0  0.105518  0  0.940809  0  0  0.118475  0  0.996142  0  0  0.121679  0  0.994955  0  0  0.109253  0.11616  0  0.997027  0
H  H28  1  0.01163960  0.77381153  0.97314133  1  0  0.4134  0  0.907951  0  0  0.379892  0  0.976757  0  0  0.391102  0  0.960854  0  0  0.277766  0.371786  0  0.988235  0
H  H29  1  0.51163072  0.22617990  0.02686235  1  0  0.413405  0  0.907944  0  0  0.379904  0  0.976738  0  0  0.391115  0  0.960834  0  0  0.277736  0.371794  0  0.988221  0
H  H30  1  0.03553191  0.65315089  0.04487974  1  0  0.426862  0  0.875138  0  0  0.396724  0  0.937908  0  0  0.40706  0  0.92286  0  0  0.289852  0.389319  0  0.948706  0
H  H31  1  0.53552731  0.34686187  0.95512271  1  0  0.426876  0  0.875133  0  0  0.396716  0  0.937932  0  0  0.407055  0  0.922879  0  0  0.289844  0.389309  0  0.948732  0
C  C32  1  0.62065378  0.00660925  0.87710649  1  0  -0.093997  0  3.680407  0  0  -0.073286  0  3.915323  0  0  -0.078313  0  3.934433  0  0  -0.009882  -0.070531  0  3.902956  0
C  C33  1  0.12066651  0.99338519  0.12286951  1  0  -0.094323  0  3.680719  0  0  -0.073385  0  3.915347  0  0  -0.078575  0  3.934652  0  0  -0.009804  -0.070544  0  3.902884  0
C  C34  1  0.72163935  0.08883696  0.82497528  1  0  0.072914  0  3.713444  0  0  0.07697  0  3.949994  0  0  0.078548  0  3.972423  0  0  -0.011592  0.076298  0  3.93516  0
C  C35  1  0.22166363  0.91116073  0.17499519  1  0  0.072924  0  3.71322  0  0  0.077016  0  3.949669  0  0  0.078667  0  3.972138  0  0  -0.011613  0.076313  0  3.934815  0
C  C36  1  0.69487815  0.08890240  0.70718262  1  0  0.047556  0  3.675992  0  0  0.058873  0  3.943331  0  0  0.061093  0  3.964967  0  0  -0.019177  0.05716  0  3.928254  0
C  C37  1  0.19490382  0.91105340  0.29278463  1  0  0.04743  0  3.675856  0  0  0.058703  0  3.943221  0  0  0.060926  0  3.964842  0  0  -0.019113  0.056988  0  3.928155  0
C  C38  1  0.57519606  0.01341765  0.64214977  1  0  -0.146259  0  3.835059  0  0  -0.171177  0  4.096012  0  0  -0.173224  0  4.117158  0  0  -0.113928  -0.169755  0  4.081559  0
C  C39  1  0.07523414  0.98653630  0.35782654  1  0  -0.146251  0  3.834931  0  0  -0.171169  0  4.095917  0  0  -0.17325  0  4.117042  0  0  -0.114018  -0.16975  0  4.081474  0
C  C40  1  0.47755875  0.93310455  0.69604188  1  0  -0.061469  0  3.792152  0  0  -0.073326  0  4.047818  0  0  -0.074679  0  4.067175  0  0  -0.097538  -0.072374  0  4.034773  0
C  C41  1  0.97761987  0.06687818  0.30394483  1  0  -0.061958  0  3.792191  0  0  -0.073909  0  4.048056  0  0  -0.075267  0  4.067416  0  0  -0.097764  -0.07295  0  4.035004  0
C  C42  1  0.50054841  0.92922759  0.81271460  1  0  -0.065471  0  3.722257  0  0  -0.096219  0  3.9795  0  0  -0.095318  0  3.996907  0  0  -0.088106  -0.096545  0  3.968347  0
C  C43  1  0.00056447  0.07076396  0.18727198  1  0  -0.065239  0  3.722587  0  0  -0.096123  0  3.979871  0  0  -0.095166  0  3.997307  0  0  -0.088155  -0.096486  0  3.968696  0
C  C44  1  0.64105007  0.00405207  0.00553669  1  0  0.663912  0  3.922667  0  0  0.610646  0  4.228526  0  0  0.644386  0  4.220118  0  0  0.208059  0.587546  0  4.233412  0
C  C45  1  0.14104586  0.99596623  0.99445809  1  0  0.664076  0  3.922533  0  0  0.610719  0  4.228397  0  0  0.644516  0  4.219968  0  0  0.208237  0.587586  0  4.233293  0
C  C46  1  0.85412637  0.16565778  0.89345369  1  0  -0.324118  0  3.719617  0  0  -0.364305  0  3.956087  0  0  -0.369889  0  3.96319  0  0  -0.171513  -0.360615  0  3.951679  0
C  C47  1  0.35414728  0.83435237  0.10652329  1  0  -0.324165  0  3.719259  0  0  -0.364326  0  3.955666  0  0  -0.37  0  3.962861  0  0  -0.171312  -0.360611  0  3.951237  0
C  C48  1  0.83631310  0.32679919  0.94813849  1  0  0.727007  0  3.822129  0  0  0.674757  0  4.128028  0  0  0.709084  0  4.120336  0  0  0.210674  0.651212  0  4.132332  0
C  C49  1  0.33633020  0.67320767  0.05186506  1  0  0.727219  0  3.82164  0  0  0.674829  0  4.127875  0  0  0.70918  0  4.120181  0  0  0.210603  0.651277  0  4.132181  0
C  C50  1  0.65395210  0.51989644  0.21739734  1  0  0.147922  0  3.680938  0  0  0.11625  0  3.934334  0  0  0.124019  0  3.951098  0  0  0.052558  0.111212  0  3.923018  0
C  C51  1  0.15396976  0.48010473  0.78261500  1  0  0.147699  0  3.680725  0  0  0.116128  0  3.934043  0  0  0.123896  0  3.950804  0  0  0.052558  0.111091  0  3.922732  0
C  C52  1  0.65920317  0.51373775  0.33443297  1  0  -0.162242  0  3.703562  0  0  -0.179438  0  3.948051  0  0  -0.18702  0  3.968827  0  0  -0.083395  -0.174541  0  3.934145  0
C  C53  1  0.15920372  0.48625728  0.66558089  1  0  -0.162108  0  3.703517  0  0  -0.179324  0  3.948014  0  0  -0.186904  0  3.968791  0  0  -0.083347  -0.174431  0  3.934115  0
C  C54  1  0.70832355  0.63420340  0.41932253  1  0  0.085861  0  3.775273  0  0  0.097797  0  4.005714  0  0  0.101769  0  4.027265  0  0  0.005813  0.095411  0  3.990765  0
C  C55  1  0.20831845  0.36580214  0.58068329  1  0  0.085822  0  3.775216  0  0  0.097715  0  4.005666  0  0  0.101682  0  4.027215  0  0  0.005831  0.09532  0  3.990715  0
C  C56  1  0.75343841  0.75583075  0.38035803  1  0  -0.165658  0  3.710737  0  0  -0.183125  0  3.957974  0  0  -0.191596  0  3.980625  0  0  -0.085968  -0.177587  0  3.942815  0
C  C57  1  0.25343365  0.24417246  0.61964600  1  0  -0.165642  0  3.71073  0  0  -0.183113  0  3.957946  0  0  -0.19158  0  3.980597  0  0  -0.086014  -0.177574  0  3.942782  0
C  C58  1  0.74589474  0.75329761  0.26152791  1  0  0.132729  0  3.704603  0  0  0.103274  0  3.954543  0  0  0.110588  0  3.972456  0  0  0.049602  0.098521  0  3.942498  0
C  C59  1  0.24587435  0.24669037  0.73847853  1  0  0.132692  0  3.704595  0  0  0.103237  0  3.954511  0  0  0.110552  0  3.972421  0  0  0.04969  0.098486  0  3.942461  0
C  C60  1  0.71017512  0.63339161  0.54482395  1  0  0.091816  0  3.77202  0  0  0.103019  0  4.003773  0  0  0.106746  0  4.025633  0  0  0.009017  0.100568  0  3.988508  0
C  C61  1  0.21017999  0.36661298  0.45518343  1  0  0.091961  0  3.772239  0  0  0.103265  0  4.003872  0  0  0.107004  0  4.025718  0  0  0.009118  0.100842  0  3.988563  0
C  C62  1  0.60405797  0.55198567  0.59152498  1  0  -0.166906  0  3.71761  0  0  -0.18446  0  3.966194  0  0  -0.192307  0  3.987466  0  0  -0.08613  -0.179569  0  3.952973  0
C  C63  1  0.10405133  0.44801556  0.40849214  1  0  -0.167095  0  3.717405  0  0  -0.184721  0  3.96599  0  0  -0.192572  0  3.98726  0  0  -0.086268  -0.179846  0  3.95277  0
C  C64  1  0.60743902  0.55601132  0.71059945  1  0  0.142714  0  3.711939  0  0  0.109006  0  3.969588  0  0  0.11687  0  3.986761  0  0  0.052368  0.103079  0  3.959719  0
C  C65  1  0.10741590  0.44399120  0.28942046  1  0  0.142626  0  3.711954  0  0  0.108982  0  3.969533  0  0  0.116852  0  3.986699  0  0  0.052344  0.103052  0  3.959667  0
C  C66  1  0.81159224  0.71422406  0.74029307  1  0  0.139121  0  3.694505  0  0  0.108674  0  3.947212  0  0  0.11523  0  3.966793  0  0  0.055222  0.104127  0  3.934709  0
C  C67  1  0.31159091  0.28581635  0.25972636  1  0  0.138998  0  3.694768  0  0  0.108593  0  3.947453  0  0  0.11515  0  3.967035  0  0  0.055236  0.104041  0  3.934947  0
C  C68  1  0.81599904  0.71565583  0.62223643  1  0  -0.161691  0  3.712864  0  0  -0.179851  0  3.96376  0  0  -0.187917  0  3.985737  0  0  -0.081569  -0.174447  0  3.948681  0
C  C69  1  0.31601048  0.28436864  0.37777941  1  0  -0.161631  0  3.712963  0  0  -0.1799  0  3.963821  0  0  -0.187968  0  3.985794  0  0  -0.081703  -0.174496  0  3.94872  0
Br  Br70  1  0.82965844  0.19233768  0.62691836  1  0  -0.083501  0  1.263104  0  0  -0.067139  0  1.50499  0  0  -0.071738  0  1.499993  0  0  0.032505  -0.063178  0  1.508422  0
Br  Br71  1  0.32968354  0.80766855  0.37307225  1  0  -0.083455  0  1.263284  0  0  -0.067095  0  1.505198  0  0  -0.071692  0  1.500199  0  0  0.032506  -0.063133  0  1.508631  0
N  N72  1  0.69598178  0.63783902  0.18163944  1  0  -0.328239  0  3.241308  0  0  -0.25279  0  3.507262  0  0  -0.271946  0  3.524396  0  0  -0.32386  -0.239893  0  3.495478  0
N  N73  1  0.19598505  0.36215100  0.81836615  1  0  -0.328095  0  3.240966  0  0  -0.252626  0  3.5068  0  0  -0.271787  0  3.523949  0  0  -0.323821  -0.239726  0  3.495012  0
N  N74  1  0.70908074  0.63579203  0.78359139  1  0  -0.326771  0  3.256608  0  0  -0.252306  0  3.523249  0  0  -0.271601  0  3.541484  0  0  -0.323536  -0.239477  0  3.51248  0
N  N75  1  0.20905863  0.36422993  0.21642751  1  0  -0.326623  0  3.25689  0  0  -0.252141  0  3.52341  0  0  -0.271436  0  3.541645  0  0  -0.323359  -0.239308  0  3.512634  0
O  O76  1  0.69611283  0.89265548  0.03034506  1  0  -0.654302  0  2.026204  0  0  -0.593838  0  2.294342  0  0  -0.622487  0  2.283144  0  0  -0.332546  -0.57273  0  2.301004  0
O  O77  1  0.19609079  0.10735243  0.96965001  1  0  -0.654237  0  2.026653  0  0  -0.593783  0  2.294857  0  0  -0.622448  0  2.283663  0  0  -0.332714  -0.572675  0  2.301529  0
O  O78  1  0.60134370  0.11595415  0.08140807  1  0  -0.619747  0  1.920891  0  0  -0.56776  0  2.138057  0  0  -0.592526  0  2.127562  0  0  -0.32784  -0.549664  0  2.144808  0
O  O79  1  0.10136180  0.88403111  0.91857643  1  0  -0.619922  0  1.920139  0  0  -0.567932  0  2.137339  0  0  -0.592698  0  2.12682  0  0  -0.327987  -0.549832  0  2.144103  0
O  O80  1  0.72191488  0.39264770  0.91728685  1  0  -0.672291  0  2.040927  0  0  -0.598266  0  2.289258  0  0  -0.627163  0  2.277743  0  0  -0.325137  -0.577233  0  2.296213  0
O  O81  1  0.22191888  0.60736464  0.08271087  1  0  -0.672371  0  2.040743  0  0  -0.598265  0  2.289046  0  0  -0.62719  0  2.277593  0  0  -0.325122  -0.577233  0  2.296005  0
O  O82  1  0.93628172  0.38653873  0.02155288  1  0  -0.664624  0  1.980581  0  0  -0.603667  0  2.240728  0  0  -0.631974  0  2.229924  0  0  -0.336277  -0.58335  0  2.247631  0
O  O83  1  0.43631384  0.61346847  0.97845740  1  0  -0.664637  0  1.980486  0  0  -0.603599  0  2.240655  0  0  -0.631902  0  2.22984  0  0  -0.336209  -0.583281  0  2.247562  0
O  O84  1  0.95913980  0.69194711  0.99892980  1  0  -0.878439  0  1.93992  0  0  -0.816788  0  2.156825  0  0  -0.83968  0  2.12297  0  0  -0.610238  -0.800433  0  2.180952  0
O  O85  1  0.45913417  0.30803914  0.00105910  1  0  -0.878474  0  1.939942  0  0  -0.816812  0  2.156863  0  0  -0.839708  0  2.123002  0  0  -0.610197  -0.800456  0  2.180995  0
