# generated using pymatgen
data_ZnH13C10N5O4
_symmetry_space_group_name_H-M   'P 1'
_cell_length_a   9.04860057
_cell_length_b   9.66197767
_cell_length_c   11.63369532
_cell_angle_alpha   112.29340016
_cell_angle_beta   89.99979860
_cell_angle_gamma   90.00005051
_symmetry_Int_Tables_number   1
_chemical_formula_structural   ZnH13C10N5O4
_chemical_formula_sum   'Zn2 H26 C20 N10 O8'
_cell_volume   941.07845834
_cell_formula_units_Z   2
loop_
 _symmetry_equiv_pos_site_id
 _symmetry_equiv_pos_as_xyz
  1  'x, y, z'
loop_
 _atom_site_type_symbol
 _atom_site_label
 _atom_site_symmetry_multiplicity
 _atom_site_fract_x
 _atom_site_fract_y
 _atom_site_fract_z
 _atom_site_occupancy
 _atom_site_pbe_bader_spin_density
 _atom_site_pbe_cm5_charge
 _atom_site_pbe_ddec_charge
 _atom_site_pbe_ddec_spin_density
 _atom_site_pbe_ddec_sum_bond_order
 _atom_site_pbe_magmom
Zn  Zn0  1  0.57090399  0.86117337  0.07458057  1  0  0.704449  0.727604  0  2.439217  0
Zn  Zn1  1  0.07090397  0.13882676  0.92541881  1  0  0.704429  0.727574  0  2.439313  0
H  H2  1  0.57056806  0.34611401  0.93326146  1  0  0.300235  0.277801  0  1.008164  0
H  H3  1  0.07056577  0.65388723  0.06674000  1  0  0.300238  0.277798  0  1.00819  0
H  H4  1  0.57302977  0.22585965  0.16866671  1  0  0.113815  0.113156  0  1.004572  0
H  H5  1  0.07303188  0.77414383  0.83133459  1  0  0.113831  0.113154  0  1.004578  0
H  H6  1  0.24532221  0.40873059  0.93473381  1  0  0.115504  0.081504  0  1.017502  0
H  H7  1  0.74532091  0.59126945  0.06526592  1  0  0.115493  0.081473  0  1.017534  0
H  H8  1  0.24996724  0.90372012  0.98667179  1  0  0.117828  0.079224  0  1.063922  0
H  H9  1  0.74996460  0.09628327  0.01332986  1  0  0.117829  0.079225  0  1.063883  0
H  H10  1  0.69027339  0.81959189  0.26189437  1  0  0.290614  0.290218  0  0.998368  0
H  H11  1  0.19027315  0.18040818  0.73810467  1  0  0.290581  0.290201  0  0.998365  0
H  H12  1  0.72904519  0.98749152  0.27236931  1  0  0.30018  0.281873  0  0.931351  0
H  H13  1  0.22904483  0.01250295  0.72762526  1  0  0.300238  0.281987  0  0.93131  0
H  H14  1  0.43883235  0.46919362  0.16468880  1  0  0.10343  0.113673  0  0.963128  0
H  H15  1  0.93883526  0.53080744  0.83531073  1  0  0.103437  0.113688  0  0.963071  0
H  H16  1  0.24295568  0.45861867  0.15155558  1  0  0.102141  0.113297  0  0.987627  0
H  H17  1  0.74295853  0.54138362  0.84844315  1  0  0.102094  0.113196  0  0.987682  0
H  H18  1  0.65666809  0.29274071  0.68788817  1  0  0.12028  0.113495  0  0.962568  0
H  H19  1  0.15666585  0.70725825  0.31211146  1  0  0.120289  0.113515  0  0.962555  0
H  H20  1  0.63869936  0.15294457  0.74964465  1  0  0.116532  0.114819  0  0.969067  0
H  H21  1  0.13869532  0.84705440  0.25035590  1  0  0.116516  0.114789  0  0.969205  0
H  H22  1  0.46128751  0.89300533  0.36278605  1  0  0.121317  0.124036  0  0.963985  0
H  H23  1  0.96128870  0.10699459  0.63721392  1  0  0.121303  0.124  0  0.964  0
H  H24  1  0.46583484  0.06063143  0.33567610  1  0  0.115375  0.10623  0  0.967224  0
H  H25  1  0.96582785  0.93937296  0.66432784  1  0  0.11536  0.106204  0  0.9672  0
H  H26  1  0.41712624  0.08576558  0.56891594  1  0  0.307651  0.271253  0  0.988908  0
H  H27  1  0.91712139  0.91424333  0.43108356  1  0  0.30762  0.271247  0  0.988947  0
C  C28  1  0.37101121  0.60971901  0.01660463  1  0  0.21393  0.575823  0  4.165111  0
C  C29  1  0.87100669  0.39028096  0.98339560  1  0  0.213972  0.575905  0  4.164918  0
C  C30  1  0.35836253  0.24847839  0.08393302  1  0  0.064813  0.173855  0  4.020893  0
C  C31  1  0.85836196  0.75152382  0.91606795  1  0  0.064883  0.173921  0  4.020766  0
C  C32  1  0.47230158  0.17777682  0.11882593  1  0  -0.023137  -0.126944  0  4.004036  0
C  C33  1  0.97230345  0.82222645  0.88117593  1  0  -0.023166  -0.126938  0  4.004081  0
C  C34  1  0.35162695  0.44070411  0.98255267  1  0  0.010491  0.023464  0  3.852285  0
C  C35  1  0.85162584  0.55929588  0.01744675  1  0  0.010511  0.023475  0  3.852258  0
C  C36  1  0.30753259  0.01021802  0.02332090  1  0  0.109723  0.130679  0  4.035731  0
C  C37  1  0.80752977  0.98978534  0.97667972  1  0  0.10969  0.130664  0  4.035683  0
C  C38  1  0.44603421  0.29616867  0.77596940  1  0  0.238673  0.493293  0  4.098888  0
C  C39  1  0.94603009  0.70382790  0.22403040  1  0  0.238625  0.493201  0  4.099068  0
C  C40  1  0.34672429  0.41008589  0.10406186  1  0  -0.147962  -0.243323  0  3.942608  0
C  C41  1  0.84672588  0.58991745  0.89593864  1  0  -0.147961  -0.243269  0  3.942459  0
C  C42  1  0.57829015  0.21183231  0.69972918  1  0  -0.050087  -0.135834  0  3.925423  0
C  C43  1  0.07828584  0.78816335  0.30026876  1  0  -0.050073  -0.135797  0  3.925551  0
C  C44  1  0.61520568  0.06102676  0.47908335  1  0  0.239109  0.495748  0  4.110548  0
C  C45  1  0.11519941  0.93896662  0.52091806  1  0  0.238969  0.495474  0  4.110782  0
C  C46  1  0.53573886  0.97909938  0.35560257  1  0  -0.064874  -0.11898  0  3.901734  0
C  C47  1  0.03573557  0.02090076  0.64439863  1  0  -0.064832  -0.118809  0  3.901671  0
N  N48  1  0.25412882  0.14014224  0.02264917  1  0  -0.377229  -0.36014  0  3.548462  0
N  N49  1  0.75412808  0.85986003  0.97735125  1  0  -0.377224  -0.360172  0  3.548499  0
N  N50  1  0.46618072  0.35371867  0.89930910  1  0  -0.414829  -0.370824  0  3.581501  0
N  N51  1  0.96617821  0.64628014  0.10068878  1  0  -0.414865  -0.370794  0  3.581468  0
N  N52  1  0.43949652  0.02710298  0.08012043  1  0  -0.386229  -0.313335  0  3.678415  0
N  N53  1  0.93949726  0.97289919  0.91988031  1  0  -0.386221  -0.313336  0  3.678492  0
N  N54  1  0.64242959  0.91338637  0.25444568  1  0  -0.628494  -0.543745  0  3.426176  0
N  N55  1  0.14243033  0.08661037  0.74555157  1  0  -0.628551  -0.54391  0  3.426238  0
N  N56  1  0.52724381  0.11178991  0.57898614  1  0  -0.420414  -0.334187  0  3.598536  0
N  N57  1  0.02723683  0.88820800  0.42101266  1  0  -0.42037  -0.334162  0  3.598423  0
O  O58  1  0.50571163  0.65233253  0.01477693  1  0  -0.331219  -0.537859  0  2.374676  0
O  O59  1  0.00571043  0.34766652  0.98522228  1  0  -0.331244  -0.537907  0  2.374543  0
O  O60  1  0.26062174  0.69402948  0.04714925  1  0  -0.314007  -0.554272  0  2.201616  0
O  O61  1  0.76062169  0.30597167  0.95285079  1  0  -0.314009  -0.554277  0  2.201657  0
O  O62  1  0.32799509  0.30618510  0.72328158  1  0  -0.32621  -0.525684  0  2.119005  0
O  O63  1  0.82799514  0.69381266  0.27671806  1  0  -0.326168  -0.525637  0  2.119208  0
O  O64  1  0.75157926  0.08297356  0.48251148  1  0  -0.321369  -0.535897  0  2.111902  0
O  O65  1  0.25156414  0.91701414  0.51749119  1  0  -0.321254  -0.535705  0  2.112063  0
