# generated using pymatgen
data_Ag2H30C22N9O4
_symmetry_space_group_name_H-M   'P 1'
_cell_length_a   7.58205289
_cell_length_b   11.49369021
_cell_length_c   15.14844087
_cell_angle_alpha   74.41268476
_cell_angle_beta   82.56647798
_cell_angle_gamma   88.03758155
_symmetry_Int_Tables_number   1
_chemical_formula_structural   Ag2H30C22N9O4
_chemical_formula_sum   'Ag4 H60 C44 N18 O8'
_cell_volume   1260.88420753
_cell_formula_units_Z   2
loop_
 _symmetry_equiv_pos_site_id
 _symmetry_equiv_pos_as_xyz
  1  'x, y, z'
loop_
 _atom_site_type_symbol
 _atom_site_label
 _atom_site_symmetry_multiplicity
 _atom_site_fract_x
 _atom_site_fract_y
 _atom_site_fract_z
 _atom_site_occupancy
 _atom_site_hle17_bader_spin_density
 _atom_site_hle17_ddec_charge
 _atom_site_hle17_ddec_spin_density
 _atom_site_hle17_ddec_sum_bond_order
 _atom_site_hle17_magmom
 _atom_site_hse06_10hf_bader_spin_density
 _atom_site_hse06_10hf_ddec_charge
 _atom_site_hse06_10hf_ddec_spin_density
 _atom_site_hse06_10hf_ddec_sum_bond_order
 _atom_site_hse06_10hf_magmom
 _atom_site_hse06_bader_spin_density
 _atom_site_hse06_ddec_charge
 _atom_site_hse06_ddec_spin_density
 _atom_site_hse06_ddec_sum_bond_order
 _atom_site_hse06_magmom
 _atom_site_pbe_bader_spin_density
 _atom_site_pbe_cm5_charge
 _atom_site_pbe_ddec_charge
 _atom_site_pbe_ddec_spin_density
 _atom_site_pbe_ddec_sum_bond_order
 _atom_site_pbe_magmom
Ag  Ag0  1  0.91168032  0.63835040  0.53130385  1  0  0.603799  0  1.315901  0  0  0.472791  0  1.729993  0  0  0.506809  0  1.682549  0  0  0.471022  0.448368  0  1.763117  0
Ag  Ag1  1  0.08830344  0.36165070  0.46869812  1  0  0.603766  0  1.315902  0  0  0.472736  0  1.729999  0  0  0.50676  0  1.682553  0  0  0.47098  0.448317  0  1.763119  0
Ag  Ag2  1  0.29996551  0.18294767  0.87736120  1  0  0.498391  0  1.502213  0  0  0.36176  0  1.942949  0  0  0.392429  0  1.897243  0  0  0.479022  0.340946  0  1.974285  0
Ag  Ag3  1  0.70003548  0.81705632  0.12263841  1  0  0.498448  0  1.502158  0  0  0.361811  0  1.942901  0  0  0.392481  0  1.897194  0  0  0.47903  0.340995  0  1.974238  0
H  H4  1  0.65236408  0.07601564  0.48006881  1  0  0.132096  0  0.952121  0  0  0.146145  0  1.005416  0  0  0.149325  0  1.005949  0  0  0.108388  0.143864  0  1.005302  0
H  H5  1  0.34764612  0.92399386  0.51992976  1  0  0.132062  0  0.952238  0  0  0.146131  0  1.005499  0  0  0.149314  0  1.006027  0  0  0.108391  0.143848  0  1.005386  0
H  H6  1  0.76382569  0.81031841  0.39732299  1  0  0.128202  0  0.955142  0  0  0.144374  0  1.026066  0  0  0.147299  0  1.023165  0  0  0.096267  0.14218  0  1.028215  0
H  H7  1  0.23617141  0.18968102  0.60267779  1  0  0.128199  0  0.955154  0  0  0.144377  0  1.026075  0  0  0.147299  0  1.023181  0  0  0.096276  0.142185  0  1.028225  0
H  H8  1  0.61652180  0.93682259  0.39037134  1  0  0.124053  0  0.954535  0  0  0.144418  0  1.013604  0  0  0.145883  0  1.014463  0  0  0.094302  0.143379  0  1.013018  0
H  H9  1  0.38346992  0.06317951  0.60962793  1  0  0.124075  0  0.954541  0  0  0.144439  0  1.013611  0  0  0.145907  0  1.014464  0  0  0.094322  0.143401  0  1.013027  0
H  H10  1  0.56195572  0.79546500  0.47162969  1  0  0.131173  0  0.947784  0  0  0.15431  0  1.006808  0  0  0.156385  0  1.005424  0  0  0.102545  0.15275  0  1.007877  0
H  H11  1  0.43804665  0.20453719  0.52837086  1  0  0.13114  0  0.947782  0  0  0.154271  0  1.00683  0  0  0.156344  0  1.005446  0  0  0.102538  0.152713  0  1.007895  0
H  H12  1  0.88681858  0.17852394  0.64826503  1  0  0.123556  0  0.937275  0  0  0.147361  0  0.993369  0  0  0.149846  0  0.991296  0  0  0.098818  0.145501  0  0.994944  0
H  H13  1  0.11318365  0.82148456  0.35173558  1  0  0.123535  0  0.937288  0  0  0.147365  0  0.993332  0  0  0.149852  0  0.991255  0  0  0.098822  0.1455  0  0.994922  0
H  H14  1  0.65677523  0.14541320  0.67121990  1  0  0.136737  0  0.933572  0  0  0.162027  0  0.985661  0  0  0.163128  0  0.987026  0  0  0.102768  0.161141  0  0.984843  0
H  H15  1  0.34322970  0.85459351  0.32878354  1  0  0.136684  0  0.933626  0  0  0.161988  0  0.985692  0  0  0.163107  0  0.987034  0  0  0.102746  0.161103  0  0.984874  0
H  H16  1  0.74838595  0.22384092  0.55785451  1  0  0.126854  0  0.967692  0  0  0.141933  0  1.039212  0  0  0.144501  0  1.037676  0  0  0.095221  0.139985  0  1.040446  0
H  H17  1  0.25162044  0.77615949  0.44214878  1  0  0.126878  0  0.967647  0  0  0.141942  0  1.039197  0  0  0.14451  0  1.037664  0  0  0.09524  0.139995  0  1.040426  0
H  H18  1  0.72400472  0.82803464  0.82680973  1  0  0.132309  0  0.95115  0  0  0.141865  0  1.011706  0  0  0.14515  0  1.012501  0  0  0.105308  0.139534  0  1.011383  0
H  H19  1  0.27598052  0.17195925  0.17319425  1  0  0.132294  0  0.951159  0  0  0.14184  0  1.011728  0  0  0.145126  0  1.012523  0  0  0.105297  0.139507  0  1.011406  0
H  H20  1  0.61048139  0.04266564  0.95484089  1  0  0.112233  0  0.97243  0  0  0.13138  0  1.044598  0  0  0.13353  0  1.04237  0  0  0.09114  0.129756  0  1.046254  0
H  H21  1  0.38952247  0.95732845  0.04515789  1  0  0.112176  0  0.972488  0  0  0.131346  0  1.044631  0  0  0.133497  0  1.042397  0  0  0.091133  0.129719  0  1.046294  0
H  H22  1  0.68685281  0.12798474  0.84186787  1  0  0.14661  0  0.953533  0  0  0.165026  0  1.012828  0  0  0.168074  0  1.011201  0  0  0.100456  0.16276  0  1.01406  0
H  H23  1  0.31314974  0.87200843  0.15813249  1  0  0.14668  0  0.953533  0  0  0.165067  0  1.012835  0  0  0.168115  0  1.011208  0  0  0.100477  0.162802  0  1.014071  0
H  H24  1  0.79533766  0.98801636  0.89183122  1  0  0.119886  0  0.967153  0  0  0.13889  0  1.03155  0  0  0.140731  0  1.031339  0  0  0.090314  0.13755  0  1.031726  0
H  H25  1  0.20465692  0.01197582  0.10817118  1  0  0.119888  0  0.967123  0  0  0.138883  0  1.031505  0  0  0.140726  0  1.031289  0  0  0.090276  0.137543  0  1.031684  0
H  H26  1  0.44275349  0.69627450  0.69262176  1  0  0.146949  0  0.955244  0  0  0.165084  0  1.01381  0  0  0.168428  0  1.011717  0  0  0.100256  0.162595  0  1.015378  0
H  H27  1  0.55722375  0.30372021  0.30738192  1  0  0.146945  0  0.955193  0  0  0.165078  0  1.01376  0  0  0.16842  0  1.011669  0  0  0.100243  0.162589  0  1.015326  0
H  H28  1  0.45957033  0.62183968  0.80996629  1  0  0.133428  0  0.923654  0  0  0.155905  0  0.980928  0  0  0.158397  0  0.979852  0  0  0.101556  0.154074  0  0.981745  0
H  H29  1  0.54041617  0.37815783  0.19003689  1  0  0.13337  0  0.923711  0  0  0.155851  0  0.98098  0  0  0.15835  0  0.979896  0  0  0.101554  0.154018  0  0.981796  0
H  H30  1  0.65171400  0.68733649  0.73759616  1  0  0.118203  0  0.959229  0  0  0.137692  0  1.023945  0  0  0.139244  0  1.023933  0  0  0.093255  0.136478  0  1.024097  0
H  H31  1  0.34825925  0.31265818  0.26240844  1  0  0.118197  0  0.959243  0  0  0.137674  0  1.023973  0  0  0.139231  0  1.023955  0  0  0.09324  0.13645  0  1.024134  0
H  H32  1  0.85296443  0.33441083  0.11965051  1  0  0.127237  0  0.963234  0  0  0.137995  0  1.022509  0  0  0.141363  0  1.022757  0  0  0.104672  0.135551  0  1.022633  0
H  H33  1  0.14705388  0.66559242  0.88034813  1  0  0.127165  0  0.963301  0  0  0.137901  0  1.022607  0  0  0.141268  0  1.022859  0  0  0.104634  0.135484  0  1.0227  0
H  H34  1  0.91604835  0.21615628  0.92024940  1  0  0.119879  0  0.944434  0  0  0.143265  0  1.003253  0  0  0.145662  0  1.00093  0  0  0.098543  0.141401  0  1.005082  0
H  H35  1  0.08395801  0.78384596  0.07974890  1  0  0.119861  0  0.944416  0  0  0.143241  0  1.003242  0  0  0.145642  0  1.000918  0  0  0.098536  0.141375  0  1.005073  0
H  H36  1  0.77600725  0.20724514  0.02578031  1  0  0.12899  0  0.941985  0  0  0.149579  0  0.998874  0  0  0.151213  0  0.999805  0  0  0.095625  0.148424  0  0.998223  0
H  H37  1  0.22399114  0.79275613  0.97421738  1  0  0.12893  0  0.942069  0  0  0.149506  0  0.998976  0  0  0.15114  0  0.999908  0  0  0.095623  0.14835  0  0.998325  0
H  H38  1  0.95231503  0.10119194  0.02092340  1  0  0.112196  0  0.957235  0  0  0.131123  0  1.030551  0  0  0.133302  0  1.028393  0  0  0.092244  0.129484  0  1.03218  0
H  H39  1  0.04768597  0.89881205  0.97907555  1  0  0.112148  0  0.957257  0  0  0.131061  0  1.030579  0  0  0.13324  0  1.028422  0  0  0.092222  0.129424  0  1.032205  0
H  H40  1  0.14008322  0.57746374  0.14761599  1  0  0.132887  0  0.941868  0  0  0.15688  0  0.994727  0  0  0.158882  0  0.994  0  0  0.100432  0.155367  0  0.995347  0
H  H41  1  0.85993503  0.42254222  0.85238277  1  0  0.132941  0  0.941887  0  0  0.156959  0  0.994713  0  0  0.158963  0  0.993984  0  0  0.100475  0.155448  0  0.995326  0
H  H42  1  0.11180285  0.44055681  0.23471076  1  0  0.1238  0  0.94753  0  0  0.141831  0  1.018045  0  0  0.144598  0  1.015476  0  0  0.097731  0.139782  0  1.019968  0
H  H43  1  0.88821564  0.55943740  0.76529100  1  0  0.123838  0  0.947501  0  0  0.141879  0  1.018006  0  0  0.144647  0  1.015441  0  0  0.097742  0.139834  0  1.019929  0
H  H44  1  0.92555338  0.50675773  0.18172785  1  0  0.133782  0  0.925205  0  0  0.15543  0  0.978421  0  0  0.157717  0  0.977696  0  0  0.099629  0.15375  0  0.978986  0
H  H45  1  0.07446897  0.49324285  0.81827106  1  0  0.133919  0  0.925278  0  0  0.155549  0  0.978542  0  0  0.157837  0  0.977822  0  0  0.099657  0.153868  0  0.979106  0
H  H46  1  0.41169789  0.37620595  0.53846415  1  0  0.05968  0  0.971169  0  0  0.069463  0  1.044196  0  0  0.071198  0  1.042889  0  0  0.09167  0.06815  0  1.045328  0
H  H47  1  0.58829511  0.62379886  0.46153582  1  0  0.059725  0  0.971156  0  0  0.069496  0  1.0442  0  0  0.071231  0  1.042895  0  0  0.091671  0.06821  0  1.045308  0
H  H48  1  0.69802269  0.40606140  0.60552024  1  0  0.098284  0  0.954938  0  0  0.114526  0  1.016977  0  0  0.116647  0  1.01593  0  0  0.09613  0.113077  0  1.017793  0
H  H49  1  0.30197293  0.59394528  0.39447324  1  0  0.098234  0  0.954976  0  0  0.114506  0  1.01701  0  0  0.116631  0  1.015955  0  0  0.096148  0.113048  0  1.017819  0
H  H50  1  0.59078364  0.52728245  0.64042940  1  0  0.092958  0  0.952942  0  0  0.105424  0  1.028418  0  0  0.108369  0  1.025253  0  0  0.09414  0.10339  0  1.030708  0
H  H51  1  0.40920272  0.47272144  0.35956393  1  0  0.092942  0  0.952883  0  0  0.105385  0  1.028376  0  0  0.108327  0  1.025213  0  0  0.094093  0.103343  0  1.03066  0
H  H52  1  0.13515722  0.80369972  0.70954802  1  0  0.313987  0  0.947389  0  0  0.289894  0  1.022929  0  0  0.298814  0  1.015627  0  0  0.289125  0.283634  0  1.027984  0
H  H53  1  0.86483850  0.19630242  0.29044967  1  0  0.313986  0  0.947443  0  0  0.28991  0  1.022944  0  0  0.298829  0  1.015644  0  0  0.28913  0.28365  0  1.027998  0
H  H54  1  0.11743445  0.70445547  0.64170267  1  0  0.329072  0  0.94583  0  0  0.304671  0  1.022304  0  0  0.314764  0  1.012496  0  0  0.284623  0.297487  0  1.029207  0
H  H55  1  0.88256267  0.29554306  0.35829830  1  0  0.329102  0  0.945811  0  0  0.304661  0  1.022329  0  0  0.314782  0  1.012491  0  0  0.284636  0.297475  0  1.029237  0
H  H56  1  0.56544731  0.44657408  0.94931634  1  0  0.314876  0  0.957958  0  0  0.287889  0  1.037021  0  0  0.297156  0  1.029372  0  0  0.286217  0.281396  0  1.042295  0
H  H57  1  0.43455780  0.55342367  0.05067699  1  0  0.314866  0  0.957979  0  0  0.287816  0  1.037143  0  0  0.297084  0  1.029494  0  0  0.286179  0.281322  0  1.042415  0
H  H58  1  0.51351303  0.34661209  0.88606081  1  0  0.330413  0  0.953341  0  0  0.309779  0  1.021955  0  0  0.318732  0  1.014167  0  0  0.281796  0.303407  0  1.027472  0
H  H59  1  0.48648939  0.65338740  0.11393698  1  0  0.330469  0  0.95335  0  0  0.309794  0  1.021988  0  0  0.318747  0  1.014199  0  0  0.281806  0.303426  0  1.027494  0
H  H60  1  0.09204878  0.10284243  0.78688006  1  0  0.313931  0  0.899418  0  0  0.304205  0  0.955701  0  0  0.311431  0  0.948815  0  0  0.302134  0.298872  0  0.960885  0
H  H61  1  0.90796029  0.89715714  0.21311728  1  0  0.314034  0  0.899277  0  0  0.304271  0  0.955605  0  0  0.311506  0  0.94872  0  0  0.30211  0.298938  0  0.960794  0
H  H62  1  0.03496865  0.99171530  0.73533272  1  0  0.325167  0  0.938594  0  0  0.298217  0  1.015853  0  0  0.307601  0  1.008336  0  0  0.2906  0.291647  0  1.02098  0
H  H63  1  0.96502963  0.00829136  0.26466852  1  0  0.325285  0  0.938419  0  0  0.298333  0  1.015669  0  0  0.307719  0  1.008146  0  0  0.290642  0.291762  0  1.020805  0
C  C64  1  0.94256255  0.84659041  0.62472828  1  0  0.632935  0  3.842399  0  0  0.585393  0  4.116989  0  0  0.612889  0  4.12515  0  0  0.339745  0.56703  0  4.110797  0
C  C65  1  0.05743194  0.15340628  0.37527388  1  0  0.6329  0  3.842159  0  0  0.585277  0  4.116867  0  0  0.612772  0  4.125032  0  0  0.339708  0.566915  0  4.110674  0
C  C66  1  0.80730111  0.03440031  0.59561970  1  0  0.395479  0  3.749727  0  0  0.391802  0  4.00685  0  0  0.408943  0  4.021104  0  0  0.135388  0.380548  0  3.996805  0
C  C67  1  0.19269591  0.96560275  0.40437772  1  0  0.395512  0  3.749892  0  0  0.391806  0  4.007033  0  0  0.408986  0  4.021237  0  0  0.135447  0.380554  0  3.996984  0
C  C68  1  0.73029470  0.00870763  0.52378571  1  0  -0.339763  0  3.672468  0  0  -0.362929  0  3.921761  0  0  -0.379561  0  3.942169  0  0  -0.118364  -0.352315  0  3.908246  0
C  C69  1  0.26971682  0.99130189  0.47621146  1  0  -0.339649  0  3.672615  0  0  -0.362818  0  3.921852  0  0  -0.379463  0  3.942251  0  0  -0.118366  -0.352205  0  3.908337  0
C  C70  1  0.75778092  0.89492617  0.50867345  1  0  0.38715  0  3.753605  0  0  0.38467  0  4.001522  0  0  0.401622  0  4.018036  0  0  0.128757  0.373531  0  3.989862  0
C  C71  1  0.24222143  0.10507693  0.49132493  1  0  0.386902  0  3.753907  0  0  0.384447  0  4.001794  0  0  0.401392  0  4.018315  0  0  0.128699  0.373308  0  3.990134  0
C  C72  1  0.67152072  0.85842585  0.43729957  1  0  -0.393532  0  3.692789  0  0  -0.478031  0  3.933548  0  0  -0.481998  0  3.937667  0  0  -0.242454  -0.474961  0  3.930497  0
C  C73  1  0.32847762  0.14157811  0.56270022  1  0  -0.393447  0  3.692814  0  0  -0.477943  0  3.933527  0  0  -0.481904  0  3.93765  0  0  -0.242472  -0.474874  0  3.930476  0
C  C74  1  0.77425986  0.15215887  0.61914257  1  0  -0.387015  0  3.667655  0  0  -0.469142  0  3.90516  0  0  -0.473386  0  3.910018  0  0  -0.237663  -0.465891  0  3.901723  0
C  C75  1  0.22574251  0.84784330  0.38086128  1  0  -0.386972  0  3.667814  0  0  -0.469085  0  3.905245  0  0  -0.473355  0  3.910094  0  0  -0.237644  -0.465836  0  3.901799  0
C  C76  1  0.26877068  0.96630197  0.79461503  1  0  0.62632  0  3.846267  0  0  0.580813  0  4.119097  0  0  0.606944  0  4.12769  0  0  0.340647  0.56329  0  4.112851  0
C  C77  1  0.73122640  0.03369838  0.20538293  1  0  0.626203  0  3.846514  0  0  0.580847  0  4.119126  0  0  0.606982  0  4.127718  0  0  0.340608  0.56331  0  4.112902  0
C  C78  1  0.54311170  0.97043770  0.84673385  1  0  0.379428  0  3.744323  0  0  0.379619  0  3.990369  0  0  0.39585  0  4.006654  0  0  0.129638  0.368762  0  3.979265  0
C  C79  1  0.45688021  0.02955536  0.15326921  1  0  0.37958  0  3.744233  0  0  0.379785  0  3.990262  0  0  0.396012  0  4.00656  0  0  0.129724  0.368926  0  3.979163  0
C  C80  1  0.59211546  0.86662104  0.81894498  1  0  -0.322361  0  3.662238  0  0  -0.34816  0  3.915341  0  0  -0.363905  0  3.935555  0  0  -0.113443  -0.33818  0  3.902137  0
C  C81  1  0.40787118  0.13336923  0.18106228  1  0  -0.322396  0  3.662284  0  0  -0.348165  0  3.915379  0  0  -0.363912  0  3.935598  0  0  -0.113405  -0.338188  0  3.902177  0
C  C82  1  0.46868465  0.81427135  0.77992432  1  0  0.394298  0  3.731035  0  0  0.389931  0  3.992486  0  0  0.407559  0  4.004577  0  0  0.136979  0.378229  0  3.984029  0
C  C83  1  0.53130327  0.18572167  0.22007901  1  0  0.394274  0  3.730905  0  0  0.389864  0  3.992427  0  0  0.407492  0  4.004524  0  0  0.136944  0.378162  0  3.983965  0
C  C84  1  0.66745505  0.03485371  0.88611953  1  0  -0.401265  0  3.700376  0  0  -0.483608  0  3.935399  0  0  -0.487658  0  3.939257  0  0  -0.247632  -0.480475  0  3.932696  0
C  C85  1  0.33254084  0.96513940  0.11388061  1  0  -0.401306  0  3.700495  0  0  -0.483664  0  3.935589  0  0  -0.48771  0  3.939445  0  0  -0.247661  -0.480515  0  3.932864  0
C  C86  1  0.50803313  0.69963431  0.75243733  1  0  -0.383528  0  3.655165  0  0  -0.461762  0  3.887304  0  0  -0.46644  0  3.891251  0  0  -0.239647  -0.45823  0  3.884606  0
C  C87  1  0.49194144  0.30036125  0.24757097  1  0  -0.383457  0  3.654941  0  0  -0.461671  0  3.887115  0  0  -0.466359  0  3.891057  0  0  -0.239619  -0.458131  0  3.884427  0
C  C88  1  0.31937869  0.36633435  0.99018964  1  0  0.629542  0  3.84849  0  0  0.581678  0  4.122303  0  0  0.608941  0  4.130273  0  0  0.336264  0.56346  0  4.11638  0
C  C89  1  0.68062371  0.63366606  0.00980664  1  0  0.629786  0  3.848375  0  0  0.581906  0  4.122199  0  0  0.609196  0  4.130127  0  0  0.336418  0.563688  0  4.116278  0
C  C90  1  0.11168299  0.42037181  0.09873013  1  0  0.389167  0  3.753377  0  0  0.384878  0  4.014236  0  0  0.40216  0  4.02824  0  0  0.135619  0.373508  0  4.004342  0
C  C91  1  0.88833140  0.57962778  0.90127214  1  0  0.389105  0  3.753518  0  0  0.3849  0  4.014285  0  0  0.402185  0  4.028282  0  0  0.135649  0.37353  0  4.004397  0
C  C92  1  0.98696335  0.34306394  0.08309746  1  0  -0.334484  0  3.675998  0  0  -0.360108  0  3.93105  0  0  -0.376153  0  3.951148  0  0  -0.117302  -0.349817  0  3.917763  0
C  C93  1  0.01304835  0.65693745  0.91690000  1  0  -0.334298  0  3.676051  0  0  -0.359907  0  3.931078  0  0  -0.375953  0  3.951178  0  0  -0.11724  -0.349637  0  3.917772  0
C  C94  1  0.03834172  0.27797903  0.01869326  1  0  0.372339  0  3.757883  0  0  0.370391  0  4.007657  0  0  0.386454  0  4.025063  0  0  0.125419  0.359799  0  3.995528  0
C  C95  1  0.96166192  0.72202589  0.98130467  1  0  0.372321  0  3.757844  0  0  0.37031  0  4.007702  0  0  0.386373  0  4.025109  0  0  0.125418  0.359719  0  3.995579  0
C  C96  1  0.91280475  0.19620692  0.99557459  1  0  -0.377589  0  3.697481  0  0  -0.460631  0  3.933809  0  0  -0.464386  0  3.939404  0  0  -0.239518  -0.457729  0  3.929851  0
C  C97  1  0.08719627  0.80379617  0.00442389  1  0  -0.377455  0  3.697567  0  0  -0.460438  0  3.933906  0  0  -0.464197  0  3.939499  0  0  -0.239479  -0.457534  0  3.929944  0
C  C98  1  0.06878080  0.49122924  0.16843693  1  0  -0.370613  0  3.656816  0  0  -0.450526  0  3.888677  0  0  -0.454704  0  3.893116  0  0  -0.233261  -0.44735  0  3.885458  0
C  C99  1  0.93124157  0.50877042  0.83156480  1  0  -0.370876  0  3.656973  0  0  -0.450872  0  3.888882  0  0  -0.455046  0  3.893298  0  0  -0.233374  -0.447698  0  3.885659  0
C  C100  1  0.28158790  0.53161158  0.56794823  1  0  0.674745  0  3.843973  0  0  0.628148  0  4.131202  0  0  0.661406  0  4.127045  0  0  0.206076  0.605369  0  4.133219  0
C  C101  1  0.71839991  0.46838687  0.43205137  1  0  0.674715  0  3.844199  0  0  0.628215  0  4.131218  0  0  0.661474  0  4.127064  0  0  0.206085  0.605437  0  4.133239  0
C  C102  1  0.45078771  0.46324244  0.54690701  1  0  -0.107444  0  3.642962  0  0  -0.112967  0  3.872306  0  0  -0.118327  0  3.887747  0  0  -0.0946  -0.10917  0  3.861551  0
C  C103  1  0.54920268  0.53675964  0.45309367  1  0  -0.107501  0  3.64301  0  0  -0.113043  0  3.872341  0  0  -0.118403  0  3.887786  0  0  -0.094554  -0.109272  0  3.86156  0
C  C104  1  0.56638107  0.44102956  0.62519470  1  0  -0.280301  0  3.687762  0  0  -0.324836  0  3.933489  0  0  -0.330713  0  3.9431  0  0  -0.172911  -0.320699  0  3.926586  0
C  C105  1  0.43361337  0.55896986  0.37480361  1  0  -0.28019  0  3.687592  0  0  -0.324715  0  3.933248  0  0  -0.330589  0  3.942859  0  0  -0.172871  -0.320575  0  3.926379  0
C  C106  1  0.48630771  0.35331113  0.71513321  1  0  0.686875  0  3.871813  0  0  0.646432  0  4.160501  0  0  0.67845  0  4.157145  0  0  0.185822  0.624717  0  4.161682  0
C  C107  1  0.51370938  0.64668669  0.28486660  1  0  0.686891  0  3.871412  0  0  0.646435  0  4.160087  0  0  0.67845  0  4.156734  0  0  0.185897  0.624713  0  4.161256  0
N  N108  1  0.86177285  0.81258190  0.55973636  1  0  -0.533563  0  3.209832  0  0  -0.449218  0  3.49195  0  0  -0.479068  0  3.503834  0  0  -0.362175  -0.429077  0  3.483349  0
N  N109  1  0.13822292  0.18741752  0.44026518  1  0  -0.533423  0  3.209843  0  0  -0.449028  0  3.49191  0  0  -0.478889  0  3.503827  0  0  -0.362101  -0.428887  0  3.483307  0
N  N110  1  0.05682954  0.76998257  0.67104534  1  0  -0.704658  0  3.121324  0  0  -0.665381  0  3.370185  0  0  -0.689683  0  3.36462  0  0  -0.577961  -0.648361  0  3.373534  0
N  N111  1  0.94316217  0.23002043  0.32895442  1  0  -0.704688  0  3.120997  0  0  -0.665384  0  3.369974  0  0  -0.689713  0  3.364358  0  0  -0.578011  -0.648362  0  3.37333  0
N  N112  1  0.91203363  0.95383295  0.64571946  1  0  -0.521256  0  3.004509  0  0  -0.461567  0  3.248573  0  0  -0.484642  0  3.259836  0  0  -0.325791  -0.446119  0  3.240634  0
N  N113  1  0.08795815  0.04616642  0.35428433  1  0  -0.521271  0  3.004743  0  0  -0.461564  0  3.248871  0  0  -0.484643  0  3.260099  0  0  -0.325792  -0.446115  0  3.240928  0
N  N114  1  0.20516615  0.28723142  0.97350322  1  0  -0.517324  0  3.214816  0  0  -0.432293  0  3.49418  0  0  -0.460759  0  3.50547  0  0  -0.366873  -0.413344  0  3.486238  0
N  N115  1  0.79484029  0.71276632  0.02649267  1  0  -0.517507  0  3.214856  0  0  -0.432439  0  3.494238  0  0  -0.460913  0  3.505516  0  0  -0.366916  -0.413492  0  3.4863  0
N  N116  1  0.48367878  0.37875520  0.94413148  1  0  -0.705743  0  3.111758  0  0  -0.665432  0  3.353223  0  0  -0.689671  0  3.348313  0  0  -0.578923  -0.648564  0  3.356206  0
N  N117  1  0.51632233  0.62124340  0.05586327  1  0  -0.705819  0  3.111709  0  0  -0.665412  0  3.353281  0  0  -0.689662  0  3.348361  0  0  -0.578947  -0.64854  0  3.356255  0
N  N118  1  0.27523768  0.43241873  0.05173709  1  0  -0.514739  0  3.008716  0  0  -0.457456  0  3.253838  0  0  -0.479871  0  3.264412  0  0  -0.323993  -0.442553  0  3.246531  0
N  N119  1  0.72476872  0.56758170  0.94826157  1  0  -0.514784  0  3.008651  0  0  -0.457559  0  3.253789  0  0  -0.479986  0  3.26435  0  0  -0.324059  -0.442657  0  3.246484  0
N  N120  1  0.37932512  0.01903467  0.83640525  1  0  -0.510873  0  3.209776  0  0  -0.430361  0  3.48831  0  0  -0.45754  0  3.498867  0  0  -0.362685  -0.412371  0  3.481048  0
N  N121  1  0.62067594  0.98096661  0.16359359  1  0  -0.510826  0  3.209924  0  0  -0.430377  0  3.488422  0  0  -0.457556  0  3.49898  0  0  -0.36268  -0.412377  0  3.481147  0
N  N122  1  0.10715186  0.01671852  0.78132516  1  0  -0.698784  0  3.098981  0  0  -0.659978  0  3.337321  0  0  -0.683077  0  3.333041  0  0  -0.576409  -0.643722  0  3.339911  0
N  N123  1  0.89285580  0.98328463  0.21867419  1  0  -0.699032  0  3.098806  0  0  -0.660229  0  3.337073  0  0  -0.683347  0  3.332785  0  0  -0.576432  -0.643973  0  3.339678  0
N  N124  1  0.30844553  0.86514729  0.76699199  1  0  -0.510941  0  2.996604  0  0  -0.457143  0  3.243855  0  0  -0.477881  0  3.2525  0  0  -0.322457  -0.443421  0  3.238012  0
N  N125  1  0.69154889  0.13485301  0.23301078  1  0  -0.510892  0  2.996473  0  0  -0.457155  0  3.24374  0  0  -0.47788  0  3.252354  0  0  -0.32244  -0.443429  0  3.237897  0
O  O126  1  0.13320441  0.49342177  0.55295306  1  0  -0.659446  0  2.175505  0  0  -0.567714  0  2.458343  0  0  -0.601436  0  2.443429  0  0  -0.349603  -0.543906  0  2.467793  0
O  O127  1  0.86677945  0.50657479  0.44705378  1  0  -0.659372  0  2.175684  0  0  -0.567676  0  2.458456  0  0  -0.601399  0  2.443542  0  0  -0.34957  -0.543867  0  2.467901  0
O  O128  1  0.29502469  0.62674082  0.59294212  1  0  -0.64162  0  1.958675  0  0  -0.579261  0  2.179956  0  0  -0.605984  0  2.172617  0  0  -0.324379  -0.560291  0  2.184277  0
O  O129  1  0.70497503  0.37326048  0.40705151  1  0  -0.641687  0  1.958702  0  0  -0.579343  0  2.179929  0  0  -0.606061  0  2.17257  0  0  -0.324428  -0.560371  0  2.184248  0
O  O130  1  0.58719136  0.31941994  0.77885711  1  0  -0.687172  0  1.936441  0  0  -0.624084  0  2.157032  0  0  -0.651092  0  2.148433  0  0  -0.358951  -0.604804  0  2.162044  0
O  O131  1  0.41282464  0.68056614  0.22114314  1  0  -0.687338  0  1.936237  0  0  -0.624242  0  2.156835  0  0  -0.651252  0  2.148234  0  0  -0.359118  -0.604965  0  2.16185  0
O  O132  1  0.32651930  0.31922777  0.72127120  1  0  -0.635888  0  1.921895  0  0  -0.572263  0  2.156078  0  0  -0.599871  0  2.146427  0  0  -0.349328  -0.55254  0  2.161747  0
O  O133  1  0.67349232  0.68077721  0.27872951  1  0  -0.635777  0  1.921784  0  0  -0.572166  0  2.155981  0  0  -0.599773  0  2.146332  0  0  -0.349269  -0.55244  0  2.161645  0
