# generated using pymatgen
data_ZnH14C17N3O5
_symmetry_space_group_name_H-M   'P 1'
_cell_length_a   10.14044441
_cell_length_b   10.20572821
_cell_length_c   21.09444321
_cell_angle_alpha   90.00001286
_cell_angle_beta   89.99997227
_cell_angle_gamma   105.57184217
_symmetry_Int_Tables_number   1
_chemical_formula_structural   ZnH14C17N3O5
_chemical_formula_sum   'Zn4 H56 C68 N12 O20'
_cell_volume   2102.94630509
_cell_formula_units_Z   4
loop_
 _symmetry_equiv_pos_site_id
 _symmetry_equiv_pos_as_xyz
  1  'x, y, z'
loop_
 _atom_site_type_symbol
 _atom_site_label
 _atom_site_symmetry_multiplicity
 _atom_site_fract_x
 _atom_site_fract_y
 _atom_site_fract_z
 _atom_site_occupancy
 _atom_site_pbe_bader_charge
 _atom_site_pbe_bader_spin_density
 _atom_site_pbe_cm5_charge
 _atom_site_pbe_ddec_charge
 _atom_site_pbe_ddec_spin_density
 _atom_site_pbe_ddec_sum_bond_order
 _atom_site_pbe_magmom
Zn  Zn0  1  0.10137925  0.62454438  0.78808624  1  1.27955  0  0.686911  0.826771  0  2.328682  0
Zn  Zn1  1  0.39861871  0.87545491  0.28808630  1  1.279542  0  0.6869  0.82677  0  2.328691  0
Zn  Zn2  1  0.89861995  0.37545789  0.21191402  1  1.279563  0  0.686917  0.826787  0  2.328619  0
Zn  Zn3  1  0.60138064  0.12454431  0.71191396  1  1.279527  0  0.686895  0.826731  0  2.328758  0
H  H4  1  0.07432316  0.35503736  0.98064073  1  0.130552  0  0.109885  0.129362  0  0.994122  0
H  H5  1  0.42567810  0.14496437  0.48064170  1  0.130554  0  0.109885  0.129368  0  0.994082  0
H  H6  1  0.92567576  0.64496390  0.01935763  1  0.13062  0  0.109872  0.129387  0  0.994055  0
H  H7  1  0.57432082  0.85503689  0.51935950  1  0.130488  0  0.109899  0.129386  0  0.994099  0
H  H8  1  0.78180495  0.95114576  0.86780955  1  0.106844  0  0.105669  0.111193  0  1.010813  0
H  H9  1  0.71819398  0.54885406  0.36781008  1  0.106942  0  0.105683  0.111214  0  1.010802  0
H  H10  1  0.21819144  0.04885348  0.13219024  1  0.106958  0  0.105669  0.111207  0  1.010831  0
H  H11  1  0.28180663  0.45114617  0.63219065  1  0.106851  0  0.105679  0.111197  0  1.010774  0
H  H12  1  0.14433897  0.20307547  0.05740184  1  0.087965  0  0.108526  0.121738  0  0.983451  0
H  H13  1  0.35566366  0.29692617  0.55740269  1  0.087976  0  0.108537  0.121748  0  0.983448  0
H  H14  1  0.85565825  0.79692682  0.94259794  1  0.087966  0  0.108523  0.121729  0  0.983489  0
H  H15  1  0.64433821  0.70307507  0.44259851  1  0.087971  0  0.108514  0.12173  0  0.983491  0
H  H16  1  0.09614257  0.69814799  0.92253255  1  0.148897  0  0.119793  0.102056  0  1.049735  0
H  H17  1  0.40385892  0.80185029  0.42253307  1  0.148828  0  0.119789  0.102041  0  1.04975  0
H  H18  1  0.90386072  0.30185121  0.07746960  1  0.148956  0  0.119781  0.102009  0  1.049804  0
H  H19  1  0.59614155  0.19814587  0.57746861  1  0.148884  0  0.119814  0.102072  0  1.049732  0
H  H20  1  0.25522960  0.84631060  0.00197969  1  0.147737  0  0.112103  0.118746  0  1.058253  0
H  H21  1  0.24477298  0.65368657  0.50198102  1  0.14767  0  0.112105  0.118734  0  1.058256  0
H  H22  1  0.74477874  0.15369265  0.99802010  1  0.147689  0  0.112136  0.118743  0  1.058309  0
H  H23  1  0.75522468  0.34630655  0.49801924  1  0.147699  0  0.112118  0.118754  0  1.058265  0
H  H24  1  0.54714733  0.97371444  0.84971334  1  0.154218  0  0.113782  0.1319  0  1.041345  0
H  H25  1  0.95285344  0.52628130  0.34971334  1  0.154215  0  0.113787  0.131895  0  1.041306  0
H  H26  1  0.45285314  0.02628172  0.15028408  1  0.15424  0  0.113817  0.13192  0  1.041312  0
H  H27  1  0.04714857  0.47371689  0.65028502  1  0.154216  0  0.113806  0.13191  0  1.041353  0
H  H28  1  0.37946133  0.82076627  0.77745404  1  0.127607  0  0.120859  0.094027  0  1.03476  0
H  H29  1  0.12054001  0.67923096  0.27745556  1  0.127616  0  0.120831  0.093985  0  1.034829  0
H  H30  1  0.62053591  0.17922888  0.22254480  1  0.127636  0  0.120827  0.093985  0  1.034825  0
H  H31  1  0.87946453  0.32076925  0.72254470  1  0.127651  0  0.120869  0.094029  0  1.034782  0
H  H32  1  0.80517599  0.49719018  0.78749500  1  0.203524  0  0.128769  0.073317  0  1.064554  0
H  H33  1  0.69482312  0.00280696  0.28749649  1  0.203557  0  0.128762  0.073356  0  1.064511  0
H  H34  1  0.19482490  0.50281107  0.21250431  1  0.203521  0  0.128759  0.073339  0  1.064476  0
H  H35  1  0.30517467  0.99719023  0.71250377  1  0.203538  0  0.128773  0.073338  0  1.064508  0
H  H36  1  0.81125932  0.82208835  0.71751735  1  0.117226  0  0.113275  0.136935  0  0.996012  0
H  H37  1  0.68874003  0.67791246  0.21751601  1  0.117215  0  0.113275  0.136925  0  0.996038  0
H  H38  1  0.18874016  0.17791494  0.28248433  1  0.117217  0  0.113285  0.136968  0  0.99603  0
H  H39  1  0.31125861  0.32208778  0.78248283  1  0.117246  0  0.113286  0.136955  0  0.996002  0
H  H40  1  0.65380618  0.81498870  0.75705100  1  0.071865  0  0.104382  0.12713  0  1.000113  0
H  H41  1  0.84619384  0.68501109  0.25704868  1  0.071914  0  0.104381  0.127117  0  1.000072  0
H  H42  1  0.34619274  0.18501256  0.24295021  1  0.071933  0  0.104372  0.127145  0  1.000049  0
H  H43  1  0.15380269  0.31498508  0.74295111  1  0.071851  0  0.10437  0.127092  0  1.000078  0
H  H44  1  0.65003853  0.74998967  0.67896550  1  0.080962  0  0.104333  0.12393  0  1.009438  0
H  H45  1  0.84995916  0.75001216  0.17896319  1  0.080798  0  0.104318  0.123918  0  1.009419  0
H  H46  1  0.34996067  0.25001261  0.32103618  1  0.08091  0  0.10432  0.123939  0  1.009449  0
H  H47  1  0.15003947  0.24998808  0.82103660  1  0.080901  0  0.104348  0.123953  0  1.009353  0
H  H48  1  0.58624779  0.43341880  0.77445415  1  0.127807  0  0.112832  0.142489  0  1.020275  0
H  H49  1  0.91374993  0.06658038  0.27445559  1  0.127712  0  0.112837  0.142495  0  1.020216  0
H  H50  1  0.41375042  0.56658348  0.22554611  1  0.127775  0  0.112825  0.14248  0  1.020249  0
H  H51  1  0.08624787  0.93341681  0.72554657  1  0.127793  0  0.112822  0.142439  0  1.020304  0
H  H52  1  0.52890573  0.50534070  0.70569861  1  0.054849  0  0.102282  0.120013  0  0.99948  0
H  H53  1  0.97109461  0.99466010  0.20569961  1  0.054877  0  0.102282  0.120024  0  0.999492  0
H  H54  1  0.47109445  0.49466157  0.29430212  1  0.054842  0  0.102307  0.120035  0  0.999461  0
H  H55  1  0.02890374  0.00533912  0.79430207  1  0.054829  0  0.102299  0.120008  0  0.99946  0
H  H56  1  0.50171572  0.56663987  0.78210215  1  0.052591  0  0.103649  0.119081  0  0.982307  0
H  H57  1  0.99828202  0.93335893  0.28210266  1  0.052589  0  0.103632  0.119068  0  0.982279  0
H  H58  1  0.49828348  0.43336241  0.21789811  1  0.052624  0  0.103641  0.11911  0  0.982282  0
H  H59  1  0.00171578  0.06663826  0.71789854  1  0.05261  0  0.103642  0.119054  0  0.982346  0
C  C60  1  0.96091302  0.42692471  0.87800697  1  1.588763  0  0.204215  0.583659  0  4.237964  0
C  C61  1  0.53908671  0.07307143  0.37800897  1  1.588687  0  0.204289  0.583615  0  4.238069  0
C  C62  1  0.03908349  0.57308573  0.12199424  1  1.588268  0  0.204278  0.583635  0  4.237707  0
C  C63  1  0.46091305  0.92692575  0.62199224  1  1.588756  0  0.204206  0.583537  0  4.238062  0
C  C64  1  0.93656583  0.28426288  0.90349661  1  0.016064  0  -0.006238  -0.022465  0  3.9293  0
C  C65  1  0.56343556  0.21573936  0.40349673  1  0.016228  0  -0.006277  -0.022587  0  3.929326  0
C  C66  1  0.06343337  0.71573939  0.09650365  1  0.016088  0  -0.006198  -0.022362  0  3.929275  0
C  C67  1  0.43656434  0.78426189  0.59650306  1  0.016078  0  -0.006241  -0.022408  0  3.929319  0
C  C68  1  0.01127503  0.26633404  0.95573512  1  -0.05994  0  -0.08393  -0.163493  0  3.931122  0
C  C69  1  0.48872597  0.23366667  0.45573609  1  -0.059941  0  -0.083922  -0.163467  0  3.931046  0
C  C70  1  0.98872642  0.73366924  0.04426277  1  -0.059875  0  -0.083934  -0.163589  0  3.931047  0
C  C71  1  0.51127267  0.76633357  0.54426464  1  -0.059874  0  -0.083967  -0.16359  0  3.931156  0
C  C72  1  0.00771349  0.13408522  0.97866438  1  -0.07769  0  -0.009779  0.073352  0  4.040883  0
C  C73  1  0.49228973  0.36591650  0.47866536  1  -0.077729  0  -0.009789  0.073277  0  4.04086  0
C  C74  1  0.99228486  0.86591400  0.02133493  1  -0.077736  0  -0.009766  0.073336  0  4.040897  0
C  C75  1  0.50771214  0.63408474  0.52133585  1  -0.07771  0  -0.009769  0.073361  0  4.040924  0
C  C76  1  0.92389250  0.01660213  0.94582765  1  -0.051921  0  -0.012361  0.065668  0  4.045278  0
C  C77  1  0.57610660  0.48339912  0.44582969  1  -0.05182  0  -0.012349  0.065716  0  4.04522  0
C  C78  1  0.07610684  0.98339709  0.05417071  1  -0.051837  0  -0.01235  0.065774  0  4.0452  0
C  C79  1  0.42389260  0.51660316  0.55417199  1  -0.051815  0  -0.012378  0.065627  0  4.04534  0
C  C80  1  0.84705745  0.03871169  0.89244441  1  0.01804  0  -0.082751  -0.151531  0  3.975912  0
C  C81  1  0.65294198  0.46129056  0.39244548  1  0.017837  0  -0.082745  -0.151554  0  3.975806  0
C  C82  1  0.15294146  0.96128957  0.10755490  1  0.017825  0  -0.082763  -0.15159  0  3.975989  0
C  C83  1  0.34705919  0.53871170  0.60755620  1  0.017902  0  -0.082773  -0.151542  0  3.975903  0
C  C84  1  0.85077021  0.16780984  0.87174939  1  -0.117627  0  -0.014511  -0.057296  0  3.969276  0
C  C85  1  0.64923051  0.33219342  0.37175045  1  -0.117549  0  -0.014457  -0.057128  0  3.969263  0
C  C86  1  0.14923194  0.83219242  0.12824944  1  -0.117669  0  -0.014466  -0.057277  0  3.969315  0
C  C87  1  0.35076869  0.66780886  0.62825076  1  -0.117609  0  -0.014484  -0.057266  0  3.969324  0
C  C88  1  0.08178586  0.11447945  0.03222175  1  0.006886  0  -0.083151  -0.175145  0  3.922394  0
C  C89  1  0.41821582  0.38552220  0.53222355  1  0.006883  0  -0.083139  -0.175051  0  3.922329  0
C  C90  1  0.91821531  0.88552282  0.96777708  1  0.00687  0  -0.083147  -0.175088  0  3.922477  0
C  C91  1  0.58178506  0.61447905  0.46777813  1  0.006872  0  -0.083164  -0.175124  0  3.92248  0
C  C92  1  0.75822097  0.18500294  0.81893218  1  1.540347  0  0.198568  0.557253  0  4.233895  0
C  C93  1  0.74177782  0.31500032  0.31893274  1  1.540256  0  0.198547  0.557186  0  4.233819  0
C  C94  1  0.24177907  0.81499526  0.18106761  1  1.540425  0  0.198548  0.557255  0  4.233845  0
C  C95  1  0.25821996  0.68500400  0.68106705  1  1.540337  0  0.198571  0.55727  0  4.233782  0
C  C96  1  0.19715140  0.76172311  0.90918116  1  0.482788  0  0.053413  0.103761  0  3.892327  0
C  C97  1  0.30285080  0.73827414  0.40918122  1  0.482824  0  0.053451  0.103831  0  3.892294  0
C  C98  1  0.80285244  0.23827812  0.09081862  1  0.482774  0  0.053389  0.103775  0  3.8923  0
C  C99  1  0.69715291  0.26172302  0.59081809  1  0.482813  0  0.053313  0.103673  0  3.892471  0
C  C100  1  0.28511104  0.84266857  0.95266275  1  -0.008493  0  -0.066901  -0.167973  0  3.890973  0
C  C101  1  0.21489014  0.65732870  0.45266330  1  -0.008425  0  -0.066922  -0.168005  0  3.89093  0
C  C102  1  0.71489126  0.15733063  0.04733514  1  -0.008559  0  -0.066933  -0.167997  0  3.890951  0
C  C103  1  0.78510879  0.34266543  0.54733649  1  -0.008594  0  -0.066898  -0.167995  0  3.891139  0
C  C104  1  0.41334230  0.92036403  0.93163066  1  0.31488  0  0.109758  0.203761  0  4.011956  0
C  C105  1  0.08665889  0.57963323  0.43162933  1  0.314867  0  0.109724  0.203735  0  4.011974  0
C  C106  1  0.58665999  0.07963518  0.06836960  1  0.314852  0  0.109755  0.203811  0  4.011887  0
C  C107  1  0.91333989  0.42036395  0.56836950  1  0.314894  0  0.109789  0.203837  0  4.011899  0
C  C108  1  0.44877484  0.91386550  0.86776028  1  -0.020964  0  -0.071795  -0.177935  0  3.88963  0
C  C109  1  0.05122571  0.58613277  0.36776038  1  -0.020961  0  -0.071798  -0.177932  0  3.889494  0
C  C110  1  0.55122745  0.08613370  0.13223856  1  -0.021014  0  -0.071806  -0.177915  0  3.889482  0
C  C111  1  0.94877505  0.41386440  0.63223893  1  -0.020938  0  -0.07182  -0.177964  0  3.889635  0
C  C112  1  0.35590863  0.82874588  0.82745963  1  0.462558  0  0.050104  0.095476  0  3.931902  0
C  C113  1  0.14409420  0.67125339  0.32745924  1  0.46261  0  0.050131  0.09556  0  3.931846  0
C  C114  1  0.64409690  0.17125432  0.17254063  1  0.462729  0  0.050157  0.095511  0  3.931777  0
C  C115  1  0.85590781  0.32874480  0.67254054  1  0.462571  0  0.050098  0.095495  0  3.93188  0
C  C116  1  0.81901226  0.60010091  0.76803396  1  1.292883  0  0.172748  0.279986  0  4.039568  0
C  C117  1  0.68098774  0.89989889  0.26803312  1  1.292876  0  0.172725  0.279868  0  4.039734  0
C  C118  1  0.18098708  0.39989831  0.23196678  1  1.292897  0  0.172743  0.2799  0  4.039929  0
C  C119  1  0.31901061  0.10010034  0.73196619  1  1.292878  0  0.172795  0.280015  0  4.03968  0
C  C120  1  0.70548995  0.76173201  0.72413711  1  0.234448  0  -0.134016  -0.270422  0  3.868204  0
C  C121  1  0.79450869  0.73826982  0.22413623  1  0.234593  0  -0.134009  -0.270413  0  3.868241  0
C  C122  1  0.29450925  0.23827026  0.27586457  1  0.234469  0  -0.134023  -0.270539  0  3.868256  0
C  C123  1  0.20548939  0.26172839  0.77586356  1  0.234544  0  -0.134056  -0.270464  0  3.868245  0
C  C124  1  0.57313490  0.52719526  0.75338226  1  0.2537  0  -0.130184  -0.279994  0  3.88374  0
C  C125  1  0.92686484  0.97280351  0.25338326  1  0.253808  0  -0.130174  -0.279977  0  3.8836  0
C  C126  1  0.42686528  0.47280701  0.24661800  1  0.253704  0  -0.13021  -0.280056  0  3.883662  0
C  C127  1  0.07313394  0.02719367  0.74661795  1  0.253701  0  -0.13014  -0.27983  0  3.88373  0
N  N128  1  0.23185239  0.75450532  0.84757299  1  -1.260972  0  -0.324173  -0.231972  0  3.55746  0
N  N129  1  0.26815000  0.74549599  0.34757354  1  -1.261012  0  -0.324179  -0.232038  0  3.557479  0
N  N130  1  0.76815216  0.24549489  0.15242585  1  -1.261046  0  -0.32417  -0.231975  0  3.557465  0
N  N131  1  0.73185032  0.25450323  0.65242767  1  -1.260972  0  -0.3241  -0.231908  0  3.557427  0
N  N132  1  0.51005415  0.01100566  0.97069634  1  -0.405968  0  -0.12098  -0.095482  0  3.202722  0
N  N133  1  0.98994873  0.48899150  0.47069686  1  -0.406302  0  -0.120945  -0.095467  0  3.202717  0
N  N134  1  0.48995362  0.98899556  0.02930108  1  -0.463824  0  -0.120951  -0.095474  0  3.202707  0
N  N135  1  0.01005048  0.51100365  0.52930151  1  -0.463472  0  -0.120959  -0.095437  0  3.202607  0
N  N136  1  0.70493431  0.62882082  0.74932952  1  -1.220056  0  -0.271643  0.052625  0  3.718239  0
N  N137  1  0.79506473  0.87117898  0.24933007  1  -1.2201  0  -0.271666  0.052615  0  3.718429  0
N  N138  1  0.29506489  0.37118146  0.25067074  1  -1.220065  0  -0.271651  0.052693  0  3.718437  0
N  N139  1  0.20493335  0.12881923  0.75067066  1  -1.220102  0  -0.271678  0.052562  0  3.718479  0
O  O140  1  0.02247770  0.44155353  0.82309973  1  -1.167154  0  -0.33884  -0.579346  0  2.337984  0
O  O141  1  0.47752061  0.05844411  0.32310020  1  -1.167112  0  -0.338844  -0.579358  0  2.337957  0
O  O142  1  0.97752206  0.55844365  0.17689674  1  -1.167147  0  -0.338837  -0.579256  0  2.338234  0
O  O143  1  0.52247606  0.94155614  0.67690053  1  -1.167138  0  -0.338854  -0.57933  0  2.337976  0
O  O144  1  0.93370895  0.51891441  0.90978501  1  -1.177004  0  -0.325231  -0.550033  0  2.119407  0
O  O145  1  0.56629176  0.98108846  0.40978374  1  -1.177026  0  -0.325274  -0.54997  0  2.119575  0
O  O146  1  0.06629687  0.48107968  0.09021193  1  -1.176652  0  -0.32537  -0.550161  0  2.118738  0
O  O147  1  0.43370743  0.01891381  0.59021605  1  -1.176995  0  -0.32521  -0.54995  0  2.119516  0
O  O148  1  0.72478466  0.29374178  0.81284338  1  -1.172442  0  -0.312344  -0.541132  0  2.189672  0
O  O149  1  0.77521696  0.20625739  0.31284297  1  -1.172395  0  -0.312321  -0.541097  0  2.189519  0
O  O150  1  0.27521538  0.70625642  0.18715451  1  -1.172504  0  -0.312359  -0.541157  0  2.189693  0
O  O151  1  0.22478168  0.79374285  0.68715539  1  -1.172476  0  -0.312355  -0.54116  0  2.189593  0
O  O152  1  0.71449579  0.08058685  0.78154698  1  -1.165957  0  -0.337523  -0.570001  0  2.311276  0
O  O153  1  0.78550445  0.41941435  0.28154754  1  -1.165978  0  -0.337542  -0.570042  0  2.311257  0
O  O154  1  0.28550102  0.91941034  0.21845328  1  -1.165904  0  -0.337504  -0.570001  0  2.311228  0
O  O155  1  0.21449727  0.58058995  0.71845320  1  -1.165887  0  -0.337516  -0.569993  0  2.311187  0
O  O156  1  0.93618166  0.68507062  0.76385275  1  -1.168454  0  -0.309534  -0.460064  0  2.410455  0
O  O157  1  0.56381637  0.81492919  0.26385098  1  -1.168486  0  -0.309473  -0.459957  0  2.41044  0
O  O158  1  0.06381697  0.31492962  0.23614798  1  -1.168464  0  -0.309474  -0.459974  0  2.410589  0
O  O159  1  0.43618128  0.18507106  0.73614691  1  -1.168425  0  -0.309568  -0.460083  0  2.410507  0
