# generated using pymatgen
data_CdH22C30(NO)6
_symmetry_space_group_name_H-M   'P 1'
_cell_length_a   12.24755184
_cell_length_b   12.24754155
_cell_length_c   13.43921960
_cell_angle_alpha   77.59293286
_cell_angle_beta   77.59255303
_cell_angle_gamma   66.59012567
_symmetry_Int_Tables_number   1
_chemical_formula_structural   CdH22C30(NO)6
_chemical_formula_sum   'Cd2 H44 C60 N12 O12'
_cell_volume   1787.81321715
_cell_formula_units_Z   2
loop_
 _symmetry_equiv_pos_site_id
 _symmetry_equiv_pos_as_xyz
  1  'x, y, z'
loop_
 _atom_site_type_symbol
 _atom_site_label
 _atom_site_symmetry_multiplicity
 _atom_site_fract_x
 _atom_site_fract_y
 _atom_site_fract_z
 _atom_site_occupancy
 _atom_site_pbe_bader_charge
 _atom_site_pbe_bader_spin_density
 _atom_site_pbe_cm5_charge
 _atom_site_pbe_ddec_charge
 _atom_site_pbe_ddec_spin_density
 _atom_site_pbe_ddec_sum_bond_order
 _atom_site_pbe_magmom
Cd  Cd0  1  0.50000086  0.99999334  0.49999799  1  1.263867  0  0.781051  0.786565  0  2.3184  0
Cd  Cd1  1  0.99999424  0.50000214  0.00000327  1  1.263883  0  0.781072  0.786596  0  2.318329  0
H  H2  1  0.45109106  0.19028536  0.28419370  1  0.12041  0  0.113114  0.086376  0  1.023687  0
H  H3  1  0.04195000  0.21644199  0.44120175  1  0.076516  0  0.107612  0.109863  0  1.030153  0
H  H4  1  0.27867316  0.31257657  0.18262375  1  0.097278  0  0.111478  0.12141  0  1.001003  0
H  H5  1  0.98138724  0.64600433  0.33811047  1  0.083135  0  0.106985  0.107413  0  1.002017  0
H  H6  1  0.34572468  0.85944830  0.66104822  1  0.132943  0  0.107074  0.081068  0  1.068104  0
H  H7  1  0.15911912  0.46386153  0.60388588  1  0.070956  0  0.105081  0.101351  0  1.026082  0
H  H8  1  0.14007709  0.65470463  0.58340364  1  0.51322  0  0.29858  0.273572  0  1.023265  0
H  H9  1  0.44005057  0.86899856  0.34482245  1  0.114383  0  0.113017  0.084014  0  1.007808  0
H  H10  1  0.31688103  0.75306455  0.33677819  1  0.169667  0  0.111255  0.148758  0  1.050212  0
H  H11  1  0.21811904  0.74078939  0.66734876  1  0.098225  0  0.109679  0.131764  0  1.016017  0
H  H12  1  0.22003573  0.10786664  0.53528615  1  0.103455  0  0.116312  0.089007  0  0.993894  0
H  H13  1  0.80972540  0.54891245  0.21580599  1  0.120587  0  0.113113  0.086343  0  1.02365  0
H  H14  1  0.78355725  0.95805434  0.05879309  1  0.076684  0  0.107583  0.109798  0  1.030274  0
H  H15  1  0.68743639  0.72133005  0.31738094  1  0.097376  0  0.111483  0.12142  0  1.000958  0
H  H16  1  0.35399527  0.01860752  0.16188904  1  0.08271  0  0.106968  0.107463  0  1.002018  0
H  H17  1  0.14055223  0.65426693  0.83895119  1  0.132692  0  0.107106  0.081078  0  1.068053  0
H  H18  1  0.53613976  0.84087499  0.89611005  1  0.070792  0  0.105107  0.101424  0  1.026117  0
H  H19  1  0.34528827  0.85992751  0.91659402  1  0.513267  0  0.298632  0.27362  0  1.023234  0
H  H20  1  0.13100026  0.55994985  0.15517845  1  0.114385  0  0.113019  0.084025  0  1.007804  0
H  H21  1  0.24692508  0.68313109  0.16321854  1  0.169787  0  0.111229  0.148719  0  1.050361  0
H  H22  1  0.25920538  0.78187796  0.83264926  1  0.098116  0  0.109693  0.13179  0  1.01602  0
H  H23  1  0.89212423  0.77996772  0.96470797  1  0.103441  0  0.116335  0.089037  0  0.99388  0
H  H24  1  0.54890631  0.80973936  0.71580561  1  0.120517  0  0.11317  0.086397  0  1.023706  0
H  H25  1  0.95805406  0.78355363  0.55879734  1  0.076504  0  0.107595  0.109827  0  1.030147  0
H  H26  1  0.72131969  0.68744803  0.81738388  1  0.097337  0  0.111476  0.121359  0  1.001091  0
H  H27  1  0.01860780  0.35399703  0.66188776  1  0.082737  0  0.106968  0.107461  0  1.002058  0
H  H28  1  0.65427040  0.14055310  0.33894255  1  0.13252  0  0.107068  0.081018  0  1.068143  0
H  H29  1  0.84087410  0.53614300  0.39611060  1  0.070824  0  0.105111  0.101423  0  1.026151  0
H  H30  1  0.85992518  0.34529250  0.41659029  1  0.513228  0  0.298585  0.273644  0  1.023224  0
H  H31  1  0.55995539  0.13099141  0.65517139  1  0.114534  0  0.113016  0.084006  0  1.007845  0
H  H32  1  0.68312857  0.24692164  0.66321345  1  0.16969  0  0.111254  0.148771  0  1.050346  0
H  H33  1  0.78187786  0.25920969  0.33264210  1  0.097967  0  0.109641  0.131699  0  1.016013  0
H  H34  1  0.77996932  0.89212365  0.46470855  1  0.103454  0  0.116321  0.089034  0  0.993905  0
H  H35  1  0.19026597  0.45109438  0.78419412  1  0.120502  0  0.113138  0.086353  0  1.023631  0
H  H36  1  0.21644130  0.04194991  0.94120913  1  0.076749  0  0.107597  0.109863  0  1.03017  0
H  H37  1  0.31256127  0.27867368  0.68262155  1  0.097415  0  0.11145  0.121356  0  1.001098  0
H  H38  1  0.64600882  0.98138473  0.83811291  1  0.082729  0  0.106973  0.107397  0  1.002074  0
H  H39  1  0.85944909  0.34573047  0.16105254  1  0.132862  0  0.10705  0.080993  0  1.068074  0
H  H40  1  0.46386434  0.15911558  0.10389297  1  0.070968  0  0.105106  0.101422  0  1.026106  0
H  H41  1  0.65470493  0.14007444  0.08341188  1  0.513469  0  0.298554  0.273523  0  1.023298  0
H  H42  1  0.86900564  0.44003922  0.84482599  1  0.114219  0  0.113034  0.084024  0  1.007843  0
H  H43  1  0.75307443  0.31686694  0.83678691  1  0.169689  0  0.111218  0.148701  0  1.050467  0
H  H44  1  0.74079142  0.21812102  0.16735801  1  0.09813  0  0.109651  0.131696  0  1.016011  0
H  H45  1  0.10786803  0.22003878  0.03529278  1  0.103408  0  0.116325  0.089008  0  0.993819  0
C  C46  1  0.04274765  0.34201440  0.24363833  1  1.6253  0  0.207626  0.570867  0  4.235244  0
C  C47  1  0.14700323  0.27403868  0.30448219  1  -0.048506  0  0.002046  0.014101  0  3.934491  0
C  C48  1  0.35816293  0.20175232  0.31691148  1  0.442836  0  0.044454  0.088216  0  3.942095  0
C  C49  1  0.13057866  0.21524476  0.40457613  1  0.007815  0  -0.079723  -0.137886  0  3.957697  0
C  C50  1  0.26353484  0.26756366  0.26063845  1  0.001062  0  -0.077667  -0.137858  0  3.937279  0
C  C51  1  0.98926732  0.58152017  0.40867774  1  -0.013171  0  -0.079498  -0.091383  0  3.96838  0
C  C52  1  0.33772611  0.83285157  0.59109270  1  0.436305  0  0.027955  0.080916  0  4.003477  0
C  C53  1  0.08893437  0.48012115  0.55872677  1  -0.057355  0  -0.085144  -0.103733  0  3.985851  0
C  C54  1  0.38988839  0.83850579  0.41509727  1  0.450454  0  0.039873  0.104208  0  3.982328  0
C  C55  1  0.25786343  0.73535436  0.50276180  1  0.344516  0  0.118292  0.300813  0  4.008363  0
C  C56  1  0.32146978  0.77284473  0.41043218  1  0.023035  0  -0.094036  -0.235372  0  3.905036  0
C  C57  1  0.07828783  0.56252744  0.46770059  1  -0.027247  0  -0.011865  -0.029239  0  3.996294  0
C  C58  1  0.26701057  0.76724460  0.59450690  1  -0.020276  0  -0.097507  -0.237577  0  3.935291  0
C  C59  1  0.15853088  0.63308247  0.43133739  1  1.401361  0  0.243298  0.47756  0  4.111344  0
C  C60  1  0.22929279  0.15356788  0.45657490  1  0.492256  0  0.044575  0.091707  0  3.958349  0
C  C61  1  0.65798869  0.95725677  0.25635838  1  1.624769  0  0.207666  0.571043  0  4.235142  0
C  C62  1  0.72596278  0.85300262  0.19551702  1  -0.048249  0  0.002019  0.013963  0  3.934495  0
C  C63  1  0.79825100  0.64184522  0.18308831  1  0.442723  0  0.044563  0.088372  0  3.942216  0
C  C64  1  0.78475371  0.86942858  0.09542026  1  0.007189  0  -0.079597  -0.137648  0  3.957426  0
C  C65  1  0.73244158  0.73646995  0.23936210  1  0.000833  0  -0.077663  -0.137852  0  3.937405  0
C  C66  1  0.41847977  0.01072518  0.09132638  1  -0.01298  0  -0.079467  -0.091438  0  3.968157  0
C  C67  1  0.16714596  0.66226940  0.90890946  1  0.436665  0  0.027996  0.081017  0  4.003668  0
C  C68  1  0.51988132  0.91105969  0.94127218  1  -0.057418  0  -0.085197  -0.103904  0  3.986199  0
C  C69  1  0.16149073  0.61011377  0.08490156  1  0.4505  0  0.039871  0.104178  0  3.982383  0
C  C70  1  0.26463700  0.74214079  0.99723536  1  0.343389  0  0.118394  0.300924  0  4.008143  0
C  C71  1  0.22714678  0.67853633  0.08956760  1  0.022909  0  -0.094076  -0.23539  0  3.905152  0
C  C72  1  0.43747361  0.92170745  0.03229731  1  -0.027008  0  -0.011863  -0.02921  0  3.996217  0
C  C73  1  0.23274903  0.73298979  0.90549137  1  -0.019227  0  -0.097612  -0.237754  0  3.935558  0
C  C74  1  0.36691228  0.84146966  0.06865770  1  1.400998  0  0.243278  0.477444  0  4.111342  0
C  C75  1  0.84643003  0.77071043  0.04342039  1  0.492577  0  0.044531  0.09162  0  3.958301  0
C  C76  1  0.95725258  0.65799760  0.75636210  1  1.625255  0  0.207575  0.570784  0  4.235296  0
C  C77  1  0.85299614  0.72597028  0.69551973  1  -0.048255  0  0.002048  0.014093  0  3.934511  0
C  C78  1  0.64183818  0.79826020  0.68309018  1  0.443083  0  0.044529  0.088206  0  3.942288  0
C  C79  1  0.86942264  0.78475517  0.59542415  1  0.007557  0  -0.079652  -0.137737  0  3.957504  0
C  C80  1  0.73646356  0.73244981  0.73936577  1  0.000611  0  -0.077687  -0.137767  0  3.937479  0
C  C81  1  0.01072774  0.41847780  0.59132484  1  -0.012948  0  -0.079463  -0.091506  0  3.96813  0
C  C82  1  0.66226988  0.16714696  0.40890365  1  0.436807  0  0.027953  0.081039  0  4.003735  0
C  C83  1  0.91105976  0.51988137  0.44127141  1  -0.057378  0  -0.08518  -0.103858  0  3.986252  0
C  C84  1  0.61011937  0.16148525  0.58489231  1  0.450734  0  0.039843  0.104255  0  3.982447  0
C  C85  1  0.74213891  0.26463943  0.49722903  1  0.343741  0  0.118414  0.300903  0  4.008081  0
C  C86  1  0.67853621  0.22714272  0.58956288  1  0.022931  0  -0.094136  -0.235487  0  3.90523  0
C  C87  1  0.92170725  0.43747225  0.53229496  1  -0.027059  0  -0.011825  -0.029157  0  3.996126  0
C  C88  1  0.73298904  0.23275352  0.40548288  1  -0.019629  0  -0.097531  -0.23756  0  3.935298  0
C  C89  1  0.84146873  0.36691311  0.56865660  1  1.401017  0  0.24321  0.477384  0  4.11151  0
C  C90  1  0.77071033  0.84643144  0.54342143  1  0.492459  0  0.044542  0.091589  0  3.958282  0
C  C91  1  0.34201170  0.04274601  0.74363931  1  1.625276  0  0.207657  0.570864  0  4.235345  0
C  C92  1  0.27403306  0.14700343  0.80448463  1  -0.048253  0  0.002093  0.014104  0  3.934472  0
C  C93  1  0.20174396  0.35815947  0.81691376  1  0.442856  0  0.044512  0.088259  0  3.942322  0
C  C94  1  0.21524303  0.13057715  0.90458053  1  0.007124  0  -0.07976  -0.137888  0  3.957613  0
C  C95  1  0.26755696  0.26353514  0.76063997  1  0.000661  0  -0.077672  -0.137786  0  3.937548  0
C  C96  1  0.58152434  0.98926454  0.90867828  1  -0.012401  0  -0.07947  -0.091354  0  3.968283  0
C  C97  1  0.83285449  0.33772664  0.09109395  1  0.436516  0  0.027982  0.08105  0  4.003588  0
C  C98  1  0.48012367  0.08893139  0.05873131  1  -0.057401  0  -0.085174  -0.103909  0  3.986035  0
C  C99  1  0.83851242  0.38987962  0.91510408  1  0.45091  0  0.039798  0.104153  0  3.982551  0
C  C100  1  0.73536163  0.25785588  0.00277126  1  0.343417  0  0.118356  0.300801  0  4.008135  0
C  C101  1  0.77285457  0.32145855  0.91043660  1  0.022992  0  -0.094099  -0.235379  0  3.905301  0
C  C102  1  0.56253227  0.07828415  0.96770518  1  -0.02766  0  -0.011831  -0.029139  0  3.996187  0
C  C103  1  0.76724959  0.26700772  0.09451434  1  -0.019308  0  -0.097518  -0.237536  0  3.93546  0
C  C104  1  0.63309270  0.15852142  0.93134654  1  1.400978  0  0.243329  0.477653  0  4.111378  0
C  C105  1  0.15356585  0.22929480  0.95657769  1  0.492613  0  0.044612  0.091754  0  3.958326  0
N  N106  1  0.34139459  0.14549745  0.41338126  1  -1.241084  0  -0.326051  -0.233988  0  3.500601  0
N  N107  1  0.39921439  0.86864631  0.50279255  1  -1.232175  0  -0.341095  -0.270373  0  3.519195  0
N  N108  1  0.18640519  0.66893232  0.51032019  1  -1.2766  0  -0.394835  -0.384927  0  3.550249  0
N  N109  1  0.85449985  0.65861282  0.08661895  1  -1.241011  0  -0.326167  -0.234118  0  3.500845  0
N  N110  1  0.13135242  0.60078364  0.99720734  1  -1.232402  0  -0.341117  -0.270399  0  3.519321  0
N  N111  1  0.33106069  0.81360244  0.98967677  1  -1.276382  0  -0.394919  -0.384962  0  3.550143  0
N  N112  1  0.65861115  0.85450509  0.58661769  1  -1.241172  0  -0.326172  -0.234023  0  3.500686  0
N  N113  1  0.60078794  0.13134833  0.49719812  1  -1.232483  0  -0.34106  -0.270489  0  3.519422  0
N  N114  1  0.81359801  0.33106282  0.48967245  1  -1.276371  0  -0.394822  -0.384971  0  3.550099  0
N  N115  1  0.14549421  0.34139303  0.91338233  1  -1.241035  0  -0.326148  -0.234086  0  3.500839  0
N  N116  1  0.86865074  0.39920975  0.00279755  1  -1.232316  0  -0.340996  -0.270364  0  3.519405  0
N  N117  1  0.66893523  0.18639602  0.01033077  1  -1.27667  0  -0.394774  -0.384816  0  3.549962  0
O  O118  1  0.07208442  0.38178053  0.15052836  1  -1.187029  0  -0.33204  -0.566132  0  2.307516  0
O  O119  1  0.93736261  0.35320079  0.28812432  1  -1.201634  0  -0.322513  -0.573644  0  2.226677  0
O  O120  1  0.19243474  0.65794661  0.33891486  1  -1.131721  0  -0.276809  -0.454033  0  2.124137  0
O  O121  1  0.61822825  0.92791779  0.34947442  1  -1.18699  0  -0.332113  -0.566281  0  2.307306  0
O  O122  1  0.64679327  0.06264524  0.21187672  1  -1.201316  0  -0.322542  -0.573675  0  2.226746  0
O  O123  1  0.34204884  0.80756769  0.16108269  1  -1.131758  0  -0.276798  -0.453975  0  2.124051  0
O  O124  1  0.92791674  0.61822778  0.84947408  1  -1.186985  0  -0.332087  -0.566178  0  2.307396  0
O  O125  1  0.06263753  0.64681707  0.71187874  1  -1.201657  0  -0.322493  -0.573595  0  2.226705  0
O  O126  1  0.80756397  0.34204928  0.66108072  1  -1.131723  0  -0.276782  -0.453934  0  2.124141  0
O  O127  1  0.38178552  0.07208264  0.65053160  1  -1.18696  0  -0.33211  -0.566208  0  2.307492  0
O  O128  1  0.35318912  0.93736480  0.78812225  1  -1.201668  0  -0.322504  -0.573594  0  2.226679  0
O  O129  1  0.65796698  0.19241617  0.83892161  1  -1.13139  0  -0.276908  -0.454216  0  2.12413  0
