# generated using pymatgen
data_NiH16C16(N2O3)2
_symmetry_space_group_name_H-M   'P 1'
_cell_length_a   9.18449108
_cell_length_b   13.35284411
_cell_length_c   18.71812304
_cell_angle_alpha   110.91226610
_cell_angle_beta   103.00062043
_cell_angle_gamma   89.99247213
_symmetry_Int_Tables_number   1
_chemical_formula_structural   NiH16C16(N2O3)2
_chemical_formula_sum   'Ni4 H64 C64 N16 O24'
_cell_volume   2081.27449458
_cell_formula_units_Z   4
loop_
 _symmetry_equiv_pos_site_id
 _symmetry_equiv_pos_as_xyz
  1  'x, y, z'
loop_
 _atom_site_type_symbol
 _atom_site_label
 _atom_site_symmetry_multiplicity
 _atom_site_fract_x
 _atom_site_fract_y
 _atom_site_fract_z
 _atom_site_occupancy
 _atom_site_pbe_bader_charge
 _atom_site_pbe_bader_spin_density
 _atom_site_pbe_cm5_charge
 _atom_site_pbe_ddec_charge
 _atom_site_pbe_ddec_spin_density
 _atom_site_pbe_ddec_sum_bond_order
 _atom_site_pbe_magmom
Ni  Ni0  1  0.05189359  0.15397048  0.73970263  1  1.183121  -1.579423  0.63323  0.793354  -1.856101  2.369555  -1.566
Ni  Ni1  1  0.44824623  0.41438514  0.26032803  1  1.184453  -1.579435  0.632847  0.793028  -1.856073  2.369256  -1.566
Ni  Ni2  1  0.94810723  0.84602884  0.26029753  1  1.18312  1.579424  0.633198  0.793254  1.856097  2.369695  1.566
Ni  Ni3  1  0.55175115  0.58561546  0.73967262  1  1.184484  1.579429  0.632829  0.792947  1.85607  2.369282  1.566
H  H4  1  0.38526031  0.19726592  0.76455035  1  0.108873  -0.002047  0.117047  0.080108  -0.000779  1.001195  -0.001
H  H5  1  0.11478791  0.43255635  0.23545220  1  0.102027  -0.002047  0.117131  0.080211  -0.00078  1.001821  -0.001
H  H6  1  0.61474326  0.80272857  0.23544900  1  0.108802  0.002047  0.117062  0.080108  0.000779  1.001297  0.001
H  H7  1  0.88520693  0.56744525  0.76454702  1  0.102004  0.002047  0.117118  0.0802  0.00078  1.001773  0.001
H  H8  1  0.83976443  0.12565902  0.79304549  1  0.629099  0.000307  0.274783  0.365844  -0.000269  0.983367  0.0
H  H9  1  0.66039095  0.33271275  0.20705314  1  0.616328  0.000308  0.274981  0.366043  -0.000271  0.983029  0.0
H  H10  1  0.16023396  0.87434123  0.20695399  1  0.629101  -0.000307  0.274811  0.365882  0.000269  0.983346  0.0
H  H11  1  0.33960836  0.66728987  0.79294711  1  0.616156  -0.000308  0.275014  0.366098  0.000271  0.982974  0.0
H  H12  1  0.83676249  0.24007291  0.78388410  1  0.638295  0.000136  0.275995  0.366324  -0.000394  0.982166  0.0
H  H13  1  0.66317238  0.45624540  0.21608420  1  0.645668  0.000133  0.275967  0.365793  -0.000395  0.983092  0.0
H  H14  1  0.16324038  0.75992784  0.21611589  1  0.638294  -0.000136  0.276004  0.366321  0.000394  0.982178  0.0
H  H15  1  0.33682479  0.54375532  0.78391495  1  0.645666  -0.000133  0.275964  0.365787  0.000395  0.983097  0.0
H  H16  1  0.16635313  0.35583010  0.74923292  1  0.661248  -0.00023  0.287115  0.389549  -0.000335  0.951001  0.0
H  H17  1  0.33387933  0.60670119  0.25075554  1  0.655184  -0.000224  0.286936  0.388969  -0.000335  0.951773  0.0
H  H18  1  0.83364434  0.64416831  0.25076634  1  0.661244  0.00023  0.287107  0.389535  0.000335  0.951016  0.0
H  H19  1  0.66612129  0.39330038  0.74924526  1  0.65518  0.000224  0.286946  0.388982  0.000335  0.951762  0.0
H  H20  1  0.22032443  0.35209204  0.83274617  1  0.584939  -0.000793  0.308292  0.3739  -0.000734  0.920296  -0.001
H  H21  1  0.27971028  0.51933049  0.16728084  1  0.592062  -0.000766  0.308425  0.374093  -0.00073  0.920145  -0.001
H  H22  1  0.77967325  0.64790359  0.16725191  1  0.584933  0.000793  0.308287  0.373887  0.000734  0.920271  0.001
H  H23  1  0.72029249  0.48066978  0.83271786  1  0.592059  0.000766  0.308416  0.374068  0.00073  0.920158  0.001
H  H24  1  0.64467416  0.83012790  0.62201943  1  0.08687  -0.001997  0.103836  0.123517  -0.000855  1.005562  -0.001
H  H25  1  0.85544372  0.20791542  0.37792858  1  0.082332  -0.00199  0.103975  0.122975  -0.000852  1.006438  -0.001
H  H26  1  0.35532587  0.16987453  0.37797741  1  0.086819  0.001997  0.103834  0.123492  0.000855  1.005493  0.001
H  H27  1  0.14455813  0.79208408  0.62207096  1  0.082351  0.00199  0.103964  0.122959  0.000852  1.00644  0.001
H  H28  1  0.87834993  0.72723682  0.41048217  1  0.082782  -0.001456  0.102795  0.122773  -0.00064  1.023592  -0.001
H  H29  1  0.62178012  0.31661296  0.58943929  1  0.087581  -0.001449  0.10295  0.122911  -0.000641  1.024185  -0.001
H  H30  1  0.12165211  0.27276097  0.58951726  1  0.082783  0.001456  0.102778  0.122743  0.00064  1.023583  0.001
H  H31  1  0.37822315  0.68338277  0.41055888  1  0.087522  0.001449  0.102973  0.123015  0.000641  1.02411  0.001
H  H32  1  0.04063954  0.02602882  0.57406074  1  0.133985  -0.001877  0.119614  0.092648  -0.000718  1.02298  -0.002
H  H33  1  0.45947032  0.45196058  0.42593262  1  0.108865  -0.001892  0.119721  0.092514  -0.000718  1.023168  -0.002
H  H34  1  0.95936016  0.97397091  0.42593983  1  0.134149  0.001878  0.119661  0.092711  0.000718  1.022959  0.002
H  H35  1  0.54052167  0.54803770  0.57406730  1  0.108796  0.001892  0.119736  0.092559  0.000718  1.023075  0.002
H  H36  1  0.21893941  0.96668633  0.48389091  1  0.175469  -0.000683  0.113572  0.123138  -0.00033  1.043911  0.0
H  H37  1  0.28113094  0.48251575  0.51604855  1  0.135514  -0.000712  0.113503  0.123043  -0.00033  1.043876  0.0
H  H38  1  0.78105675  0.03331368  0.51610833  1  0.175503  0.000682  0.11358  0.123126  0.00033  1.043904  0.0
H  H39  1  0.71885862  0.51748238  0.48394963  1  0.135484  0.000712  0.11347  0.122946  0.00033  1.043886  0.0
H  H40  1  0.90642275  0.85752612  0.55056191  1  0.069941  -0.000318  0.101398  0.095688  -0.000214  1.018499  0.0
H  H41  1  0.59395031  0.30702430  0.44955918  1  0.077512  -0.000317  0.101255  0.095475  -0.000214  1.018929  0.0
H  H42  1  0.09357676  0.14247426  0.44943770  1  0.069901  0.000319  0.101374  0.09568  0.000214  1.018428  0.0
H  H43  1  0.40604848  0.69297306  0.55044064  1  0.077477  0.000317  0.101244  0.095469  0.000214  1.01895  0.0
H  H44  1  0.57735217  0.14306099  0.68480377  1  0.160903  -0.000914  0.116459  0.135577  -0.000432  1.020615  -0.001
H  H45  1  0.92271455  0.45817653  0.31520133  1  0.158157  -0.000915  0.116664  0.136308  -0.000431  1.019532  -0.001
H  H46  1  0.42264978  0.85693632  0.31519438  1  0.16092  0.000914  0.116467  0.135558  0.000432  1.020689  0.001
H  H47  1  0.07727796  0.54182540  0.68479743  1  0.158279  0.000915  0.116633  0.136217  0.000431  1.0195  0.001
H  H48  1  0.62373302  0.69199078  0.48431110  1  0.083391  -0.000285  0.10275  0.095571  -0.00018  1.0146  0.0
H  H49  1  0.87661194  0.20764360  0.51571066  1  0.076388  -0.000284  0.102808  0.095523  -0.00018  1.014155  0.0
H  H50  1  0.37626629  0.30801184  0.51568915  1  0.083302  0.000284  0.102763  0.095589  0.00018  1.014543  0.0
H  H51  1  0.12339123  0.79235325  0.48428783  1  0.076422  0.000284  0.102808  0.095569  0.00018  1.014153  0.0
H  H52  1  0.33757538  0.89778056  0.85779816  1  0.143989  -0.000701  0.117412  0.137071  -0.000317  1.019672  0.0
H  H53  1  0.16235557  0.04024095  0.14225885  1  0.170597  -0.000687  0.117346  0.137508  -0.000315  1.020249  0.0
H  H54  1  0.66243662  0.10221894  0.14220218  1  0.143998  0.000701  0.117449  0.137094  0.000317  1.019625  0.0
H  H55  1  0.83764170  0.95976344  0.85774479  1  0.170514  0.000687  0.11734  0.137446  0.000315  1.020305  0.0
H  H56  1  0.15691510  0.95250618  0.75971043  1  0.165033  -0.001741  0.1241  0.104009  -0.000655  1.006361  -0.001
H  H57  1  0.34297293  0.19315206  0.24031350  1  0.166618  -0.001743  0.124195  0.104269  -0.000654  1.006468  -0.001
H  H58  1  0.84309161  0.04749200  0.24029100  1  0.16498  0.001741  0.124116  0.104064  0.000654  1.006343  0.001
H  H59  1  0.65702404  0.80685304  0.75968842  1  0.166597  0.001742  0.124187  0.104221  0.000654  1.006537  0.001
H  H60  1  0.44083955  0.23556157  0.00355322  1  0.111982  -0.001024  0.119176  0.137017  -0.000494  0.985779  0.0
H  H61  1  0.05927377  0.23195640  0.99633602  1  0.112934  -0.001037  0.119041  0.136986  -0.000495  0.986006  0.0
H  H62  1  0.55916036  0.76443859  0.99644939  1  0.112031  0.001023  0.119215  0.137071  0.000494  0.985767  0.0
H  H63  1  0.94072788  0.76804642  0.00366523  1  0.112948  0.001037  0.119055  0.136985  0.000495  0.986034  0.0
H  H64  1  0.23921547  0.27484359  0.90342585  1  0.081622  -0.002201  0.120394  0.083171  -0.000822  1.00241  -0.002
H  H65  1  0.26088253  0.37149246  0.09644263  1  0.078909  -0.002199  0.120363  0.083622  -0.00082  1.001812  -0.002
H  H66  1  0.76078556  0.72515616  0.09657635  1  0.081612  0.002201  0.120404  0.083197  0.000822  1.002377  0.002
H  H67  1  0.73912134  0.62851007  0.90355833  1  0.078972  0.002199  0.120362  0.083643  0.00082  1.001855  0.002
C  C68  1  0.35293871  0.14589533  0.70242484  1  0.491729  0.005981  0.048611  0.096856  0.002819  3.951672  0.004
C  C69  1  0.14713526  0.44333245  0.29756940  1  0.469472  0.005975  0.047832  0.095807  0.002821  3.952413  0.004
C  C70  1  0.64706344  0.85410027  0.29757321  1  0.4918  -0.005981  0.048516  0.096785  -0.002818  3.951884  -0.004
C  C71  1  0.85285857  0.55666789  0.70242938  1  0.469515  -0.005973  0.047732  0.095735  -0.002821  3.952521  -0.004
C  C72  1  0.74926646  0.86330102  0.61726131  1  -0.041059  -0.00828  -0.089972  -0.218693  -0.005105  3.861212  -0.006
C  C73  1  0.75095597  0.24598470  0.38275482  1  -0.05612  -0.008291  -0.089516  -0.217443  -0.005111  3.862422  -0.006
C  C74  1  0.25073549  0.13669789  0.38273845  1  -0.041068  0.00828  -0.089953  -0.218584  0.005105  3.861095  0.006
C  C75  1  0.24904476  0.75401522  0.61724513  1  -0.056158  0.008292  -0.089471  -0.217336  0.005112  3.862371  0.006
C  C76  1  0.77688806  0.69120205  0.41618849  1  -0.028371  -0.005523  -0.09707  -0.24426  -0.003496  3.89592  -0.004
C  C77  1  0.72332625  0.27494895  0.58377843  1  -0.028519  -0.005539  -0.097219  -0.245109  -0.003497  3.896002  -0.004
C  C78  1  0.22311277  0.30879780  0.58381221  1  -0.028388  0.005524  -0.097008  -0.244107  0.003496  3.895951  0.004
C  C79  1  0.27667498  0.72504481  0.41621939  1  -0.028568  0.005539  -0.097227  -0.245211  0.003497  3.895967  0.004
C  C80  1  0.16046461  0.04997569  0.59477113  1  0.414663  0.005257  0.048312  0.100499  0.002492  3.924257  0.004
C  C81  1  0.33962919  0.45517848  0.40522148  1  0.460609  0.005303  0.04829  0.100495  0.002496  3.923417  0.004
C  C82  1  0.83953439  0.95001943  0.40522805  1  0.414549  -0.005257  0.04821  0.100322  -0.002492  3.924382  -0.004
C  C83  1  0.66036198  0.54481630  0.59477736  1  0.460797  -0.005303  0.04826  0.100364  -0.002496  3.923382  -0.004
C  C84  1  0.41146581  0.05138255  0.57856008  1  0.284026  0.007339  0.106816  0.201029  0.004436  4.016021  0.005
C  C85  1  0.08860026  0.47270931  0.42143117  1  0.351572  0.007357  0.10613  0.201516  0.004439  4.014778  0.005
C  C86  1  0.58853269  0.94861444  0.42143695  1  0.284128  -0.00734  0.10672  0.200936  -0.004436  4.016132  -0.005
C  C87  1  0.91138991  0.52729403  0.57856819  1  0.351068  -0.007356  0.106111  0.201473  -0.004438  4.014899  -0.005
C  C88  1  0.25829928  0.01733437  0.54591435  1  -0.02016  -0.008229  -0.073267  -0.187752  -0.004837  3.924874  -0.006
C  C89  1  0.24175888  0.47122834  0.45404678  1  -0.013846  -0.008238  -0.073057  -0.187326  -0.004834  3.924859  -0.006
C  C90  1  0.74169931  0.98266417  0.45408503  1  -0.020139  0.00823  -0.073245  -0.187652  0.004837  3.924753  0.006
C  C91  1  0.75823454  0.52877650  0.54595328  1  -0.013401  0.008237  -0.072911  -0.186966  0.004834  3.924862  0.006
C  C92  1  0.80158104  0.82021535  0.55170849  1  -0.08386  0.000907  -0.084465  -0.042701  0.000523  4.028106  0.001
C  C93  1  0.69873207  0.26849595  0.44832881  1  -0.07134  0.000907  -0.084659  -0.043108  0.000521  4.028387  0.001
C  C94  1  0.19841939  0.17978634  0.44829081  1  -0.083561  -0.000907  -0.084452  -0.042768  -0.000523  4.028055  -0.001
C  C95  1  0.30127090  0.73150474  0.55167193  1  -0.07134  -0.000907  -0.084702  -0.043198  -0.000521  4.02844  -0.001
C  C96  1  0.45940116  0.11591476  0.65839537  1  0.028069  -0.008094  -0.064015  -0.156383  -0.004754  3.882854  -0.006
C  C97  1  0.04068594  0.45745235  0.34160388  1  -0.0182  -0.008071  -0.063286  -0.156875  -0.004751  3.88083  -0.006
C  C98  1  0.54060201  0.88408102  0.34160205  1  0.028052  0.008094  -0.063962  -0.156297  0.004754  3.88313  0.006
C  C99  1  0.95930545  0.54254892  0.65839422  1  -0.018476  0.00807  -0.063184  -0.156765  0.004751  3.880741  0.006
C  C100  1  0.69702044  0.59833701  0.34651749  1  1.526618  0.000604  0.205854  0.615353  -0.000295  4.195746  0.001
C  C101  1  0.80299405  0.25168227  0.65345342  1  1.529107  0.000608  0.206113  0.615503  -0.000301  4.193792  0.001
C  C102  1  0.30297826  0.40166094  0.65348211  1  1.526502  -0.000604  0.205697  0.61513  0.000296  4.196042  -0.001
C  C103  1  0.19700769  0.74831889  0.34654697  1  1.529177  -0.000609  0.206087  0.615553  0.000301  4.193787  -0.001
C  C104  1  0.82559405  0.96126741  0.68467632  1  1.558427  0.000334  0.200094  0.606869  -0.000929  4.211052  0.001
C  C105  1  0.67470331  0.27673144  0.31545093  1  1.556364  0.000346  0.200442  0.608047  -0.000915  4.210845  0.001
C  C106  1  0.17440556  0.03873238  0.31532351  1  1.558457  -0.000334  0.200167  0.606991  0.000929  4.210931  -0.001
C  C107  1  0.32529945  0.72327150  0.68455044  1  1.556444  -0.000346  0.200423  0.607974  0.000916  4.210926  -0.001
C  C108  1  0.72754404  0.73036796  0.48295840  1  -0.037593  0.000969  -0.079223  -0.026673  0.000566  4.021791  0.001
C  C109  1  0.77280476  0.24738162  0.51705619  1  -0.034573  0.000961  -0.079089  -0.025857  0.000563  4.019898  0.001
C  C110  1  0.27245537  0.26963354  0.51704153  1  -0.037677  -0.000969  -0.07926  -0.026733  -0.000566  4.021711  -0.001
C  C111  1  0.22719515  0.75261480  0.48294268  1  -0.034562  -0.000961  -0.07908  -0.025869  -0.000563  4.019894  -0.001
C  C112  1  0.32108507  0.98245027  0.86974159  1  0.022088  -0.00803  -0.067415  -0.170909  -0.004743  3.874028  -0.006
C  C113  1  0.17894270  0.11290443  0.13026857  1  0.041431  -0.007982  -0.067328  -0.172068  -0.004732  3.875527  -0.006
C  C114  1  0.67892460  0.01754957  0.13025828  1  0.02213  0.00803  -0.06737  -0.170859  0.004744  3.873898  0.006
C  C115  1  0.82105549  0.88709967  0.86973316  1  0.041446  0.007982  -0.067322  -0.172027  0.004732  3.875517  0.006
C  C116  1  0.40140336  0.06408368  0.93884065  1  0.328492  0.00782  0.105623  0.200691  0.004734  4.033462  0.006
C  C117  1  0.09866303  0.12531743  0.06113307  1  0.323691  0.007836  0.105591  0.201533  0.004735  4.031303  0.006
C  C118  1  0.59860529  0.93591598  0.06115985  1  0.328114  -0.007823  0.105607  0.200759  -0.004735  4.033368  -0.006
C  C119  1  0.90133647  0.87468561  0.93886921  1  0.324027  -0.007835  0.105597  0.201508  -0.004735  4.031285  -0.006
C  C120  1  0.22030706  0.01217709  0.81507532  1  0.434456  0.006058  0.056772  0.110878  0.003081  3.895666  0.004
C  C121  1  0.27966350  0.19737839  0.18491984  1  0.409738  0.006024  0.056719  0.11082  0.0031  3.893717  0.004
C  C122  1  0.77970048  0.98782245  0.18492505  1  0.434511  -0.006058  0.0567  0.110756  -0.003081  3.895613  -0.004
C  C123  1  0.72033683  0.80262388  0.81507925  1  0.409752  -0.006023  0.056827  0.111006  -0.003099  3.893792  -0.004
C  C124  1  0.37789696  0.17166340  0.95033273  1  0.02719  -0.008282  -0.071699  -0.185078  -0.004884  3.935059  -0.006
C  C125  1  0.12218698  0.22136497  0.04958817  1  -0.010181  -0.008283  -0.071826  -0.185258  -0.004891  3.935444  -0.006
C  C126  1  0.62210630  0.82833606  0.04966918  1  0.027111  0.008283  -0.071661  -0.185132  0.004885  3.935127  0.006
C  C127  1  0.87781263  0.77863748  0.95041433  1  -0.010521  0.008282  -0.07185  -0.185231  0.00489  3.935482  0.006
C  C128  1  0.26936641  0.19304622  0.89419517  1  0.44668  0.005813  0.043505  0.077067  0.002624  3.996671  0.004
C  C129  1  0.23068051  0.29896891  0.10570326  1  0.44607  0.005806  0.04382  0.076561  0.002609  3.997265  0.004
C  C130  1  0.73063786  0.80695448  0.10580718  1  0.446676  -0.005813  0.043479  0.077098  -0.002624  3.996532  -0.004
C  C131  1  0.76932347  0.70103144  0.89429632  1  0.446034  -0.005806  0.043824  0.076477  -0.002608  3.997297  -0.004
N  N132  1  0.20616736  0.11366330  0.67160460  1  -1.21315  -0.076108  -0.322315  -0.227746  -0.046816  3.589711  -0.068
N  N133  1  0.29393207  0.44202316  0.32839714  1  -1.187201  -0.076038  -0.322199  -0.227237  -0.046779  3.588696  -0.068
N  N134  1  0.79383245  0.88633424  0.32839459  1  -1.213343  0.076113  -0.322178  -0.227581  0.046819  3.58976  0.068
N  N135  1  0.70606317  0.55797607  0.67160294  1  -1.187217  0.076038  -0.322184  -0.227205  0.04678  3.58894  0.068
N  N136  1  0.19326477  0.11571417  0.82715383  1  -1.203229  -0.075665  -0.320072  -0.227114  -0.046687  3.590431  -0.068
N  N137  1  0.30674332  0.28877708  0.17278450  1  -1.197499  -0.07565  -0.319976  -0.226774  -0.046626  3.588107  -0.068
N  N138  1  0.80673981  0.88428531  0.17284971  1  -1.20331  0.075663  -0.320099  -0.22717  0.046687  3.590432  0.068
N  N139  1  0.69325467  0.71122767  0.82721626  1  -1.197389  0.07565  -0.320054  -0.226812  0.046626  3.588038  0.068
N  N140  1  0.52478121  0.02547784  0.53664152  1  -0.481839  -0.007905  -0.128826  -0.105283  -0.004626  3.233371  -0.007
N  N141  1  0.97525023  0.48874481  0.46334684  1  -0.437406  -0.007901  -0.128593  -0.105523  -0.00462  3.235087  -0.007
N  N142  1  0.47521495  0.97452109  0.46335665  1  -0.440194  0.007909  -0.128808  -0.105305  0.004628  3.233298  0.007
N  N143  1  0.02474146  0.51125523  0.53665244  1  -0.48738  0.007902  -0.128566  -0.105558  0.004621  3.235004  0.007
N  N144  1  0.50786263  0.04670726  0.99945636  1  -0.431673  -0.008062  -0.128795  -0.108056  -0.004741  3.232096  -0.007
N  N145  1  0.99220602  0.04724950  0.00051419  1  -0.419993  -0.008082  -0.128918  -0.108487  -0.00474  3.232076  -0.007
N  N146  1  0.49214723  0.95329301  0.00054555  1  -0.47506  0.008064  -0.128849  -0.108125  0.004742  3.232104  0.007
N  N147  1  0.00779013  0.95275317  0.99948772  1  -0.457425  0.008082  -0.128843  -0.108411  0.00474  3.232032  0.007
O  O148  1  0.89810274  0.19874489  0.81357016  1  -1.241454  -0.07699  -0.593611  -0.753779  -0.045827  2.067261  -0.065
O  O149  1  0.60192994  0.38516994  0.18645913  1  -1.23645  -0.076983  -0.59355  -0.753145  -0.045764  2.067692  -0.065
O  O150  1  0.10189789  0.80125401  0.18642797  1  -1.241469  0.076988  -0.59366  -0.7538  0.045826  2.067192  0.065
O  O151  1  0.39806612  0.61483066  0.81353989  1  -1.23625  0.076981  -0.593578  -0.753173  0.045763  2.067692  0.065
O  O152  1  0.76121849  0.00239260  0.74045444  1  -1.170194  -0.000987  -0.32457  -0.553414  -0.000172  2.113556  -0.001
O  O153  1  0.73927907  0.26220050  0.25976060  1  -1.168681  -0.000975  -0.324799  -0.553936  -0.000162  2.112535  -0.001
O  O154  1  0.23877523  0.99760781  0.25954359  1  -1.170226  0.000988  -0.324602  -0.553466  0.000172  2.113584  0.001
O  O155  1  0.26072430  0.73780658  0.74024088  1  -1.168696  0.000976  -0.324792  -0.553899  0.000162  2.112548  0.001
O  O156  1  0.58602506  0.54744392  0.35279743  1  -1.148019  -0.065258  -0.307582  -0.539853  -0.038883  2.288772  -0.06
O  O157  1  0.91408503  0.19457533  0.64721693  1  -1.147115  -0.065188  -0.307646  -0.539859  -0.038816  2.287651  -0.06
O  O158  1  0.41397475  0.45255576  0.64720390  1  -1.147975  0.065262  -0.307502  -0.53975  0.038885  2.288793  0.06
O  O159  1  0.08591794  0.80542536  0.35278381  1  -1.147078  0.065181  -0.307597  -0.539855  0.038812  2.287691  0.06
O  O160  1  0.13495319  0.32722924  0.78746408  1  -1.221796  -0.047882  -0.57137  -0.746511  -0.028951  2.09149  -0.042
O  O161  1  0.36519745  0.53983149  0.21251018  1  -1.222791  -0.047987  -0.571127  -0.746049  -0.028907  2.092005  -0.042
O  O162  1  0.86504673  0.67276771  0.21253533  1  -1.221742  0.047881  -0.571351  -0.746475  0.02895  2.091434  0.042
O  O163  1  0.63480328  0.46016949  0.78749084  1  -1.222793  0.047988  -0.571128  -0.746019  0.028908  2.092005  0.042
O  O164  1  0.95165532  0.99755434  0.67994031  1  -1.147473  -0.08913  -0.317413  -0.570913  -0.052363  2.343907  -0.082
O  O165  1  0.54860143  0.31774260  0.32016399  1  -1.146259  -0.089123  -0.317993  -0.572448  -0.052351  2.342977  -0.082
O  O166  1  0.04834551  0.00244498  0.32005985  1  -1.147524  0.089128  -0.317401  -0.570948  0.052362  2.343923  0.082
O  O167  1  0.45139828  0.68225767  0.67983712  1  -1.146327  0.089122  -0.317991  -0.572442  0.052351  2.343029  0.082
O  O168  1  0.74674680  0.57319283  0.28404860  1  -1.19501  0.001499  -0.31179  -0.563102  0.001171  2.227286  0.001
O  O169  1  0.75304354  0.28887819  0.71586484  1  -1.1973  0.001479  -0.312441  -0.56342  0.001163  2.22668  0.001
O  O170  1  0.25324722  0.42680580  0.71595007  1  -1.194947  -0.001499  -0.311786  -0.563069  -0.001171  2.227344  -0.001
O  O171  1  0.24696004  0.71112718  0.28413654  1  -1.197301  -0.001478  -0.312407  -0.563405  -0.001162  2.226693  -0.001
