# generated using pymatgen
data_CdH20C18(N2O3)2
_symmetry_space_group_name_H-M   'P 1'
_cell_length_a   8.96361488
_cell_length_b   9.79473144
_cell_length_c   10.95023971
_cell_angle_alpha   99.26648818
_cell_angle_beta   89.01476304
_cell_angle_gamma   102.31074191
_symmetry_Int_Tables_number   1
_chemical_formula_structural   CdH20C18(N2O3)2
_chemical_formula_sum   'Cd2 H40 C36 N8 O12'
_cell_volume   926.87887174
_cell_formula_units_Z   2
loop_
 _symmetry_equiv_pos_site_id
 _symmetry_equiv_pos_as_xyz
  1  'x, y, z'
loop_
 _atom_site_type_symbol
 _atom_site_label
 _atom_site_symmetry_multiplicity
 _atom_site_fract_x
 _atom_site_fract_y
 _atom_site_fract_z
 _atom_site_occupancy
 _atom_site_hle17_bader_spin_density
 _atom_site_hle17_ddec_charge
 _atom_site_hle17_ddec_spin_density
 _atom_site_hle17_ddec_sum_bond_order
 _atom_site_hle17_magmom
 _atom_site_hse06_10hf_bader_spin_density
 _atom_site_hse06_10hf_ddec_charge
 _atom_site_hse06_10hf_ddec_spin_density
 _atom_site_hse06_10hf_ddec_sum_bond_order
 _atom_site_hse06_10hf_magmom
 _atom_site_hse06_bader_spin_density
 _atom_site_hse06_ddec_charge
 _atom_site_hse06_ddec_spin_density
 _atom_site_hse06_ddec_sum_bond_order
 _atom_site_hse06_magmom
 _atom_site_pbe_bader_spin_density
 _atom_site_pbe_cm5_charge
 _atom_site_pbe_ddec_charge
 _atom_site_pbe_ddec_spin_density
 _atom_site_pbe_ddec_sum_bond_order
 _atom_site_pbe_magmom
Cd  Cd0  1  0.65303791  0.68572049  0.06089022  1  0  1.113943  0  1.704462  0  0  0.910523  0  2.165766  0  0  0.970615  0  2.110656  0  0  0.771767  0.867816  0  2.203314  0
Cd  Cd1  1  0.34696067  0.31427829  0.93910953  1  0  1.113937  0  1.704502  0  0  0.910525  0  2.165815  0  0  0.970618  0  2.110704  0  0  0.771775  0.867819  0  2.203363  0
H  H2  1  0.14967729  0.06071930  0.61768087  1  0  0.349157  0  0.894095  0  0  0.328368  0  0.960835  0  0  0.337208  0  0.953569  0  0  0.300315  0.321989  0  0.966189  0
H  H3  1  0.85032468  0.93928483  0.38231692  1  0  0.349106  0  0.894114  0  0  0.32832  0  0.960852  0  0  0.337161  0  0.953585  0  0  0.300315  0.321942  0  0.966203  0
H  H4  1  0.15996177  0.88915026  0.54318013  1  0  0.336382  0  0.930849  0  0  0.315255  0  0.999372  0  0  0.323535  0  0.992719  0  0  0.297589  0.309301  0  1.004266  0
H  H5  1  0.84004108  0.11085282  0.45681841  1  0  0.336358  0  0.930853  0  0  0.315234  0  0.999375  0  0  0.323514  0  0.992722  0  0  0.297601  0.309281  0  1.004268  0
H  H6  1  0.16164045  0.27558148  0.53043900  1  0  0.335474  0  0.933398  0  0  0.316627  0  0.995532  0  0  0.326393  0  0.986936  0  0  0.294354  0.30969  0  1.001693  0
H  H7  1  0.83836371  0.72442265  0.46956243  1  0  0.335466  0  0.933407  0  0  0.316611  0  0.995553  0  0  0.326377  0  0.986954  0  0  0.294326  0.309673  0  1.001716  0
H  H8  1  0.17376593  0.37660497  0.68034370  1  0  0.343243  0  0.924067  0  0  0.321453  0  0.991664  0  0  0.330497  0  0.984196  0  0  0.295206  0.315028  0  0.997055  0
H  H9  1  0.82623556  0.62339702  0.31965651  1  0  0.343182  0  0.924086  0  0  0.321382  0  0.991707  0  0  0.330427  0  0.984239  0  0  0.295186  0.314958  0  0.997098  0
H  H10  1  0.40420211  0.87588072  0.05074218  1  0  0.090699  0  0.942666  0  0  0.098765  0  1.008324  0  0  0.10163  0  1.00551  0  0  0.121138  0.096511  0  1.010612  0
H  H11  1  0.59579515  0.12411701  0.94925469  1  0  0.090755  0  0.942604  0  0  0.098796  0  1.008285  0  0  0.101659  0  1.005468  0  0  0.121149  0.096543  0  1.010572  0
H  H12  1  0.26464709  0.02986545  0.19204990  1  0  0.126387  0  0.939984  0  0  0.134006  0  1.003208  0  0  0.137788  0  1.00128  0  0  0.11613  0.131475  0  1.004361  0
H  H13  1  0.73535240  0.97013231  0.80794786  1  0  0.126382  0  0.939975  0  0  0.133994  0  1.003214  0  0  0.137774  0  1.001292  0  0  0.116135  0.131464  0  1.004366  0
H  H14  1  0.40219521  0.84439906  0.49381893  1  0  0.11307  0  0.952576  0  0  0.123547  0  1.013014  0  0  0.126511  0  1.012365  0  0  0.113503  0.121434  0  1.013527  0
H  H15  1  0.59780764  0.15560402  0.50617961  1  0  0.113132  0  0.95259  0  0  0.123595  0  1.013034  0  0  0.126556  0  1.012388  0  0  0.113521  0.121483  0  1.013546  0
H  H16  1  0.54241460  0.70401417  0.34001656  1  0  0.088311  0  0.931606  0  0  0.09857  0  0.989288  0  0  0.101218  0  0.987588  0  0  0.118892  0.096565  0  0.990637  0
H  H17  1  0.45758605  0.29598891  0.65997925  1  0  0.088312  0  0.931548  0  0  0.098574  0  0.989221  0  0  0.101222  0  0.987516  0  0  0.118892  0.096568  0  0.990572  0
H  H18  1  0.84685629  0.44304933  0.00363518  1  0  0.073255  0  0.964204  0  0  0.080743  0  1.032815  0  0  0.082599  0  1.031808  0  0  0.114131  0.079431  0  1.033527  0
H  H19  1  0.15314629  0.55694738  0.99636607  1  0  0.073257  0  0.964151  0  0  0.080743  0  1.032791  0  0  0.0826  0  1.031782  0  0  0.114128  0.079428  0  1.033502  0
H  H20  1  0.97667565  0.31633310  0.82949911  1  0  0.123758  0  0.949948  0  0  0.131508  0  1.012746  0  0  0.135069  0  1.011848  0  0  0.111848  0.128974  0  1.013225  0
H  H21  1  0.02332670  0.68366255  0.17050198  1  0  0.123802  0  0.949983  0  0  0.131524  0  1.012817  0  0  0.135084  0  1.011919  0  0  0.111858  0.128996  0  1.013277  0
H  H22  1  0.80369566  0.55508562  0.58647782  1  0  0.117341  0  0.961385  0  0  0.126458  0  1.022332  0  0  0.129875  0  1.021019  0  0  0.114926  0.123888  0  1.023597  0
H  H23  1  0.19630536  0.44491424  0.41352299  1  0  0.117334  0  0.96144  0  0  0.126459  0  1.022388  0  0  0.129874  0  1.021079  0  0  0.114929  0.123892  0  1.02365  0
H  H24  1  0.69859280  0.68455893  0.77215587  1  0  0.085969  0  0.942038  0  0  0.09385  0  1.007201  0  0  0.096366  0  1.005197  0  0  0.120652  0.091749  0  1.008998  0
H  H25  1  0.30140617  0.31543665  0.22784706  1  0  0.085944  0  0.942091  0  0  0.093827  0  1.007251  0  0  0.096343  0  1.005246  0  0  0.120647  0.091726  0  1.009048  0
H  H26  1  0.03649271  0.11392643  0.10556802  1  0  0.108361  0  0.958094  0  0  0.121157  0  1.022466  0  0  0.123252  0  1.022234  0  0  0.097192  0.119597  0  1.022946  0
H  H27  1  0.96350338  0.88607125  0.89443250  1  0  0.10835  0  0.958113  0  0  0.121148  0  1.022477  0  0  0.123242  0  1.022245  0  0  0.097179  0.119588  0  1.022957  0
H  H28  1  0.98486897  0.11523690  0.26195972  1  0  0.093732  0  0.942225  0  0  0.1086  0  1.004392  0  0  0.110938  0  1.003472  0  0  0.091831  0.106882  0  1.005263  0
H  H29  1  0.01513006  0.88476401  0.73803944  1  0  0.093713  0  0.942177  0  0  0.108601  0  1.004332  0  0  0.110938  0  1.003412  0  0  0.091847  0.106883  0  1.005204  0
H  H30  1  0.82412192  0.21652354  0.05984397  1  0  0.055352  0  0.948243  0  0  0.074403  0  1.010928  0  0  0.074759  0  1.011615  0  0  0.084141  0.074038  0  1.010546  0
H  H31  1  0.17587663  0.78347522  0.94015761  1  0  0.055365  0  0.948286  0  0  0.074403  0  1.01096  0  0  0.074762  0  1.011647  0  0  0.084141  0.07404  0  1.010571  0
H  H32  1  0.91353622  0.31606165  0.19836090  1  0  0.054482  0  0.96794  0  0  0.073207  0  1.032757  0  0  0.072639  0  1.036166  0  0  0.08168  0.073574  0  1.030153  0
H  H33  1  0.08646255  0.68393816  0.80164084  1  0  0.05447  0  0.967955  0  0  0.073201  0  1.032746  0  0  0.072636  0  1.036154  0  0  0.081681  0.073567  0  1.030142  0
H  H34  1  0.60258442  0.11772419  0.16064451  1  0  0.056583  0  0.96708  0  0  0.073254  0  1.033981  0  0  0.07382  0  1.034915  0  0  0.083584  0.072747  0  1.033405  0
H  H35  1  0.39741412  0.88227456  0.83935798  1  0  0.056576  0  0.967082  0  0  0.073261  0  1.033969  0  0  0.073826  0  1.034902  0  0  0.08357  0.07275  0  1.033404  0
H  H36  1  0.69927800  0.12839602  0.30103452  1  0  0.06023  0  0.954687  0  0  0.080186  0  1.016786  0  0  0.080987  0  1.017574  0  0  0.086226  0.079389  0  1.016408  0
H  H37  1  0.30071901  0.87160590  0.69896571  1  0  0.060235  0  0.95473  0  0  0.080178  0  1.016848  0  0  0.08098  0  1.017635  0  0  0.086213  0.079384  0  1.016466  0
H  H38  1  0.71967233  0.38544364  0.34962273  1  0  0.104934  0  0.954697  0  0  0.115533  0  1.020774  0  0  0.118567  0  1.019209  0  0  0.092306  0.113302  0  1.022192  0
H  H39  1  0.28032759  0.61455622  0.65037627  1  0  0.10493  0  0.954686  0  0  0.115515  0  1.020772  0  0  0.118549  0  1.019206  0  0  0.092287  0.113285  0  1.022191  0
H  H40  1  0.52670377  0.29560780  0.32082235  1  0  0.105147  0  0.933473  0  0  0.118773  0  0.996186  0  0  0.121308  0  0.99484  0  0  0.097677  0.117077  0  0.997172  0
H  H41  1  0.47329437  0.70439414  0.67917697  1  0  0.10515  0  0.933441  0  0  0.118768  0  0.996158  0  0  0.121303  0  0.994811  0  0  0.09767  0.117075  0  0.997144  0
C  C42  1  0.40083238  0.87294550  0.14984256  1  0  0.129915  0  3.689087  0  0  0.097351  0  3.947123  0  0  0.104077  0  3.964655  0  0  0.051178  0.09336  0  3.934454  0
C  C43  1  0.59916646  0.12705438  0.85015370  1  0  0.129897  0  3.689186  0  0  0.097374  0  3.947192  0  0  0.104105  0  3.96472  0  0  0.051201  0.093383  0  3.934523  0
C  C44  1  0.32261333  0.95799998  0.22915894  1  0  -0.115038  0  3.675046  0  0  -0.137751  0  3.924565  0  0  -0.142608  0  3.943414  0  0  -0.06896  -0.134115  0  3.910629  0
C  C45  1  0.67738526  0.04199881  0.77083899  1  0  -0.115003  0  3.674981  0  0  -0.137737  0  3.924516  0  0  -0.142595  0  3.943364  0  0  -0.068962  -0.134102  0  3.910582  0
C  C46  1  0.32234653  0.94973320  0.35549228  1  0  -0.00771  0  3.727741  0  0  0.012271  0  3.958028  0  0  0.010612  0  3.978782  0  0  0.007909  0.013258  0  3.943651  0
C  C47  1  0.67765611  0.05026883  0.64450519  1  0  -0.007743  0  3.727641  0  0  0.012253  0  3.957915  0  0  0.010591  0  3.978666  0  0  0.007899  0.013243  0  3.943534  0
C  C48  1  0.39955356  0.85517777  0.39661174  1  0  -0.130573  0  3.716936  0  0  -0.154878  0  3.969729  0  0  -0.160038  0  3.990917  0  0  -0.078481  -0.15141  0  3.955451  0
C  C49  1  0.60045065  0.14482639  0.60338604  1  0  -0.130667  0  3.717101  0  0  -0.154978  0  3.969921  0  0  -0.160136  0  3.991107  0  0  -0.078518  -0.151509  0  3.955643  0
C  C50  1  0.47736968  0.77604841  0.31136245  1  0  0.12987  0  3.701145  0  0  0.098483  0  3.957925  0  0  0.104724  0  3.976852  0  0  0.046554  0.094282  0  3.94468  0
C  C51  1  0.52263006  0.22395043  0.68863365  1  0  0.12994  0  3.70101  0  0  0.098567  0  3.957785  0  0  0.104811  0  3.976708  0  0  0.046603  0.094366  0  3.944541  0
C  C52  1  0.25242780  0.04924164  0.44602010  1  0  0.60463  0  3.856163  0  0  0.557817  0  4.142746  0  0  0.587148  0  4.141238  0  0  0.243264  0.538234  0  4.142645  0
C  C53  1  0.74757373  0.95076038  0.55397738  1  0  0.604549  0  3.856416  0  0  0.557734  0  4.142992  0  0  0.587076  0  4.14147  0  0  0.243207  0.53815  0  4.142894  0
C  C54  1  0.84407353  0.46748960  0.91028209  1  0  0.130907  0  3.722907  0  0  0.099383  0  3.978374  0  0  0.106423  0  3.996977  0  0  0.046725  0.094394  0  3.966154  0
C  C55  1  0.15592860  0.53250500  0.08971884  1  0  0.130715  0  3.723042  0  0  0.099182  0  3.978501  0  0  0.106223  0  3.997105  0  0  0.046611  0.094197  0  3.966276  0
C  C56  1  0.91466458  0.39652611  0.81323225  1  0  -0.142792  0  3.694018  0  0  -0.163513  0  3.943994  0  0  -0.169683  0  3.964759  0  0  -0.078949  -0.159364  0  3.929489  0
C  C57  1  0.08534046  0.60347169  0.18676913  1  0  -0.142879  0  3.694082  0  0  -0.163591  0  3.944054  0  0  -0.169762  0  3.96482  0  0  -0.078974  -0.15944  0  3.929549  0
C  C58  1  0.90105380  0.42790611  0.69428622  1  0  0.009789  0  3.718577  0  0  0.027106  0  3.953022  0  0  0.026764  0  3.972393  0  0  0.014267  0.02745  0  3.939957  0
C  C59  1  0.09894476  0.57209266  0.30571445  1  0  0.00985  0  3.718505  0  0  0.027214  0  3.952922  0  0  0.026873  0  3.972291  0  0  0.014281  0.027555  0  3.939859  0
C  C60  1  0.81815639  0.52965436  0.67798960  1  0  -0.113786  0  3.678815  0  0  -0.136465  0  3.926623  0  0  -0.141041  0  3.944909  0  0  -0.070072  -0.133616  0  3.914499  0
C  C61  1  0.18184190  0.47034332  0.32201364  1  0  -0.113774  0  3.678762  0  0  -0.136483  0  3.92657  0  0  -0.141059  0  3.944855  0  0  -0.070067  -0.133637  0  3.914444  0
C  C62  1  0.75775810  0.60018950  0.78087020  1  0  0.136335  0  3.686278  0  0  0.105498  0  3.938838  0  0  0.112009  0  3.957374  0  0  0.051441  0.101491  0  3.925908  0
C  C63  1  0.24224267  0.39980928  0.21913228  1  0  0.136287  0  3.686337  0  0  0.105459  0  3.938903  0  0  0.111972  0  3.95744  0  0  0.051411  0.101453  0  3.925972  0
C  C64  1  0.96915215  0.35131777  0.58466077  1  0  0.602703  0  3.858221  0  0  0.552841  0  4.148933  0  0  0.581741  0  4.147624  0  0  0.242035  0.533296  0  4.149254  0
C  C65  1  0.03085002  0.64868213  0.41533821  1  0  0.602682  0  3.8583  0  0  0.552768  0  4.149071  0  0  0.581663  0  4.147772  0  0  0.242007  0.533222  0  4.149394  0
C  C66  1  0.84891984  0.94967468  0.13253802  1  0  0.689947  0  3.849241  0  0  0.647464  0  4.140248  0  0  0.680603  0  4.135396  0  0  0.193717  0.625063  0  4.142441  0
C  C67  1  0.15107913  0.05032617  0.86746660  1  0  0.689631  0  3.849617  0  0  0.647272  0  4.14046  0  0  0.680408  0  4.135614  0  0  0.193635  0.624871  0  4.142649  0
C  C68  1  0.93816177  0.10091996  0.16756473  1  0  -0.270746  0  3.671415  0  0  -0.306769  0  3.920281  0  0  -0.313081  0  3.928748  0  0  -0.173043  -0.302294  0  3.914563  0
C  C69  1  0.06183812  0.89907987  0.83243700  1  0  -0.270571  0  3.671355  0  0  -0.306655  0  3.92017  0  0  -0.312959  0  3.928638  0  0  -0.173017  -0.30218  0  3.914451  0
C  C70  1  0.84420057  0.21237354  0.15788631  1  0  -0.07574  0  3.663134  0  0  -0.115617  0  3.919577  0  0  -0.115644  0  3.933882  0  0  -0.169748  -0.115677  0  3.909837  0
C  C71  1  0.15579487  0.78762624  0.84211362  1  0  -0.075865  0  3.663304  0  0  -0.115687  0  3.919686  0  0  -0.115723  0  3.933999  0  0  -0.169812  -0.115743  0  3.909939  0
C  C72  1  0.69085992  0.18628487  0.22427705  1  0  -0.07876  0  3.669516  0  0  -0.118399  0  3.924473  0  0  -0.118948  0  3.938541  0  0  -0.170544  -0.117867  0  3.915067  0
C  C73  1  0.30913777  0.81371495  0.77572196  1  0  -0.078698  0  3.66957  0  0  -0.118364  0  3.924517  0  0  -0.118911  0  3.938584  0  0  -0.170474  -0.117833  0  3.91511  0
C  C74  1  0.63893883  0.32239190  0.27734783  1  0  -0.279447  0  3.676114  0  0  -0.31489  0  3.925549  0  0  -0.321225  0  3.932657  0  0  -0.172755  -0.310593  0  3.920627  0
C  C75  1  0.36105996  0.67760794  0.72265208  1  0  -0.279472  0  3.676033  0  0  -0.314865  0  3.925462  0  0  -0.321197  0  3.932566  0  0  -0.17275  -0.310574  0  3.920545  0
C  C76  1  0.62064865  0.40996084  0.17846820  1  0  0.717575  0  3.836072  0  0  0.666973  0  4.137718  0  0  0.701784  0  4.129573  0  0  0.210971  0.643701  0  4.141146  0
C  C77  1  0.37935127  0.59003902  0.82153170  1  0  0.717669  0  3.835949  0  0  0.667015  0  4.137671  0  0  0.701826  0  4.129522  0  0  0.210969  0.643747  0  4.141097  0
N  N78  1  0.47848944  0.78485121  0.19022915  1  0  -0.325377  0  3.252453  0  0  -0.248852  0  3.517688  0  0  -0.268259  0  3.537711  0  0  -0.326131  -0.235072  0  3.502724  0
N  N79  1  0.52151051  0.21514867  0.80976802  1  0  -0.325464  0  3.252354  0  0  -0.248953  0  3.517587  0  0  -0.26836  0  3.537608  0  0  -0.32619  -0.235171  0  3.502623  0
N  N80  1  0.18257801  0.99666404  0.54257135  1  0  -0.681047  0  3.118168  0  0  -0.64365  0  3.356954  0  0  -0.667387  0  3.352467  0  0  -0.562069  -0.627611  0  3.359186  0
N  N81  1  0.81742596  0.00333905  0.45742810  1  0  -0.680926  0  3.118213  0  0  -0.643532  0  3.356998  0  0  -0.667273  0  3.352508  0  0  -0.562089  -0.627492  0  3.359225  0
N  N82  1  0.76930963  0.56898710  0.89536558  1  0  -0.341068  0  3.264227  0  0  -0.260556  0  3.530116  0  0  -0.28048  0  3.548275  0  0  -0.328736  -0.24726  0  3.517832  0
N  N83  1  0.23069137  0.43100748  0.10463535  1  0  -0.340837  0  3.2645  0  0  -0.26032  0  3.530363  0  0  -0.280246  0  3.548526  0  0  -0.328605  -0.247027  0  3.518078  0
N  N84  1  0.11046891  0.33369499  0.60021498  1  0  -0.670488  0  3.113296  0  0  -0.631183  0  3.350174  0  0  -0.654277  0  3.342726  0  0  -0.562566  -0.615272  0  3.355488  0
N  N85  1  0.88953347  0.66630595  0.39978507  1  0  -0.670394  0  3.11328  0  0  -0.631055  0  3.350166  0  0  -0.654149  0  3.342726  0  0  -0.562496  -0.615143  0  3.355477  0
O  O86  1  0.26860061  0.17552244  0.42946089  1  0  -0.582897  0  1.908981  0  0  -0.531607  0  2.119232  0  0  -0.554439  0  2.112798  0  0  -0.300814  -0.515729  0  2.123226  0
O  O87  1  0.73140225  0.82448064  0.57053765  1  0  -0.582858  0  1.909077  0  0  -0.531556  0  2.119312  0  0  -0.554389  0  2.112869  0  0  -0.300745  -0.515679  0  2.123311  0
O  O88  1  0.89129583  0.30659525  0.48642790  1  0  -0.594838  0  1.92574  0  0  -0.54109  0  2.147407  0  0  -0.563732  0  2.142303  0  0  -0.306768  -0.525138  0  2.150684  0
O  O89  1  0.10870432  0.69340567  0.51357125  1  0  -0.59488  0  1.925806  0  0  -0.541119  0  2.147497  0  0  -0.563758  0  2.142398  0  0  -0.306782  -0.525165  0  2.150773  0
O  O90  1  0.85586148  0.85959115  0.20340077  1  0  -0.675081  0  1.927841  0  0  -0.613982  0  2.16076  0  0  -0.641286  0  2.152076  0  0  -0.341672  -0.595071  0  2.165605  0
O  O91  1  0.14413542  0.14041068  0.79660768  1  0  -0.674931  0  1.927979  0  0  -0.613885  0  2.160851  0  0  -0.641195  0  2.152171  0  0  -0.341639  -0.594975  0  2.165694  0
O  O92  1  0.76863102  0.91667489  0.03212604  1  0  -0.654396  0  1.922791  0  0  -0.583372  0  2.157523  0  0  -0.613528  0  2.149002  0  0  -0.338017  -0.562633  0  2.162802  0
O  O93  1  0.23137356  0.08332079  0.96787503  1  0  -0.654274  0  1.922875  0  0  -0.583301  0  2.157567  0  0  -0.613458  0  2.149048  0  0  -0.337965  -0.562561  0  2.162847  0
O  O94  1  0.54828307  0.34926269  0.08000258  1  0  -0.674581  0  2.056924  0  0  -0.612877  0  2.336848  0  0  -0.64129  0  2.323636  0  0  -0.336426  -0.592782  0  2.344784  0
O  O95  1  0.45171756  0.65074037  0.91999506  1  0  -0.674625  0  2.056913  0  0  -0.612898  0  2.33685  0  0  -0.641313  0  2.32364  0  0  -0.336421  -0.5928  0  2.344777  0
O  O96  1  0.68237743  0.54314064  0.19976405  1  0  -0.673091  0  2.047539  0  0  -0.594502  0  2.302132  0  0  -0.624489  0  2.289626  0  0  -0.327378  -0.57347  0  2.308732  0
O  O97  1  0.31762024  0.45685917  0.80023678  1  0  -0.673141  0  2.047514  0  0  -0.594541  0  2.302123  0  0  -0.624528  0  2.289613  0  0  -0.327385  -0.573512  0  2.308727  0
