# generated using pymatgen
data_CdH12C15S(N2O3)2
_symmetry_space_group_name_H-M   'P 1'
_cell_length_a   7.65157448
_cell_length_b   8.14580939
_cell_length_c   13.96739081
_cell_angle_alpha   92.77961251
_cell_angle_beta   98.96291873
_cell_angle_gamma   91.10811036
_symmetry_Int_Tables_number   1
_chemical_formula_structural   CdH12C15S(N2O3)2
_chemical_formula_sum   'Cd2 H24 C30 S2 N8 O12'
_cell_volume   858.60223446
_cell_formula_units_Z   2
loop_
 _symmetry_equiv_pos_site_id
 _symmetry_equiv_pos_as_xyz
  1  'x, y, z'
loop_
 _atom_site_type_symbol
 _atom_site_label
 _atom_site_symmetry_multiplicity
 _atom_site_fract_x
 _atom_site_fract_y
 _atom_site_fract_z
 _atom_site_occupancy
 _atom_site_hle17_bader_spin_density
 _atom_site_hle17_ddec_charge
 _atom_site_hle17_ddec_spin_density
 _atom_site_hle17_ddec_sum_bond_order
 _atom_site_hle17_magmom
 _atom_site_hse06_10hf_bader_spin_density
 _atom_site_hse06_10hf_ddec_charge
 _atom_site_hse06_10hf_ddec_spin_density
 _atom_site_hse06_10hf_ddec_sum_bond_order
 _atom_site_hse06_10hf_magmom
 _atom_site_hse06_bader_spin_density
 _atom_site_hse06_ddec_charge
 _atom_site_hse06_ddec_spin_density
 _atom_site_hse06_ddec_sum_bond_order
 _atom_site_hse06_magmom
 _atom_site_pbe_bader_spin_density
 _atom_site_pbe_cm5_charge
 _atom_site_pbe_ddec_charge
 _atom_site_pbe_ddec_spin_density
 _atom_site_pbe_ddec_sum_bond_order
 _atom_site_pbe_magmom
Cd  Cd0  1  0.68087849  0.71459346  0.80593386  1  0  0.924954  0  1.874249  0  0  0.727616  0  2.328535  0  0  0.780893  0  2.284201  0  0  0.730497  0.689948  0  2.35882  0
Cd  Cd1  1  0.31912060  0.28540527  0.19406842  1  0  0.924947  0  1.874232  0  0  0.727608  0  2.328541  0  0  0.780884  0  2.284206  0  0  0.73048  0.689937  0  2.358829  0
H  H2  1  0.82602415  0.35964255  0.72731908  1  0  0.106563  0  0.957058  0  0  0.121232  0  1.017871  0  0  0.122707  0  1.017085  0  0  0.100997  0.120151  0  1.018473  0
H  H3  1  0.17397883  0.64035370  0.27268131  1  0  0.10654  0  0.957056  0  0  0.121226  0  1.017883  0  0  0.122701  0  1.017089  0  0  0.100999  0.120143  0  1.018485  0
H  H4  1  0.72559025  0.16892268  0.75520735  1  0  0.132286  0  0.930448  0  0  0.146526  0  0.989756  0  0  0.148592  0  0.988191  0  0  0.10878  0.144942  0  0.991086  0
H  H5  1  0.27441273  0.83107356  0.24479233  1  0  0.132268  0  0.930448  0  0  0.146538  0  0.989747  0  0  0.148586  0  0.988203  0  0  0.108776  0.144961  0  0.991064  0
H  H6  1  0.95688858  0.12768880  0.09599664  1  0  0.080789  0  0.970342  0  0  0.082914  0  1.043555  0  0  0.085338  0  1.041429  0  0  0.111914  0.081091  0  1.045136  0
H  H7  1  0.04310900  0.87230376  0.90400249  1  0  0.080731  0  0.970281  0  0  0.082818  0  1.043563  0  0  0.085241  0  1.041437  0  0  0.111864  0.080999  0  1.045138  0
H  H8  1  0.31214227  0.42835977  0.98350630  1  0  0.072692  0  0.94199  0  0  0.080739  0  1.01071  0  0  0.082765  0  1.008713  0  0  0.111438  0.079224  0  1.012213  0
H  H9  1  0.68785935  0.57163526  0.01649466  1  0  0.072704  0  0.941996  0  0  0.080735  0  1.010736  0  0  0.082762  0  1.008739  0  0  0.111457  0.07922  0  1.012239  0
H  H10  1  0.55916443  0.88424458  0.61106452  1  0  0.071824  0  0.936922  0  0  0.080646  0  1.002935  0  0  0.082996  0  1.000054  0  0  0.115402  0.07892  0  1.00497  0
H  H11  1  0.44083224  0.11576155  0.38893988  1  0  0.071823  0  0.936913  0  0  0.080668  0  1.002901  0  0  0.083016  0  1.000028  0  0  0.115406  0.078953  0  1.004905  0
H  H12  1  0.33678847  0.14804331  0.74122573  1  0  0.113221  0  0.976722  0  0  0.114292  0  1.05217  0  0  0.118299  0  1.048492  0  0  0.105401  0.111311  0  1.05487  0
H  H13  1  0.66321053  0.85195291  0.25877075  1  0  0.113312  0  0.976642  0  0  0.114291  0  1.052192  0  0  0.118296  0  1.048517  0  0  0.105379  0.11131  0  1.054892  0
H  H14  1  0.73986150  0.12893380  0.94572589  1  0  0.121632  0  0.962812  0  0  0.123765  0  1.034669  0  0  0.127527  0  1.032855  0  0  0.106591  0.121062  0  1.036043  0
H  H15  1  0.26013891  0.87106490  0.05427220  1  0  0.121697  0  0.962844  0  0  0.123836  0  1.034659  0  0  0.12759  0  1.032881  0  0  0.106603  0.121134  0  1.036034  0
H  H16  1  0.16482368  0.58973164  0.41813831  1  0  0.099158  0  0.955982  0  0  0.110001  0  1.019566  0  0  0.112452  0  1.01781  0  0  0.108299  0.108183  0  1.020881  0
H  H17  1  0.83517583  0.41028061  0.58186435  1  0  0.099171  0  0.95599  0  0  0.110006  0  1.019588  0  0  0.112486  0  1.017791  0  0  0.108289  0.108191  0  1.020895  0
H  H18  1  0.10425926  0.44645223  0.82804971  1  0  0.120501  0  0.951125  0  0  0.129688  0  1.011645  0  0  0.132761  0  1.011176  0  0  0.107063  0.127471  0  1.01214  0
H  H19  1  0.89574243  0.55354524  0.17195061  1  0  0.120493  0  0.951074  0  0  0.1297  0  1.011568  0  0  0.132775  0  1.011095  0  0  0.107067  0.127483  0  1.012062  0
H  H20  1  0.11577284  0.10456884  0.59213087  1  0  0.107819  0  0.95045  0  0  0.116275  0  1.00944  0  0  0.120157  0  1.007296  0  0  0.104481  0.113471  0  1.011098  0
H  H21  1  0.88422109  0.89543476  0.40786464  1  0  0.107838  0  0.950372  0  0  0.116271  0  1.009401  0  0  0.120151  0  1.00726  0  0  0.104468  0.113467  0  1.011059  0
H  H22  1  0.07819099  0.32136275  0.46969304  1  0  0.100286  0  0.981339  0  0  0.106907  0  1.049518  0  0  0.109166  0  1.049136  0  0  0.103298  0.105196  0  1.049954  0
H  H23  1  0.92180049  0.67864703  0.53030601  1  0  0.100315  0  0.981292  0  0  0.106919  0  1.049501  0  0  0.109179  0  1.049118  0  0  0.103274  0.1052  0  1.049945  0
H  H24  1  0.34651929  0.85369823  0.45425192  1  0  0.102615  0  0.941881  0  0  0.117221  0  0.99437  0  0  0.119811  0  0.994688  0  0  0.109525  0.11532  0  0.994384  0
H  H25  1  0.65348406  0.14631032  0.54575024  1  0  0.102617  0  0.941909  0  0  0.117228  0  0.994387  0  0  0.119824  0  0.994691  0  0  0.10955  0.115338  0  0.99439  0
C  C26  1  0.77232307  0.29292530  0.78277217  1  0  -0.190983  0  3.598211  0  0  -0.235161  0  3.850076  0  0  -0.234645  0  3.858201  0  0  -0.137416  -0.235483  0  3.844622  0
C  C27  1  0.22767987  0.70706971  0.21722747  1  0  -0.190946  0  3.598127  0  0  -0.235218  0  3.850088  0  0  -0.234677  0  3.858195  0  0  -0.137432  -0.235533  0  3.844614  0
C  C28  1  0.98657395  0.19633790  0.03532063  1  0  0.13797  0  3.709681  0  0  0.105449  0  3.963711  0  0  0.113094  0  3.982512  0  0  0.043662  0.10051  0  3.950914  0
C  C29  1  0.01342767  0.80365711  0.96467890  1  0  0.138053  0  3.709513  0  0  0.105524  0  3.963567  0  0  0.113175  0  3.982368  0  0  0.043689  0.100585  0  3.950771  0
C  C30  1  0.90498160  0.28661894  0.87362899  1  0  0.156963  0  3.716492  0  0  0.175749  0  3.949176  0  0  0.179694  0  3.972011  0  0  0.008599  0.173343  0  3.933624  0
C  C31  1  0.09502127  0.71337360  0.12636916  1  0  0.157034  0  3.71631  0  0  0.175818  0  3.949024  0  0  0.179762  0  3.971852  0  0  0.008634  0.173408  0  3.933473  0
C  C32  1  0.18358225  0.36412903  0.97204960  1  0  0.143525  0  3.709286  0  0  0.107099  0  3.969034  0  0  0.11538  0  3.987819  0  0  0.046779  0.101703  0  3.95618  0
C  C33  1  0.81642069  0.63586598  0.02795005  1  0  0.143478  0  3.7095  0  0  0.107057  0  3.969228  0  0  0.115337  0  3.988017  0  0  0.046768  0.101662  0  3.956371  0
C  C34  1  0.47863592  0.77202733  0.59178845  1  0  0.168393  0  3.696  0  0  0.131557  0  3.955965  0  0  0.142547  0  3.971758  0  0  0.060387  0.124499  0  3.944983  0
C  C35  1  0.52136340  0.22797878  0.40821474  1  0  0.168392  0  3.695998  0  0  0.131551  0  3.95594  0  0  0.142535  0  3.971742  0  0  0.060375  0.124496  0  3.944965  0
C  C36  1  0.42702783  0.38381972  0.70555431  1  0  -0.055984  0  3.720096  0  0  -0.03469  0  3.970404  0  0  -0.040047  0  3.996512  0  0  -0.010257  -0.03143  0  3.952851  0
C  C37  1  0.57297518  0.61617772  0.29444253  1  0  -0.056039  0  3.720281  0  0  -0.034709  0  3.970574  0  0  -0.040069  0  3.996686  0  0  -0.01026  -0.031438  0  3.953007  0
C  C38  1  0.32203028  0.24158479  0.68754859  1  0  -0.057762  0  3.704402  0  0  -0.08217  0  3.955176  0  0  -0.080542  0  3.974624  0  0  -0.073644  -0.08279  0  3.941763  0
C  C39  1  0.67797004  0.75841143  0.31244728  1  0  -0.057917  0  3.704562  0  0  -0.082246  0  3.955334  0  0  -0.080613  0  3.974778  0  0  -0.073666  -0.082871  0  3.941924  0
C  C40  1  0.40568785  0.51189406  0.63840726  1  0  0.178023  0  3.765145  0  0  0.166384  0  4.002174  0  0  0.173475  0  4.025952  0  0  0.116065  0.161784  0  3.986101  0
C  C41  1  0.59431006  0.48810957  0.36159289  1  0  0.178084  0  3.76511  0  0  0.166337  0  4.002249  0  0  0.173427  0  4.026029  0  0  0.115978  0.161733  0  3.986176  0
C  C42  1  0.86503485  0.19689370  0.95064757  1  0  -0.152484  0  3.678972  0  0  -0.170823  0  3.928296  0  0  -0.178807  0  3.949207  0  0  -0.081653  -0.165746  0  3.914384  0
C  C43  1  0.13497074  0.80310131  0.04935229  1  0  -0.15259  0  3.679023  0  0  -0.170895  0  3.928302  0  0  -0.17889  0  3.949214  0  0  -0.08164  -0.165818  0  3.914394  0
C  C44  1  0.26004010  0.61062190  0.48447239  1  0  -0.028873  0  3.67833  0  0  -0.058164  0  3.932621  0  0  -0.053552  0  3.949502  0  0  -0.057501  -0.06084  0  3.921088  0
C  C45  1  0.73995532  0.38938666  0.51552910  1  0  -0.028864  0  3.678504  0  0  -0.058156  0  3.932747  0  0  -0.05356  0  3.949618  0  0  -0.057539  -0.06084  0  3.921233  0
C  C46  1  0.06811563  0.37210800  0.88513459  1  0  -0.151923  0  3.660739  0  0  -0.168847  0  3.904325  0  0  -0.177238  0  3.926544  0  0  -0.079705  -0.163451  0  3.889465  0
C  C47  1  0.93188727  0.62788577  0.11486359  1  0  -0.151903  0  3.660614  0  0  -0.168827  0  3.904188  0  0  -0.177216  0  3.926408  0  0  -0.079723  -0.16343  0  3.889329  0
C  C48  1  0.27922432  0.48517674  0.55159585  1  0  0.021502  0  3.775338  0  0  0.040175  0  4.006257  0  0  0.035604  0  4.030488  0  0  -0.001026  0.042855  0  3.990074  0
C  C49  1  0.72077110  0.51483183  0.44840564  1  0  0.021471  0  3.775439  0  0  0.040221  0  4.006291  0  0  0.035647  0  4.03053  0  0  -0.000919  0.0429  0  3.990109  0
C  C50  1  0.19659019  0.21765023  0.60228820  1  0  -0.063602  0  3.742202  0  0  -0.073117  0  3.987814  0  0  -0.078827  0  4.010588  0  0  -0.085535  -0.069411  0  3.972346  0
C  C51  1  0.80340250  0.78235584  0.39770870  1  0  -0.063491  0  3.742114  0  0  -0.07299  0  3.987683  0  0  -0.078702  0  4.010457  0  0  -0.085459  -0.069286  0  3.972213  0
C  C52  1  0.17643407  0.33701180  0.53512543  1  0  -0.092697  0  3.724961  0  0  -0.11602  0  3.974302  0  0  -0.116577  0  3.996968  0  0  -0.081953  -0.115272  0  3.958844  0
C  C53  1  0.82356003  0.66299675  0.46487452  1  0  -0.092761  0  3.724913  0  0  -0.116081  0  3.97421  0  0  -0.116638  0  3.996876  0  0  -0.081938  -0.115326  0  3.958756  0
C  C54  1  0.35938982  0.75443796  0.50420657  1  0  -0.115508  0  3.731473  0  0  -0.128715  0  3.986537  0  0  -0.137289  0  4.008166  0  0  -0.083214  -0.123265  0  3.971973  0
C  C55  1  0.64061089  0.24557061  0.49579681  1  0  -0.115537  0  3.731529  0  0  -0.12876  0  3.986618  0  0  -0.137336  0  4.00826  0  0  -0.083233  -0.123323  0  3.972057  0
S  S56  1  0.57864229  0.40083498  0.81559412  1  0  0.031213  0  2.531458  0  0  0.051957  0  2.891537  0  0  0.047031  0  2.890077  0  0  0.038331  0.055467  0  2.892688  0
S  S57  1  0.42135932  0.59916002  0.18440398  1  0  0.03121  0  2.53153  0  0  0.051984  0  2.89162  0  0  0.04706  0  2.89015  0  0  0.038329  0.055485  0  2.892766  0
N  N58  1  0.50161707  0.65603005  0.65585460  1  0  -0.36553  0  3.272414  0  0  -0.292488  0  3.538083  0  0  -0.31445  0  3.55796  0  0  -0.329985  -0.277624  0  3.52423  0
N  N59  1  0.49838350  0.34397359  0.34414721  1  0  -0.365539  0  3.27249  0  0  -0.292479  0  3.538202  0  0  -0.314437  0  3.558078  0  0  -0.329969  -0.277616  0  3.524352  0
N  N60  1  0.14301157  0.27886022  0.04617935  1  0  -0.337149  0  3.299813  0  0  -0.253009  0  3.564099  0  0  -0.275531  0  3.58586  0  0  -0.33972  -0.237676  0  3.548917  0
N  N61  1  0.85699134  0.72113358  0.95382169  1  0  -0.337151  0  3.299992  0  0  -0.253015  0  3.564296  0  0  -0.275529  0  3.586033  0  0  -0.339734  -0.237682  0  3.549113  0
N  N62  1  0.97518411  0.79139988  0.70385269  1  0  0.688562  0  4.134975  0  0  0.716907  0  4.434282  0  0  0.74548  0  4.439447  0  0  0.092146  0.697934  0  4.430205  0
N  N63  1  0.02481373  0.20860130  0.29614810  1  0  0.688697  0  4.134851  0  0  0.717011  0  4.434208  0  0  0.74558  0  4.439378  0  0  0.092118  0.698041  0  4.430134  0
N  N64  1  0.41290304  0.91538439  0.86939057  1  0  0.691387  0  4.117105  0  0  0.72319  0  4.409079  0  0  0.751858  0  4.415138  0  0  0.094599  0.714869  0  4.389112  0
N  N65  1  0.58709866  0.08461308  0.13060975  1  0  0.691007  0  4.117633  0  0  0.722929  0  4.409481  0  0  0.751598  0  4.415546  0  0  0.094599  0.714809  0  4.389283  0
O  O66  1  0.94976762  0.64080064  0.72163065  1  0  -0.492918  0  1.755747  0  0  -0.4771  0  1.987694  0  0  -0.493973  0  1.980128  0  0  -0.20632  -0.465318  0  1.992518  0
O  O67  1  0.05023291  0.35920175  0.27836969  1  0  -0.493007  0  1.755713  0  0  -0.477157  0  1.987668  0  0  -0.494028  0  1.980097  0  0  -0.20633  -0.465376  0  1.992494  0
O  O68  1  0.40461470  0.76419717  0.88762829  1  0  -0.468272  0  1.728747  0  0  -0.45547  0  1.945054  0  0  -0.472256  0  1.93934  0  0  -0.201932  -0.44736  0  1.944306  0
O  O69  1  0.59539498  0.23580157  0.11237631  1  0  -0.468154  0  1.728855  0  0  -0.455401  0  1.945138  0  0  -0.47219  0  1.939427  0  0  -0.201936  -0.447352  0  1.944309  0
O  O70  1  0.53792543  0.96345033  0.82321256  1  0  -0.498733  0  1.808594  0  0  -0.467127  0  2.043261  0  0  -0.487957  0  2.035723  0  0  -0.214641  -0.456072  0  2.043941  0
O  O71  1  0.46207366  0.03654837  0.17678685  1  0  -0.498624  0  1.808781  0  0  -0.46703  0  2.043396  0  0  -0.487853  0  2.035855  0  0  -0.214605  -0.456039  0  2.04401  0
O  O72  1  0.86783315  0.89782317  0.73097105  1  0  -0.485992  0  1.754717  0  0  -0.459609  0  1.979118  0  0  -0.478037  0  1.970667  0  0  -0.212264  -0.446792  0  1.984553  0
O  O73  1  0.13215931  0.10217553  0.26902637  1  0  -0.485968  0  1.754624  0  0  -0.459628  0  1.97909  0  0  -0.478057  0  1.970638  0  0  -0.21226  -0.446815  0  1.98453  0
O  O74  1  0.09812665  0.83415095  0.66097515  1  0  -0.411938  0  1.751407  0  0  -0.407437  0  1.956287  0  0  -0.419382  0  1.951711  0  0  -0.167537  -0.399227  0  1.959357  0
O  O75  1  0.90186994  0.16585268  0.33902489  1  0  -0.411993  0  1.751419  0  0  -0.407479  0  1.956314  0  0  -0.419403  0  1.951713  0  0  -0.167494  -0.39927  0  1.959387  0
O  O76  1  0.30686783  0.01699981  0.89394964  1  0  -0.401538  0  1.75367  0  0  -0.396308  0  1.958951  0  0  -0.408502  0  1.955052  0  0  -0.159938  -0.391469  0  1.956988  0
O  O77  1  0.69312712  0.98299395  0.10604643  1  0  -0.401391  0  1.753788  0  0  -0.396237  0  1.959073  0  0  -0.408433  0  1.955177  0  0  -0.159975  -0.391467  0  1.957038  0
