# generated using pymatgen
data_AgH6C5N7O2
_symmetry_space_group_name_H-M   'P 1'
_cell_length_a   7.56469879
_cell_length_b   9.40739624
_cell_length_c   13.08142449
_cell_angle_alpha   90.00008788
_cell_angle_beta   89.99952531
_cell_angle_gamma   99.86285694
_symmetry_Int_Tables_number   1
_chemical_formula_structural   AgH6C5N7O2
_chemical_formula_sum   'Ag4 H24 C20 N28 O8'
_cell_volume   917.16946805
_cell_formula_units_Z   4
loop_
 _symmetry_equiv_pos_site_id
 _symmetry_equiv_pos_as_xyz
  1  'x, y, z'
loop_
 _atom_site_type_symbol
 _atom_site_label
 _atom_site_symmetry_multiplicity
 _atom_site_fract_x
 _atom_site_fract_y
 _atom_site_fract_z
 _atom_site_occupancy
 _atom_site_hle17_bader_spin_density
 _atom_site_hle17_ddec_charge
 _atom_site_hle17_ddec_spin_density
 _atom_site_hle17_ddec_sum_bond_order
 _atom_site_hle17_magmom
 _atom_site_hse06_10hf_bader_spin_density
 _atom_site_hse06_10hf_ddec_charge
 _atom_site_hse06_10hf_ddec_spin_density
 _atom_site_hse06_10hf_ddec_sum_bond_order
 _atom_site_hse06_10hf_magmom
 _atom_site_hse06_bader_spin_density
 _atom_site_hse06_ddec_charge
 _atom_site_hse06_ddec_spin_density
 _atom_site_hse06_ddec_sum_bond_order
 _atom_site_hse06_magmom
 _atom_site_pbe_bader_spin_density
 _atom_site_pbe_cm5_charge
 _atom_site_pbe_ddec_charge
 _atom_site_pbe_ddec_spin_density
 _atom_site_pbe_ddec_sum_bond_order
 _atom_site_pbe_magmom
Ag  Ag0  1  0.32043037  0.65874677  0.00531094  1  0  0.495393  0  1.307893  0  0  0.331559  0  1.762716  0  0  0.381796  0  1.70091  0  0  0.35949  0.29551  0  1.806297  0
Ag  Ag1  1  0.67956639  0.34125131  0.50531203  1  0  0.495377  0  1.307914  0  0  0.331555  0  1.762722  0  0  0.381727  0  1.700888  0  0  0.359474  0.295509  0  1.806304  0
Ag  Ag2  1  0.44053994  0.24126507  0.70208240  1  0  0.458492  0  1.560378  0  0  0.29367  0  2.022257  0  0  0.320293  0  1.97817  0  0  0.453387  0.275101  0  2.053507  0
Ag  Ag3  1  0.55944981  0.75873200  0.20207646  1  0  0.458483  0  1.560395  0  0  0.293641  0  2.022274  0  0  0.320372  0  1.978169  0  0  0.453412  0.275086  0  2.053496  0
H  H4  1  0.02647333  0.16177106  0.33490698  1  0  0.111271  0  0.941256  0  0  0.113074  0  1.019335  0  0  0.114865  0  1.017114  0  0  0.137031  0.11185  0  1.02003  0
H  H5  1  0.97353216  0.83822805  0.83490567  1  0  0.111218  0  0.941258  0  0  0.113032  0  1.019341  0  0  0.114648  0  1.018214  0  0  0.13703  0.111811  0  1.020034  0
H  H6  1  0.92297850  0.32116194  0.34118558  1  0  0.106521  0  0.949273  0  0  0.110855  0  1.028624  0  0  0.113792  0  1.022826  0  0  0.131861  0.108309  0  1.032652  0
H  H7  1  0.07703267  0.67883929  0.84118152  1  0  0.106513  0  0.949289  0  0  0.110952  0  1.028541  0  0  0.113726  0  1.023784  0  0  0.131885  0.108408  0  1.032564  0
H  H8  1  0.45453463  0.34184814  0.08686884  1  0  0.101807  0  0.930731  0  0  0.108351  0  0.99563  0  0  0.110625  0  0.993464  0  0  0.135693  0.106715  0  0.997043  0
H  H9  1  0.54546434  0.65815317  0.58687398  1  0  0.101711  0  0.930695  0  0  0.108261  0  0.995598  0  0  0.11053  0  0.993448  0  0  0.135665  0.106624  0  0.997009  0
H  H10  1  0.05170269  0.53504609  0.22534031  1  0  0.115798  0  0.934855  0  0  0.123255  0  1.000143  0  0  0.126563  0  0.996061  0  0  0.142445  0.120859  0  1.002886  0
H  H11  1  0.94829933  0.46495412  0.72534024  1  0  0.115757  0  0.934848  0  0  0.123209  0  1.000145  0  0  0.12652  0  0.996015  0  0  0.142442  0.120811  0  1.002894  0
H  H12  1  0.22331625  0.51572166  0.63312652  1  0  0.087798  0  0.983242  0  0  0.08696  0  1.065137  0  0  0.089696  0  1.062041  0  0  0.126886  0.084584  0  1.067792  0
H  H13  1  0.77668993  0.48426771  0.13311999  1  0  0.087763  0  0.983232  0  0  0.086951  0  1.065098  0  0  0.089785  0  1.06188  0  0  0.126904  0.084575  0  1.067756  0
H  H14  1  0.27503270  0.14059795  0.46803331  1  0  0.119747  0  0.958522  0  0  0.122174  0  1.031872  0  0  0.12536  0  1.026784  0  0  0.141978  0.11961  0  1.035  0
H  H15  1  0.72497485  0.85940115  0.96803169  1  0  0.119786  0  0.958615  0  0  0.122282  0  1.031851  0  0  0.125509  0  1.027345  0  0  0.142016  0.119719  0  1.03498  0
H  H16  1  0.10247970  0.16963354  0.98014540  1  0  0.112555  0  0.907919  0  0  0.114192  0  0.984995  0  0  0.116535  0  0.980873  0  0  0.141006  0.112378  0  0.98794  0
H  H17  1  0.89751581  0.83036566  0.48014708  1  0  0.112582  0  0.907863  0  0  0.114184  0  0.984982  0  0  0.11652  0  0.980872  0  0  0.140991  0.112371  0  0.987929  0
H  H18  1  0.01841723  0.33723591  0.99658809  1  0  0.107642  0  0.939028  0  0  0.109547  0  1.018057  0  0  0.111141  0  1.016026  0  0  0.134238  0.108629  0  1.018997  0
H  H19  1  0.98158224  0.66276434  0.49658919  1  0  0.107698  0  0.939073  0  0  0.109609  0  1.018063  0  0  0.111171  0  1.016158  0  0  0.134267  0.108694  0  1.019005  0
H  H20  1  0.70237564  0.97950940  0.72409584  1  0  0.088143  0  0.968211  0  0  0.088931  0  1.047216  0  0  0.09134  0  1.044152  0  0  0.129336  0.087206  0  1.049233  0
H  H21  1  0.29761706  0.02049630  0.22409722  1  0  0.08818  0  0.968255  0  0  0.088972  0  1.047243  0  0  0.09138  0  1.044187  0  0  0.129349  0.087248  0  1.049261  0
H  H22  1  0.70980751  0.35706632  0.89896022  1  0  0.11166  0  0.976134  0  0  0.109834  0  1.059504  0  0  0.114052  0  1.053504  0  0  0.136116  0.106746  0  1.063548  0
H  H23  1  0.29018880  0.64293719  0.39895850  1  0  0.111787  0  0.976003  0  0  0.109808  0  1.059536  0  0  0.114045  0  1.053597  0  0  0.136119  0.106721  0  1.063582  0
H  H24  1  0.59507039  0.15654623  0.25329217  1  0  0.093921  0  0.933444  0  0  0.10044  0  0.999458  0  0  0.103092  0  0.996343  0  0  0.130648  0.098411  0  1.001991  0
H  H25  1  0.40492248  0.84345622  0.75329437  1  0  0.093847  0  0.933464  0  0  0.100392  0  0.999446  0  0  0.103049  0  0.996302  0  0  0.130611  0.098363  0  1.001978  0
H  H26  1  0.98979614  0.96338829  0.10615250  1  0  0.110455  0  0.97232  0  0  0.1135  0  1.043226  0  0  0.117706  0  1.038932  0  0  0.132788  0.110328  0  1.04643  0
H  H27  1  0.01019762  0.03660874  0.60615340  1  0  0.110411  0  0.972325  0  0  0.113488  0  1.043201  0  0  0.117676  0  1.038981  0  0  0.132784  0.110315  0  1.046404  0
C  C28  1  0.04984572  0.27964955  0.34178774  1  0  0.053546  0  3.600853  0  0  -0.036534  0  3.841959  0  0  -0.017998  0  3.852969  0  0  0.064013  -0.041942  0  3.837098  0
C  C29  1  0.95016172  0.72035279  0.84178794  1  0  0.053696  0  3.600646  0  0  -0.036557  0  3.841815  0  0  -0.026397  0  3.84993  0  0  0.063953  -0.041967  0  3.836958  0
C  C30  1  0.34915831  0.36340266  0.13792394  1  0  0.198834  0  3.694871  0  0  0.146965  0  3.981036  0  0  0.158055  0  3.995378  0  0  0.145398  0.139706  0  3.970978  0
C  C31  1  0.65084232  0.63659756  0.63792779  1  0  0.199029  0  3.694648  0  0  0.147181  0  3.980782  0  0  0.158277  0  3.995061  0  0  0.145402  0.139922  0  3.97072  0
C  C32  1  0.14685865  0.46526977  0.20534604  1  0  0.180917  0  3.623143  0  0  0.11229  0  3.895272  0  0  0.127154  0  3.907587  0  0  0.164705  0.102642  0  3.886475  0
C  C33  1  0.85314077  0.53472939  0.70534498  1  0  0.181109  0  3.623  0  0  0.112489  0  3.895139  0  0  0.127382  0  3.907399  0  0  0.16483  0.10284  0  3.886339  0
C  C34  1  0.20836957  0.43236535  0.57495853  1  0  0.200717  0  3.687324  0  0  0.146455  0  3.971604  0  0  0.159074  0  3.980412  0  0  0.144359  0.138824  0  3.96337  0
C  C35  1  0.79163675  0.56763266  0.07495355  1  0  0.20078  0  3.687384  0  0  0.146476  0  3.971687  0  0  0.158223  0  3.983816  0  0  0.144333  0.138844  0  3.963458  0
C  C36  1  0.23771469  0.24108697  0.49323560  1  0  0.183883  0  3.622503  0  0  0.105623  0  3.886272  0  0  0.132798  0  3.898268  0  0  0.167673  0.095173  0  3.880634  0
C  C37  1  0.76229299  0.75891429  0.99323216  1  0  0.183695  0  3.622746  0  0  0.105321  0  3.886471  0  0  0.123693  0  3.894712  0  0  0.167514  0.094872  0  3.880835  0
C  C38  1  0.98289967  0.21955529  0.99093801  1  0  0.062067  0  3.597955  0  0  -0.024101  0  3.83959  0  0  -0.007554  0  3.850436  0  0  0.069831  -0.031941  0  3.834736  0
C  C39  1  0.01709675  0.78044282  0.49093928  1  0  0.061966  0  3.597976  0  0  -0.024163  0  3.839604  0  0  -0.007646  0  3.850507  0  0  0.069797  -0.032023  0  3.834765  0
C  C40  1  0.73766603  0.06424903  0.78041098  1  0  0.206921  0  3.694752  0  0  0.15385  0  3.975965  0  0  0.166128  0  3.986829  0  0  0.147884  0.146525  0  3.966979  0
C  C41  1  0.26232826  0.93575557  0.28041048  1  0  0.206891  0  3.694802  0  0  0.153815  0  3.976001  0  0  0.166086  0  3.98691  0  0  0.147841  0.146487  0  3.967023  0
C  C42  1  0.73963610  0.25683958  0.86757055  1  0  0.179878  0  3.615927  0  0  0.10159  0  3.880318  0  0  0.125573  0  3.893018  0  0  0.164968  0.089556  0  3.873974  0
C  C43  1  0.26036330  0.74316390  0.36756985  1  0  0.179765  0  3.616015  0  0  0.101613  0  3.880428  0  0  0.125524  0  3.893192  0  0  0.164962  0.089573  0  3.874083  0
C  C44  1  0.69872840  0.13506330  0.20082974  1  0  0.19559  0  3.714635  0  0  0.15167  0  3.997707  0  0  0.16179  0  4.011194  0  0  0.140588  0.145087  0  3.988697  0
C  C45  1  0.30126185  0.86493593  0.70083092  1  0  0.195626  0  3.714677  0  0  0.151686  0  3.997752  0  0  0.161835  0  4.011119  0  0  0.140634  0.145103  0  3.988739  0
C  C46  1  0.89723897  0.03418000  0.13001811  1  0  0.166896  0  3.634944  0  0  0.103755  0  3.911018  0  0  0.117077  0  3.921739  0  0  0.152908  0.095047  0  3.903354  0
C  C47  1  0.10275997  0.96581808  0.63002036  1  0  0.167065  0  3.635064  0  0  0.103883  0  3.911143  0  0  0.117188  0  3.92195  0  0  0.152995  0.095177  0  3.903473  0
N  N48  1  0.36288991  0.44223468  0.83458815  1  0  0.202148  0  3.333705  0  0  0.222604  0  3.657384  0  0  0.242474  0  3.657999  0  0  -0.073631  0.209783  0  3.656317  0
N  N49  1  0.63709913  0.55775592  0.33458619  1  0  0.202225  0  3.333672  0  0  0.222673  0  3.657358  0  0  0.242545  0  3.65799  0  0  -0.073613  0.20985  0  3.656293  0
N  N50  1  0.31380058  0.97236463  0.99851183  1  0  0.194886  0  3.223312  0  0  0.190933  0  3.540582  0  0  0.212556  0  3.544707  0  0  -0.077939  0.177085  0  3.536226  0
N  N51  1  0.68619671  0.02763779  0.49851365  1  0  0.194971  0  3.22319  0  0  0.19101  0  3.540458  0  0  0.212609  0  3.544598  0  0  -0.077912  0.177165  0  3.536097  0
N  N52  1  0.15739668  0.34206886  0.25595970  1  0  0.02766  0  3.553481  0  0  0.111632  0  3.788965  0  0  0.099348  0  3.812313  0  0  -0.136105  0.1199  0  3.771297  0
N  N53  1  0.84261174  0.65793238  0.75595730  1  0  0.027677  0  3.553054  0  0  0.111644  0  3.788586  0  0  0.098986  0  3.814248  0  0  -0.136175  0.11991  0  3.770919  0
N  N54  1  0.28665552  0.27556606  0.21397540  1  0  -0.26943  0  2.853561  0  0  -0.257998  0  3.134072  0  0  -0.266613  0  3.148635  0  0  -0.217218  -0.252209  0  3.123957  0
N  N55  1  0.71334691  0.72443523  0.71397674  1  0  -0.269537  0  2.853312  0  0  -0.258092  0  3.133777  0  0  -0.266689  0  3.148443  0  0  -0.217181  -0.252303  0  3.123663  0
N  N56  1  0.26651768  0.48157086  0.12959637  1  0  -0.388043  0  3.2417  0  0  -0.310603  0  3.546828  0  0  -0.333999  0  3.558735  0  0  -0.349974  -0.294786  0  3.538415  0
N  N57  1  0.73347574  0.51842618  0.62959892  1  0  -0.38826  0  3.241816  0  0  -0.310842  0  3.546971  0  0  -0.334239  0  3.55888  0  0  -0.350068  -0.295023  0  3.538555  0
N  N58  1  0.13710432  0.31785027  0.43867149  1  0  0.03834  0  3.565329  0  0  0.155594  0  3.750249  0  0  0.111669  0  3.815714  0  0  -0.135549  0.162728  0  3.734756  0
N  N59  1  0.86290654  0.68214988  0.93867054  1  0  0.03828  0  3.56543  0  0  0.155706  0  3.75014  0  0  0.13909  0  3.779113  0  0  -0.135397  0.162842  0  3.734645  0
N  N60  1  0.11684481  0.44072239  0.48932205  1  0  -0.27079  0  2.877336  0  0  -0.264701  0  3.157193  0  0  -0.263248  0  3.175549  0  0  -0.218497  -0.258885  0  3.149131  0
N  N61  1  0.88316136  0.55927780  0.98932011  1  0  -0.270744  0  2.877639  0  0  -0.264717  0  3.157487  0  0  -0.271834  0  3.170381  0  0  -0.21854  -0.258898  0  3.149425  0
N  N62  1  0.28383831  0.31060876  0.58069313  1  0  -0.363781  0  3.317473  0  0  -0.270228  0  3.610882  0  0  -0.292486  0  3.618938  0  0  -0.369916  -0.254776  0  3.602273  0
N  N63  1  0.71616397  0.68938929  0.08068942  1  0  -0.363676  0  3.317245  0  0  -0.270085  0  3.610652  0  0  -0.292955  0  3.622198  0  0  -0.369818  -0.254634  0  3.602046  0
N  N64  1  0.86683391  0.18526177  0.90286223  1  0  0.029526  0  3.548458  0  0  0.141332  0  3.742151  0  0  0.103528  0  3.799733  0  0  -0.131289  0.153584  0  3.721513  0
N  N65  1  0.13316631  0.81474171  0.40286222  1  0  0.02963  0  3.548533  0  0  0.141395  0  3.742224  0  0  0.10364  0  3.799794  0  0  -0.131255  0.153666  0  3.721569  0
N  N66  1  0.86584974  0.06098611  0.84896055  1  0  -0.267548  0  2.862984  0  0  -0.260682  0  3.132795  0  0  -0.261617  0  3.152047  0  0  -0.216559  -0.256713  0  3.123143  0
N  N67  1  0.13414680  0.93901523  0.34895990  1  0  -0.267582  0  2.863146  0  0  -0.260704  0  3.13298  0  0  -0.261699  0  3.152276  0  0  -0.216576  -0.256739  0  3.123326  0
N  N68  1  0.65667510  0.18296233  0.78916793  1  0  -0.354884  0  3.307603  0  0  -0.266057  0  3.612104  0  0  -0.287523  0  3.620557  0  0  -0.365479  -0.251021  0  3.604373  0
N  N69  1  0.34332254  0.81704008  0.28916538  1  0  -0.354912  0  3.30761  0  0  -0.266045  0  3.612036  0  0  -0.28751  0  3.620484  0  0  -0.365451  -0.251008  0  3.604308  0
N  N70  1  0.89197169  0.16212979  0.08358900  1  0  0.010853  0  3.556247  0  0  0.095308  0  3.790504  0  0  0.082497  0  3.815344  0  0  -0.143714  0.104201  0  3.772369  0
N  N71  1  0.10802468  0.83787154  0.58359184  1  0  0.010671  0  3.556474  0  0  0.095136  0  3.790749  0  0  0.082327  0  3.815575  0  0  -0.143803  0.104035  0  3.772612  0
N  N72  1  0.76414684  0.22820884  0.12803939  1  0  -0.290573  0  2.865532  0  0  -0.276844  0  3.141533  0  0  -0.286068  0  3.157463  0  0  -0.227281  -0.270431  0  3.130605  0
N  N73  1  0.23584997  0.77179141  0.62804002  1  0  -0.290539  0  2.865429  0  0  -0.276815  0  3.141435  0  0  -0.28604  0  3.157326  0  0  -0.227311  -0.270403  0  3.130503  0
N  N74  1  0.77619464  0.01385756  0.20499264  1  0  -0.387512  0  3.061112  0  0  -0.337513  0  3.356605  0  0  -0.353131  0  3.365222  0  0  -0.346661  -0.326845  0  3.350788  0
N  N75  1  0.22379663  0.98614058  0.70499433  1  0  -0.387505  0  3.061213  0  0  -0.337498  0  3.356711  0  0  -0.353108  0  3.365297  0  0  -0.346645  -0.326829  0  3.350892  0
O  O76  1  0.47811932  0.49587152  0.90061129  1  0  -0.427481  0  1.973528  0  0  -0.376226  0  2.23666  0  0  -0.403668  0  2.233859  0  0  -0.194278  -0.356695  0  2.237664  0
O  O77  1  0.52188301  0.50410600  0.40061289  1  0  -0.427524  0  1.973542  0  0  -0.376248  0  2.236644  0  0  -0.403638  0  2.233582  0  0  -0.194253  -0.356714  0  2.23765  0
O  O78  1  0.21659304  0.49016765  0.83482703  1  0  -0.450844  0  1.94091  0  0  -0.408041  0  2.200285  0  0  -0.432247  0  2.194915  0  0  -0.19831  -0.390577  0  2.203245  0
O  O79  1  0.78341600  0.50985304  0.33482509  1  0  -0.450863  0  1.940806  0  0  -0.408059  0  2.200191  0  0  -0.432303  0  2.194846  0  0  -0.198354  -0.390597  0  2.203152  0
O  O80  1  0.18580244  0.87075956  0.02342256  1  0  -0.453852  0  2.013353  0  0  -0.393923  0  2.294206  0  0  -0.42347  0  2.289105  0  0  -0.20352  -0.373396  0  2.296758  0
O  O81  1  0.81420163  0.12924278  0.52341818  1  0  -0.45388  0  2.013324  0  0  -0.393941  0  2.294165  0  0  -0.423259  0  2.288338  0  0  -0.203521  -0.373411  0  2.296697  0
O  O82  1  0.45562980  0.93101805  0.97046407  1  0  -0.429115  0  1.978962  0  0  -0.382513  0  2.251746  0  0  -0.406799  0  2.245276  0  0  -0.189312  -0.365893  0  2.255652  0
O  O83  1  0.54436681  0.06898546  0.47046967  1  0  -0.42918  0  1.978929  0  0  -0.382575  0  2.251735  0  0  -0.406906  0  2.245337  0  0  -0.189336  -0.365959  0  2.255641  0
