# generated using pymatgen
data_Zn4H21C26(NO5)3
_symmetry_space_group_name_H-M   'P 1'
_cell_length_a   10.93934415
_cell_length_b   10.74698273
_cell_length_c   19.62229722
_cell_angle_alpha   92.34029258
_cell_angle_beta   96.89417699
_cell_angle_gamma   99.13959932
_symmetry_Int_Tables_number   1
_chemical_formula_structural   Zn4H21C26(NO5)3
_chemical_formula_sum   'Zn4 H21 C26 N3 O15'
_cell_volume   2256.91197363
_cell_formula_units_Z   1
loop_
 _symmetry_equiv_pos_site_id
 _symmetry_equiv_pos_as_xyz
  1  'x, y, z'
loop_
 _atom_site_type_symbol
 _atom_site_label
 _atom_site_symmetry_multiplicity
 _atom_site_fract_x
 _atom_site_fract_y
 _atom_site_fract_z
 _atom_site_occupancy
 _atom_site_pbe_bader_charge
 _atom_site_pbe_bader_spin_density
 _atom_site_pbe_cm5_charge
 _atom_site_pbe_ddec_charge
 _atom_site_pbe_ddec_spin_density
 _atom_site_pbe_ddec_sum_bond_order
 _atom_site_pbe_magmom
Zn  Zn0  1  0.41302094  0.58618774  0.55754357  1  1.311585  0  0.670248  0.950369  0  2.402376  0
Zn  Zn1  1  0.61950633  0.61252594  0.45060743  1  1.309724  0  0.67541  0.963674  0  2.367407  0
Zn  Zn2  1  0.39013127  0.38772419  0.42926216  1  1.314353  0  0.671827  0.967531  0  2.356086  0
Zn  Zn3  1  0.60820173  0.40579999  0.56280974  1  1.317096  0  0.67178  0.96311  0  2.383179  0
H  H4  1  0.54449963  0.72258315  0.10936788  1  0.066932  0  0.107626  0.12425  0  0.993003  0
H  H5  1  0.19687836  0.47732542  0.76903529  1  0.420576  0  0.295941  0.282591  0  0.966514  0
H  H6  1  0.28101897  0.52249502  0.70330853  1  0.483311  0  0.291545  0.30186  0  0.991558  0
H  H7  1  0.22784855  0.05490703  0.45377939  1  0.082712  0  0.09728  0.10314  0  1.015543  0
H  H8  1  0.22793002  0.91701518  0.50364983  1  0.046422  0  0.09795  0.098519  0  0.987295  0
H  H9  1  0.18658127  0.89982021  0.41198126  1  0.051677  0  0.110097  0.117138  0  0.968441  0
H  H10  1  0.42618103  0.75253482  0.30801310  1  0.054539  0  0.093894  0.094415  0  1.021795  0
H  H11  1  0.40025464  0.84367809  0.23414492  1  0.040492  0  0.092115  0.084126  0  0.992615  0
H  H12  1  0.52538602  0.89893072  0.30184498  1  0.089396  0  0.110203  0.121065  0  0.965061  0
H  H13  1  0.70658557  0.39404002  0.95773360  1  0.427254  0  0.29337  0.282243  0  0.974363  0
H  H14  1  0.76316217  0.35434204  0.88556059  1  0.418004  0  0.300702  0.294204  0  0.945177  0
H  H15  1  0.98611490  0.45102696  0.41125676  1  0.123723  0  0.119296  0.142146  0  0.967388  0
H  H16  1  0.24204257  0.56584696  0.87009320  1  0.426788  0  0.29722  0.284834  0  0.964549  0
H  H17  1  0.28682439  0.49403232  0.94156326  1  0.412771  0  0.290814  0.283967  0  0.981619  0
H  H18  1  0.02871106  0.54148559  0.56516043  1  0.13229  0  0.119429  0.139732  0  0.97019  0
H  H19  1  0.63618292  0.02848497  0.55081232  1  0.146258  0  0.123286  0.16546  0  0.973707  0
H  H20  1  0.41402842  0.33077905  0.22393472  1  0.095185  0  0.107753  0.115557  0  0.992396  0
H  H21  1  0.48267327  0.61308934  0.99739286  1  0.054698  0  0.102809  0.104771  0  0.990479  0
H  H22  1  0.41193762  0.32051092  0.09719636  1  0.048213  0  0.101  0.103062  0  1.006106  0
H  H23  1  0.66774488  0.39436346  0.77391361  1  0.076998  0  0.100316  0.121617  0  1.012177  0
H  H24  1  0.50095863  0.33048832  0.99722667  1  0.087383  0  0.103918  0.100923  0  0.99216  0
C  C25  1  0.83936173  0.51328194  0.50946349  1  1.59234  0  0.227056  0.646122  0  4.173876  0
C  C26  1  0.48895073  0.42136129  0.97616208  1  -0.084046  0  -0.084551  -0.088999  0  3.983713  0
C  C27  1  0.48322031  0.52105333  0.01935378  1  -0.059722  0  -0.093974  -0.158369  0  4.013189  0
C  C28  1  0.17190747  0.48217017  0.47336260  1  1.575402  0  0.224245  0.646907  0  4.173926  0
C  C29  1  0.48201509  0.52927784  0.23850984  1  -0.06873  0  -0.028975  -0.157354  0  3.944285  0
C  C30  1  0.03525757  0.48277013  0.46217154  1  -0.073563  0  -0.081755  -0.192542  0  3.893568  0
C  C31  1  0.97618499  0.51621907  0.51428298  1  -0.049458  0  -0.069655  -0.153032  0  3.885757  0
C  C32  1  0.46581401  0.02300380  0.48693874  1  0.568536  0  0.073929  0.114688  0  4.046228  0
C  C33  1  0.55416844  0.96914581  0.52276235  1  -0.017703  0  -0.088461  -0.298563  0  3.859456  0
C  C34  1  0.54720183  0.82982476  0.52154478  1  1.583526  0  0.233605  0.686278  0  4.143637  0
C  C35  1  0.47744566  0.16465560  0.48875885  1  1.556076  0  0.225292  0.563157  0  4.197745  0
C  C36  1  0.48575286  0.42902497  0.90135272  1  0.016752  0  -0.028327  -0.088699  0  3.989443  0
C  C37  1  0.48990364  0.52092644  0.31438285  1  1.550048  0  0.22624  0.614257  0  4.166678  0
C  C38  1  0.49872413  0.47058879  0.68546961  1  1.478027  0  0.218758  0.609814  0  4.143687  0
C  C39  1  0.48868034  0.45477985  0.75901711  1  0.097986  0  -0.0395  -0.14308  0  4.030102  0
C  C40  1  0.38377581  0.48043886  0.78962125  1  0.369606  0  0.084484  0.176344  0  4.042891  0
C  C41  1  0.38482734  0.46861239  0.86159880  1  0.383238  0  0.079268  0.148512  0  4.057493  0
C  C42  1  0.24603692  0.95735158  0.45446111  1  0.376616  0  -0.135677  -0.172969  0  3.895185  0
C  C43  1  0.47141399  0.81522247  0.27235085  1  0.38574  0  -0.137691  -0.161044  0  3.922781  0
C  C44  1  0.58770537  0.39823657  0.86913211  1  0.348184  0  0.075434  0.23806  0  4.138136  0
C  C45  1  0.58844322  0.41289811  0.79918470  1  -0.024106  0  -0.122582  -0.247415  0  4.029738  0
C  C46  1  0.44354877  0.41001337  0.12706296  1  0.023602  0  -0.100808  -0.15895  0  3.999514  0
C  C47  1  0.44336920  0.41566324  0.19764776  1  -0.03288  0  -0.083417  -0.069092  0  4.011404  0
C  C48  1  0.51776541  0.64123839  0.20499263  1  0.592392  0  0.09333  0.25805  0  4.028189  0
C  C49  1  0.51631769  0.63476037  0.13359797  1  -0.013473  0  -0.100691  -0.256226  0  3.94462  0
C  C50  1  0.48164882  0.52049506  0.09359437  1  -0.090202  0  -0.011689  0.138505  0  4.079646  0
N  N51  1  0.27930238  0.51985988  0.75498689  1  -1.220426  0  -0.609419  -0.617111  0  3.325477  0
N  N52  1  0.68529432  0.35414463  0.90901297  1  -1.180099  0  -0.610092  -0.628581  0  3.296417  0
N  N53  1  0.27762087  0.49063369  0.88937848  1  -1.198772  0  -0.612411  -0.617814  0  3.324574  0
O  O54  1  0.50720505  0.49645588  0.49891120  1  -1.231212  0  -0.574339  -1.031284  0  2.548416  0
O  O55  1  0.56019726  0.60985871  0.35251751  1  -1.166597  0  -0.311255  -0.539833  0  2.364823  0
O  O56  1  0.58806101  0.42935088  0.65979696  1  -1.170536  0  -0.320723  -0.54851  0  2.336123  0
O  O57  1  0.42764456  0.42239977  0.33590707  1  -1.178117  0  -0.320607  -0.555118  0  2.335844  0
O  O58  1  0.41754631  0.52619926  0.65060151  1  -1.178807  0  -0.317705  -0.556544  0  2.366981  0
O  O59  1  0.37278523  0.95065106  0.44294891  1  -1.070662  0  -0.201736  -0.165649  0  2.558024  0
O  O60  1  0.55911111  0.75802924  0.23778048  1  -1.090477  0  -0.208484  -0.194827  0  2.541284  0
O  O61  1  0.46163540  0.76893819  0.55162964  1  -1.164508  0  -0.31065  -0.542428  0  2.297872  0
O  O62  1  0.56239032  0.22569044  0.53331616  1  -1.182732  0  -0.315263  -0.541081  0  2.368404  0
O  O63  1  0.78627377  0.56208918  0.45820098  1  -1.160728  0  -0.311536  -0.539314  0  2.282073  0
O  O64  1  0.21601294  0.41727163  0.42900072  1  -1.155395  0  -0.318106  -0.550691  0  2.275787  0
O  O65  1  0.78795554  0.46255530  0.55884216  1  -1.16573  0  -0.314745  -0.544878  0  2.287081  0
O  O66  1  0.23314373  0.54625269  0.52614566  1  -1.178237  0  -0.318811  -0.553601  0  2.337211  0
O  O67  1  0.62906247  0.78509823  0.49130565  1  -1.164764  0  -0.315641  -0.548281  0  2.269011  0
O  O68  1  0.40200372  0.21009254  0.44574800  1  -1.164771  0  -0.308192  -0.529119  0  2.356052  0
