# generated using pymatgen
data_K2CdH2C8(N3O4)2
_symmetry_space_group_name_H-M   'P 1'
_cell_length_a   8.18839026
_cell_length_b   9.24773745
_cell_length_c   10.02366520
_cell_angle_alpha   95.12910396
_cell_angle_beta   96.28921582
_cell_angle_gamma   100.43734936
_symmetry_Int_Tables_number   1
_chemical_formula_structural   K2CdH2C8(N3O4)2
_chemical_formula_sum   'K4 Cd2 H4 C16 N12 O16'
_cell_volume   737.33295608
_cell_formula_units_Z   2
loop_
 _symmetry_equiv_pos_site_id
 _symmetry_equiv_pos_as_xyz
  1  'x, y, z'
loop_
 _atom_site_type_symbol
 _atom_site_label
 _atom_site_symmetry_multiplicity
 _atom_site_fract_x
 _atom_site_fract_y
 _atom_site_fract_z
 _atom_site_occupancy
 _atom_site_hle17_bader_spin_density
 _atom_site_hle17_ddec_charge
 _atom_site_hle17_ddec_spin_density
 _atom_site_hle17_ddec_sum_bond_order
 _atom_site_hle17_magmom
 _atom_site_hse06_10hf_bader_spin_density
 _atom_site_hse06_10hf_ddec_charge
 _atom_site_hse06_10hf_ddec_spin_density
 _atom_site_hse06_10hf_ddec_sum_bond_order
 _atom_site_hse06_10hf_magmom
 _atom_site_hse06_bader_spin_density
 _atom_site_hse06_ddec_charge
 _atom_site_hse06_ddec_spin_density
 _atom_site_hse06_ddec_sum_bond_order
 _atom_site_hse06_magmom
 _atom_site_pbe_bader_spin_density
 _atom_site_pbe_cm5_charge
 _atom_site_pbe_ddec_charge
 _atom_site_pbe_ddec_spin_density
 _atom_site_pbe_ddec_sum_bond_order
 _atom_site_pbe_magmom
K  K0  1  0.32738096  0.37238922  0.59550431  1  0  0.920365  0  0.427082  0  0  0.864084  0  0.601365  0  0  0.880344  0  0.57808  0  0  0.794276  0.851925  0  0.618088  0
K  K1  1  0.67262066  0.62761319  0.40450260  1  0  0.920366  0  0.42708  0  0  0.864089  0  0.601355  0  0  0.880349  0  0.578069  0  0  0.794277  0.851932  0  0.618078  0
K  K2  1  0.93793551  0.07256187  0.80815588  1  0  0.924051  0  0.467503  0  0  0.864706  0  0.661376  0  0  0.880487  0  0.638494  0  0  0.826588  0.852903  0  0.677768  0
K  K3  1  0.06205874  0.92743501  0.19184494  1  0  0.924052  0  0.467509  0  0  0.86471  0  0.661376  0  0  0.880493  0  0.638495  0  0  0.826588  0.852908  0  0.677767  0
Cd  Cd4  1  0.53572737  0.75366579  0.96929006  1  0  1.042461  0  1.74772  0  0  0.81918  0  2.215781  0  0  0.874421  0  2.167444  0  0  0.83142  0.779811  0  2.248843  0
Cd  Cd5  1  0.46427276  0.24633552  0.03071064  1  0  1.042492  0  1.747722  0  0  0.819234  0  2.215761  0  0  0.874476  0  2.167421  0  0  0.831419  0.779867  0  2.248823  0
H  H6  1  0.06488168  0.66916536  0.76126818  1  0  0.391697  0  0.921469  0  0  0.360947  0  0.99598  0  0  0.373734  0  0.97863  0  0  0.297524  0.352041  0  1.007999  0
H  H7  1  0.93512263  0.33083262  0.23873162  1  0  0.391732  0  0.921396  0  0  0.36099  0  0.99591  0  0  0.373777  0  0.978562  0  0  0.297556  0.352085  0  1.007907  0
H  H8  1  0.32224094  0.78483747  0.45489704  1  0  0.39986  0  0.903194  0  0  0.370262  0  0.978159  0  0  0.383048  0  0.961575  0  0  0.301133  0.361341  0  0.986742  0
H  H9  1  0.67775772  0.21516273  0.54510144  1  0  0.399852  0  0.903228  0  0  0.370254  0  0.978196  0  0  0.383039  0  0.961596  0  0  0.301119  0.361332  0  0.986779  0
C  C10  1  0.82818355  0.59159032  0.89165757  1  0  -0.022485  0  3.785952  0  0  -0.027026  0  4.038885  0  0  -0.029831  0  4.058184  0  0  0.088087  -0.025342  0  4.026043  0
C  C11  1  0.17181511  0.40840988  0.10834191  1  0  -0.022537  0  3.785913  0  0  -0.02708  0  4.03885  0  0  -0.029884  0  4.058148  0  0  0.088033  -0.025395  0  4.026006  0
C  C12  1  0.88596807  0.46525423  0.84349480  1  0  -0.038672  0  3.773125  0  0  -0.039206  0  4.036129  0  0  -0.044233  0  4.054719  0  0  0.086231  -0.035935  0  4.023612  0
C  C13  1  0.11403035  0.53474487  0.15650657  1  0  -0.038641  0  3.773086  0  0  -0.039176  0  4.03608  0  0  -0.044202  0  4.054667  0  0  0.086252  -0.035907  0  4.023566  0
C  C14  1  0.88979852  0.75091758  0.88585711  1  0  0.636438  0  3.947653  0  0  0.586342  0  4.244959  0  0  0.621123  0  4.235427  0  0  0.194608  0.562797  0  4.250745  0
C  C15  1  0.11020160  0.24908373  0.11414060  1  0  0.636437  0  3.947792  0  0  0.586347  0  4.24509  0  0  0.621127  0  4.235559  0  0  0.1946  0.562802  0  4.250875  0
C  C16  1  0.02322232  0.44978800  0.76229252  1  0  0.663436  0  3.861629  0  0  0.616227  0  4.160205  0  0  0.650352  0  4.149199  0  0  0.222171  0.593005  0  4.167248  0
C  C17  1  0.97677856  0.55021109  0.23771106  1  0  0.663435  0  3.861626  0  0  0.616244  0  4.160193  0  0  0.650371  0  4.149184  0  0  0.222168  0.593024  0  4.167238  0
C  C18  1  0.40344388  0.87461469  0.69898182  1  0  -0.005627  0  3.745255  0  0  -0.012  0  3.998102  0  0  -0.01356  0  4.016502  0  0  0.09337  -0.011084  0  3.985824  0
C  C19  1  0.59655600  0.12538551  0.30101677  1  0  -0.005588  0  3.745259  0  0  -0.01196  0  3.998069  0  0  -0.013521  0  4.016469  0  0  0.093392  -0.011044  0  3.985794  0
C  C20  1  0.34034522  0.98444853  0.63296343  1  0  -0.034051  0  3.779976  0  0  -0.035863  0  4.043193  0  0  -0.04049  0  4.060912  0  0  0.087948  -0.033004  0  4.031422  0
C  C21  1  0.65965515  0.01555389  0.36703539  1  0  -0.034069  0  3.779997  0  0  -0.035857  0  4.04318  0  0  -0.040483  0  4.0609  0  0  0.087917  -0.032998  0  4.031412  0
C  C22  1  0.43108213  0.72562911  0.65126868  1  0  0.645931  0  3.950413  0  0  0.592769  0  4.257571  0  0  0.62774  0  4.247689  0  0  0.197518  0.569051  0  4.263604  0
C  C23  1  0.56891898  0.27437109  0.34873002  1  0  0.645863  0  3.9505  0  0  0.59273  0  4.25761  0  0  0.627701  0  4.247729  0  0  0.197515  0.569012  0  4.263643  0
C  C24  1  0.27376479  0.98776411  0.49064788  1  0  0.642612  0  3.887428  0  0  0.59636  0  4.187366  0  0  0.629528  0  4.178328  0  0  0.218408  0.573908  0  4.192758  0
C  C25  1  0.72623533  0.01223720  0.50935182  1  0  0.642645  0  3.887414  0  0  0.596372  0  4.187369  0  0  0.629541  0  4.178328  0  0  0.218394  0.573919  0  4.19276  0
N  N26  1  0.69619582  0.54584569  0.95730186  1  0  -0.239577  0  3.095408  0  0  -0.199246  0  3.370979  0  0  -0.208267  0  3.387559  0  0  -0.214649  -0.192708  0  3.359462  0
N  N27  1  0.30380431  0.45415562  0.04269784  1  0  -0.239668  0  3.095452  0  0  -0.199348  0  3.371038  0  0  -0.208369  0  3.387617  0  0  -0.214692  -0.19281  0  3.359524  0
N  N28  1  0.67472621  0.39809798  0.94946414  1  0  -0.10294  0  3.211604  0  0  -0.044497  0  3.517414  0  0  -0.055581  0  3.533609  0  0  -0.115234  -0.036689  0  3.505983  0
N  N29  1  0.32527368  0.60190223  0.05053745  1  0  -0.102808  0  3.211447  0  0  -0.044345  0  3.517221  0  0  -0.05543  0  3.533418  0  0  -0.115196  -0.036537  0  3.505788  0
N  N30  1  0.78787899  0.34610369  0.88264273  1  0  -0.2329  0  2.973771  0  0  -0.229894  0  3.260429  0  0  -0.231448  0  3.274605  0  0  -0.23916  -0.228528  0  3.250747  0
N  N31  1  0.21212115  0.65389762  0.11735997  1  0  -0.232943  0  2.973687  0  0  -0.229943  0  3.260339  0  0  -0.231497  0  3.274514  0  0  -0.239121  -0.228577  0  3.250658  0
N  N32  1  0.44811241  0.92967254  0.82989261  1  0  -0.248559  0  3.13352  0  0  -0.198568  0  3.411868  0  0  -0.210091  0  3.428355  0  0  -0.218726  -0.190457  0  3.400354  0
N  N33  1  0.55188723  0.07032655  0.17010587  1  0  -0.24859  0  3.133501  0  0  -0.19861  0  3.41185  0  0  -0.210131  0  3.428334  0  0  -0.218739  -0.190498  0  3.400337  0
N  N34  1  0.41572636  0.06671731  0.84299194  1  0  -0.077762  0  3.180051  0  0  -0.027843  0  3.480274  0  0  -0.036147  0  3.495329  0  0  -0.104831  -0.021908  0  3.469609  0
N  N35  1  0.58427475  0.93328289  0.15700775  1  0  -0.077771  0  3.18007  0  0  -0.02785  0  3.480298  0  0  -0.036154  0  3.495352  0  0  -0.104841  -0.021915  0  3.469636  0
N  N36  1  0.35082505  0.10260743  0.72604845  1  0  -0.262553  0  3.015872  0  0  -0.252681  0  3.301274  0  0  -0.255088  0  3.314111  0  0  -0.263927  -0.250694  0  3.292562  0
N  N37  1  0.64917507  0.89739388  0.27395125  1  0  -0.26255  0  3.015903  0  0  -0.25269  0  3.301305  0  0  -0.255099  0  3.314142  0  0  -0.263925  -0.250703  0  3.292595  0
O  O38  1  0.81713372  0.84352971  0.94641972  1  0  -0.684798  0  2.050328  0  0  -0.621193  0  2.306245  0  0  -0.648511  0  2.294118  0  0  -0.418901  -0.602078  0  2.314017  0
O  O39  1  0.18286617  0.15647049  0.05358087  1  0  -0.68477  0  2.050319  0  0  -0.621172  0  2.306229  0  0  -0.648489  0  2.294103  0  0  -0.418879  -0.602058  0  2.314001  0
O  O40  1  0.01528390  0.79111643  0.82324049  1  0  -0.604962  0  2.000045  0  0  -0.557081  0  2.219819  0  0  -0.581023  0  2.208474  0  0  -0.351811  -0.540517  0  2.2271  0
O  O41  1  0.98471844  0.20888377  0.17675832  1  0  -0.604966  0  2.000145  0  0  -0.557084  0  2.219909  0  0  -0.581035  0  2.208582  0  0  -0.35181  -0.540518  0  2.227177  0
O  O42  1  0.06309415  0.32875467  0.73440189  1  0  -0.641242  0  1.990266  0  0  -0.60483  0  2.229615  0  0  -0.625892  0  2.21858  0  0  -0.458179  -0.590276  0  2.236978  0
O  O43  1  0.93690427  0.67124443  0.26560047  1  0  -0.641244  0  1.990192  0  0  -0.604835  0  2.229529  0  0  -0.625898  0  2.218492  0  0  -0.458197  -0.590282  0  2.236894  0
O  O44  1  0.10138740  0.57061915  0.71805960  1  0  -0.572005  0  2.081557  0  0  -0.521343  0  2.294038  0  0  -0.544653  0  2.27736  0  0  -0.340786  -0.505215  0  2.305268  0
O  O45  1  0.89861470  0.42937995  0.28194209  1  0  -0.572007  0  2.081528  0  0  -0.521363  0  2.294015  0  0  -0.544672  0  2.277337  0  0  -0.34078  -0.505239  0  2.305239  0
O  O46  1  0.49298179  0.65044285  0.73613123  1  0  -0.640221  0  2.013149  0  0  -0.581476  0  2.261796  0  0  -0.608996  0  2.251847  0  0  -0.356681  -0.562279  0  2.267981  0
O  O47  1  0.50701834  0.34955845  0.26386847  1  0  -0.640215  0  2.013199  0  0  -0.581482  0  2.261824  0  0  -0.609001  0  2.251871  0  0  -0.356669  -0.562285  0  2.26801  0
O  O48  1  0.39254773  0.67924119  0.52484962  1  0  -0.667466  0  2.000804  0  0  -0.615009  0  2.225631  0  0  -0.639476  0  2.212637  0  0  -0.397324  -0.597907  0  2.23322  0
O  O49  1  0.60745068  0.32075790  0.47514974  1  0  -0.667408  0  2.000805  0  0  -0.614963  0  2.225618  0  0  -0.63943  0  2.21262  0  0  -0.397308  -0.597859  0  2.233205  0
O  O50  1  0.22148917  0.09594592  0.45005013  1  0  -0.610226  0  1.901966  0  0  -0.572114  0  2.116245  0  0  -0.59232  0  2.107122  0  0  -0.382561  -0.558147  0  2.122125  0
O  O51  1  0.77851096  0.90405539  0.54994858  1  0  -0.61022  0  1.901975  0  0  -0.572107  0  2.116274  0  0  -0.592311  0  2.107141  0  0  -0.382537  -0.558138  0  2.122155  0
O  O52  1  0.27343268  0.86912747  0.40627443  1  0  -0.580841  0  2.127468  0  0  -0.531056  0  2.353025  0  0  -0.555218  0  2.338304  0  0  -0.376534  -0.514063  0  2.360551  0
O  O53  1  0.72656720  0.13087273  0.59372417  1  0  -0.580843  0  2.127464  0  0  -0.531055  0  2.353031  0  0  -0.555217  0  2.338296  0  0  -0.376515  -0.514068  0  2.360573  0
