# generated using pymatgen
data_ZnHgH14C14(NO2)2
_symmetry_space_group_name_H-M   'P 1'
_cell_length_a   8.01019424
_cell_length_b   10.14600860
_cell_length_c   21.98400000
_cell_angle_alpha   90.00000000
_cell_angle_beta   90.00000000
_cell_angle_gamma   106.16587347
_symmetry_Int_Tables_number   1
_chemical_formula_structural   ZnHgH14C14(NO2)2
_chemical_formula_sum   'Zn4 Hg4 H56 C56 N8 O16'
_cell_volume   1716.02705548
_cell_formula_units_Z   4
loop_
 _symmetry_equiv_pos_site_id
 _symmetry_equiv_pos_as_xyz
  1  'x, y, z'
loop_
 _atom_site_type_symbol
 _atom_site_label
 _atom_site_symmetry_multiplicity
 _atom_site_fract_x
 _atom_site_fract_y
 _atom_site_fract_z
 _atom_site_occupancy
 _atom_site_hle17_bader_spin_density
 _atom_site_hle17_ddec_charge
 _atom_site_hle17_ddec_spin_density
 _atom_site_hle17_ddec_sum_bond_order
 _atom_site_hle17_magmom
 _atom_site_hse06_10hf_bader_spin_density
 _atom_site_hse06_10hf_ddec_charge
 _atom_site_hse06_10hf_ddec_spin_density
 _atom_site_hse06_10hf_ddec_sum_bond_order
 _atom_site_hse06_10hf_magmom
 _atom_site_hse06_bader_spin_density
 _atom_site_hse06_ddec_charge
 _atom_site_hse06_ddec_spin_density
 _atom_site_hse06_ddec_sum_bond_order
 _atom_site_hse06_magmom
 _atom_site_pbe_bader_charge
 _atom_site_pbe_bader_spin_density
 _atom_site_pbe_cm5_charge
 _atom_site_pbe_ddec_charge
 _atom_site_pbe_ddec_spin_density
 _atom_site_pbe_ddec_sum_bond_order
 _atom_site_pbe_magmom
Zn  Zn0  1  0.97471268  0.04944980  0.66372316  1  0  0.975747  0  1.851512  0  0  0.771824  0  2.327181  0  0  0.82069  0  2.273111  0  1.232987  0  0.684152  0.737506  0  2.364581  0
Zn  Zn1  1  0.52528889  0.45055470  0.16372180  1  0  0.975755  0  1.851529  0  0  0.771881  0  2.327211  0  0  0.820742  0  2.273142  0  1.232966  0  0.684181  0.737554  0  2.364613  0
Zn  Zn2  1  0.02529185  0.95055305  0.33627775  1  0  0.975723  0  1.851529  0  0  0.771819  0  2.32721  0  0  0.82068  0  2.273142  0  1.232954  0  0.684158  0.737498  0  2.364612  0
Zn  Zn3  1  0.47471117  0.54944609  0.83627820  1  0  0.975686  0  1.851565  0  0  0.771779  0  2.327235  0  0  0.820642  0  2.273167  0  1.232831  0  0.684148  0.737463  0  2.364636  0
Hg  Hg4  1  0.18331541  0.72259325  0.91967385  1  0  0.536911  0  1.949583  0  0  0.42354  0  2.339664  0  0  0.451295  0  2.320024  0  0.57857  0  0.467119  0.404544  0  2.353064  0
Hg  Hg5  1  0.31668494  0.77740897  0.41967340  1  0  0.536905  0  1.949623  0  0  0.423512  0  2.339702  0  0  0.451269  0  2.320061  0  0.578611  0  0.467119  0.404515  0  2.3531  0
Hg  Hg6  1  0.81667997  0.27740139  0.08032660  1  0  0.536899  0  1.949683  0  0  0.423513  0  2.339781  0  0  0.451267  0  2.320141  0  0.578582  0  0.467113  0.404517  0  2.35318  0
Hg  Hg7  1  0.68332011  0.22259183  0.58032706  1  0  0.536888  0  1.949638  0  0  0.423499  0  2.339703  0  0  0.451254  0  2.320063  0  0.578605  0  0.467115  0.404502  0  2.353102  0
H  H8  1  0.43597092  0.82612812  0.02696689  1  0  0.104283  0  0.931784  0  0  0.118623  0  0.98273  0  0  0.121648  0  0.981429  0  0.115032  0  0.105668  0.116311  0  0.984075  0
H  H9  1  0.06402016  0.67387615  0.52696598  1  0  0.104278  0  0.931781  0  0  0.118632  0  0.98271  0  0  0.121656  0  0.981411  0  0.115348  0  0.105649  0.116319  0  0.984055  0
H  H10  1  0.56401021  0.17386856  0.97303402  1  0  0.104267  0  0.931819  0  0  0.118607  0  0.982749  0  0  0.12163  0  0.981452  0  0.115234  0  0.105654  0.116297  0  0.984091  0
H  H11  1  0.93597937  0.32612670  0.47303311  1  0  0.104294  0  0.931772  0  0  0.118637  0  0.982716  0  0  0.12166  0  0.981419  0  0.115301  0  0.105671  0.116325  0  0.98406  0
H  H12  1  0.56697212  0.71947262  0.10905113  1  0  0.08028  0  0.995952  0  0  0.089647  0  1.059562  0  0  0.092557  0  1.05633  0  0.119461  0  0.113774  0.087415  0  1.062184  0
H  H13  1  0.93301880  0.78053268  0.60905022  1  0  0.080268  0  0.995987  0  0  0.089634  0  1.059601  0  0  0.092543  0  1.056373  0  0.119468  0  0.113755  0.087405  0  1.06222  0
H  H14  1  0.43301457  0.28052920  0.89094978  1  0  0.080235  0  0.995995  0  0  0.089603  0  1.059606  0  0  0.09251  0  1.056383  0  0.11943  0  0.113738  0.087377  0  1.062229  0
H  H15  1  0.06697662  0.21946914  0.39094887  1  0  0.080301  0  0.995934  0  0  0.089668  0  1.059548  0  0  0.092579  0  1.056319  0  0.119475  0  0.113786  0.087438  0  1.062168  0
H  H16  1  0.27228316  0.32891074  0.06357078  1  0  0.083654  0  0.950983  0  0  0.092926  0  1.013453  0  0  0.095439  0  1.011294  0  0.129868  0  0.11497  0.090967  0  1.015127  0
H  H17  1  0.22771696  0.17109171  0.56357123  1  0  0.083685  0  0.950908  0  0  0.092946  0  1.0134  0  0  0.095461  0  1.011241  0  0.129811  0  0.114972  0.090987  0  1.015074  0
H  H18  1  0.72772096  0.67108390  0.93643059  1  0  0.08365  0  0.951093  0  0  0.092896  0  1.013588  0  0  0.095431  0  1.011407  0  0.129939  0  0.114949  0.090937  0  1.015262  0
H  H19  1  0.77228595  0.82891011  0.43642968  1  0  0.083679  0  0.95097  0  0  0.092938  0  1.013456  0  0  0.095454  0  1.011294  0  0.129855  0  0.114973  0.09098  0  1.015127  0
H  H20  1  0.12807545  0.41689378  0.97845206  1  0  0.095722  0  0.959953  0  0  0.108747  0  1.017326  0  0  0.110504  0  1.018448  0  0.064879  0  0.098685  0.107373  0  1.016823  0
H  H21  1  0.37192306  0.08310764  0.47845342  1  0  0.095691  0  0.959916  0  0  0.108706  0  1.017318  0  0  0.110463  0  1.018441  0  0.064872  0  0.09866  0.107332  0  1.016802  0
H  H22  1  0.87192348  0.58309675  0.02154794  1  0  0.095679  0  0.960018  0  0  0.108721  0  1.017362  0  0  0.110478  0  1.018486  0  0.06496  0  0.098668  0.107356  0  1.016853  0
H  H23  1  0.62808323  0.91689316  0.52154885  1  0  0.095762  0  0.959877  0  0  0.108797  0  1.017225  0  0  0.110555  0  1.018346  0  0.064842  0  0.098685  0.107415  0  1.016735  0
H  H24  1  0.19573163  0.03187023  0.87846980  1  0  0.101937  0  0.945981  0  0  0.115744  0  0.999603  0  0  0.118595  0  0.998822  0  0.095158  0  0.102981  0.113529  0  1.000698  0
H  H25  1  0.30427011  0.46813325  0.37846934  1  0  0.10195  0  0.945957  0  0  0.11574  0  0.999586  0  0  0.11859  0  0.998807  0  0.095181  0  0.102985  0.113526  0  1.000685  0
H  H26  1  0.80426895  0.96812852  0.12153066  1  0  0.101948  0  0.945993  0  0  0.115736  0  0.99963  0  0  0.118586  0  0.99885  0  0.095158  0  0.102976  0.113519  0  1.000727  0
H  H27  1  0.69572995  0.53186754  0.62153111  1  0  0.101951  0  0.945966  0  0  0.115758  0  0.999577  0  0  0.118608  0  0.998798  0  0.09519  0  0.10299  0.113544  0  1.000675  0
H  H28  1  0.12514375  0.13408030  0.78393104  1  0  0.092456  0  0.981999  0  0  0.097223  0  1.051224  0  0  0.100153  0  1.048572  0  0.144836  0  0.115608  0.095271  0  1.052755  0
H  H29  1  0.37485602  0.36592113  0.28393104  1  0  0.092473  0  0.982006  0  0  0.097227  0  1.051227  0  0  0.100157  0  1.048577  0  0.144869  0  0.11562  0.095278  0  1.052761  0
H  H30  1  0.87485844  0.86591947  0.21606987  1  0  0.092463  0  0.982004  0  0  0.097234  0  1.051219  0  0  0.100164  0  1.04857  0  0.144838  0  0.115604  0.095282  0  1.05275  0
H  H31  1  0.62514082  0.63407762  0.71606941  1  0  0.092479  0  0.982002  0  0  0.097232  0  1.05123  0  0  0.100161  0  1.048581  0  0.144869  0  0.115622  0.095282  0  1.052763  0
H  H32  1  0.93919339  0.75339829  0.70184088  1  0  0.066377  0  0.974889  0  0  0.074848  0  1.044055  0  0  0.076702  0  1.04214  0  0.096406  0  0.113328  0.073346  0  1.045762  0
H  H33  1  0.56080607  0.74660290  0.20184043  1  0  0.066386  0  0.974852  0  0  0.074845  0  1.044033  0  0  0.076707  0  1.042106  0  0.096408  0  0.113327  0.073343  0  1.045741  0
H  H34  1  0.06080880  0.24660147  0.29815866  1  0  0.06639  0  0.974891  0  0  0.07485  0  1.044078  0  0  0.076709  0  1.042151  0  0.09641  0  0.113325  0.073348  0  1.045785  0
H  H35  1  0.43919487  0.25339687  0.79816003  1  0  0.066393  0  0.974874  0  0  0.07486  0  1.044028  0  0  0.076713  0  1.042123  0  0.096376  0  0.11333  0.073358  0  1.045735  0
H  H36  1  0.01726700  0.63414226  0.79135417  1  0  0.099903  0  0.976275  0  0  0.111224  0  1.036722  0  0  0.113556  0  1.036979  0  0.091255  0  0.100392  0.109637  0  1.036486  0
H  H37  1  0.48273658  0.86586201  0.29135371  1  0  0.0999  0  0.976225  0  0  0.111212  0  1.036676  0  0  0.113541  0  1.036941  0  0.091275  0  0.100363  0.109625  0  1.036441  0
H  H38  1  0.98273431  0.36585853  0.20864538  1  0  0.099915  0  0.976261  0  0  0.111234  0  1.036712  0  0  0.113568  0  1.036965  0  0.091255  0  0.100402  0.109648  0  1.036476  0
H  H39  1  0.51726722  0.13413879  0.70864674  1  0  0.099918  0  0.976274  0  0  0.111265  0  1.036679  0  0  0.113595  0  1.036941  0  0.091274  0  0.100388  0.109676  0  1.036447  0
H  H40  1  0.05205721  0.53399380  0.66692367  1  0  0.122621  0  0.948241  0  0  0.142102  0  1.0103  0  0  0.143437  0  1.011224  0  0.040753  0  0.091585  0.141007  0  1.009949  0
H  H41  1  0.44794278  0.96600739  0.16692367  1  0  0.122604  0  0.948314  0  0  0.142118  0  1.010335  0  0  0.143452  0  1.011261  0  0.040826  0  0.091589  0.141022  0  1.009985  0
H  H42  1  0.94794285  0.46600700  0.33307451  1  0  0.122606  0  0.948285  0  0  0.142124  0  1.010299  0  0  0.143458  0  1.011224  0  0.040764  0  0.091593  0.14103  0  1.009947  0
H  H43  1  0.55205655  0.03399135  0.83307542  1  0  0.12261  0  0.948299  0  0  0.142125  0  1.010321  0  0  0.143462  0  1.011244  0  0.040505  0  0.091592  0.141032  0  1.009968  0
H  H44  1  0.26651055  0.53684454  0.64649017  1  0  0.131458  0  0.946488  0  0  0.153209  0  1.001551  0  0  0.155181  0  1.0014  0  0.061199  0  0.096513  0.15177  0  1.001739  0
H  H45  1  0.23348836  0.96315357  0.14649017  1  0  0.131513  0  0.946476  0  0  0.153266  0  1.001536  0  0  0.15524  0  1.001384  0  0.061164  0  0.096543  0.151827  0  1.001724  0
H  H46  1  0.73349023  0.46315831  0.35350801  1  0  0.131427  0  0.946468  0  0  0.153169  0  1.001553  0  0  0.155141  0  1.001403  0  0.061252  0  0.096495  0.151731  0  1.00174  0
H  H47  1  0.76650953  0.03684107  0.85350892  1  0  0.13143  0  0.946468  0  0  0.153184  0  1.001544  0  0  0.155156  0  1.001393  0  0.06123  0  0.096496  0.151745  0  1.001731  0
H  H48  1  0.19117283  0.48931986  0.72222071  1  0  0.136715  0  0.963676  0  0  0.152127  0  1.026911  0  0  0.15484  0  1.026123  0  0.086113  0  0.091093  0.150194  0  1.027484  0
H  H49  1  0.30882766  0.01068361  0.22222025  1  0  0.136742  0  0.963665  0  0  0.152167  0  1.026895  0  0  0.154883  0  1.026103  0  0.086067  0  0.091112  0.150234  0  1.027465  0
H  H50  1  0.80882992  0.51068503  0.27777793  1  0  0.136721  0  0.963718  0  0  0.15213  0  1.026956  0  0  0.154843  0  1.02617  0  0.086052  0  0.091096  0.150198  0  1.027528  0
H  H51  1  0.69117079  0.98931616  0.77777838  1  0  0.136752  0  0.963685  0  0  0.152163  0  1.026921  0  0  0.154876  0  1.026135  0  0.086063  0  0.091112  0.150231  0  1.027493  0
H  H52  1  0.38906014  0.95299024  0.65102757  1  0  0.120713  0  0.972039  0  0  0.136118  0  1.040388  0  0  0.13806  0  1.040707  0  0.044343  0  0.086028  0.134767  0  1.040223  0
H  H53  1  0.11093949  0.54700993  0.15102757  1  0  0.120689  0  0.972093  0  0  0.136127  0  1.040404  0  0  0.138071  0  1.040723  0  0.044342  0  0.086021  0.134775  0  1.04024  0
H  H54  1  0.61094153  0.04701158  0.34897289  1  0  0.120645  0  0.972099  0  0  0.136086  0  1.040418  0  0  0.138031  0  1.040738  0  0.044353  0  0.086019  0.134735  0  1.040254  0
H  H55  1  0.88906093  0.45299189  0.84897243  1  0  0.120702  0  0.972065  0  0  0.136125  0  1.040386  0  0  0.138068  0  1.040707  0  0.044323  0  0.086027  0.134773  0  1.040222  0
H  H56  1  0.39809326  0.82749192  0.70674354  1  0  0.147966  0  0.928694  0  0  0.169529  0  0.983409  0  0  0.171937  0  0.983279  0  0.069901  0  0.102562  0.167779  0  0.983564  0
H  H57  1  0.10190512  0.67250824  0.20674354  1  0  0.147954  0  0.928708  0  0  0.169508  0  0.983435  0  0  0.171915  0  0.983306  0  0.069909  0  0.102551  0.167762  0  0.983586  0
H  H58  1  0.60190966  0.17250990  0.29325691  1  0  0.1479  0  0.928716  0  0  0.169465  0  0.983447  0  0  0.171872  0  0.98332  0  0.069903  0  0.102546  0.167717  0  0.9836  0
H  H59  1  0.89809369  0.32749255  0.79325646  1  0  0.147954  0  0.928686  0  0  0.169503  0  0.983422  0  0  0.171911  0  0.983293  0  0.069909  0  0.102545  0.167757  0  0.983572  0
H  H60  1  0.36620938  0.77858087  0.62924536  1  0  0.127805  0  0.962538  0  0  0.147047  0  1.022567  0  0  0.148704  0  1.023194  0  0.043904  0  0.0923  0.145875  0  1.022165  0
H  H61  1  0.13379149  0.72141929  0.12924536  1  0  0.127816  0  0.96257  0  0  0.147057  0  1.022599  0  0  0.148714  0  1.023226  0  0.043894  0  0.092301  0.145885  0  1.022197  0
H  H62  1  0.63379317  0.22141992  0.37075509  1  0  0.127768  0  0.962589  0  0  0.147013  0  1.02262  0  0  0.14867  0  1.023249  0  0.043833  0  0.09229  0.145841  0  1.022218  0
H  H63  1  0.86621017  0.27858253  0.87075509  1  0  0.127809  0  0.962556  0  0  0.147046  0  1.022591  0  0  0.148705  0  1.023218  0  0.043901  0  0.092306  0.145874  0  1.022189  0
C  C64  1  0.26578202  0.63134694  0.99539574  1  0  -0.130731  0  3.655112  0  0  -0.099013  0  3.943534  0  0  -0.103521  0  3.968238  0  -0.133985  0  -0.114714  -0.095634  0  3.926409  0
C  C65  1  0.23421619  0.86865631  0.49539665  1  0  -0.130798  0  3.655178  0  0  -0.099058  0  3.943585  0  0  -0.103565  0  3.968292  0  -0.133726  0  -0.114745  -0.095675  0  3.926453  0
C  C66  1  0.73421087  0.36864770  0.00460426  1  0  -0.130669  0  3.655005  0  0  -0.098948  0  3.943416  0  0  -0.103454  0  3.968119  0  -0.133631  0  -0.114664  -0.095568  0  3.926292  0
C  C67  1  0.76578672  0.13134551  0.50460517  1  0  -0.130723  0  3.655144  0  0  -0.098976  0  3.943534  0  0  -0.103482  0  3.96824  0  -0.133948  0  -0.114716  -0.095596  0  3.926408  0
C  C68  1  0.39046074  0.71545100  0.03384734  1  0  -0.110099  0  3.780851  0  0  -0.121377  0  4.020841  0  0  -0.128288  0  4.046188  0  -0.035539  0  -0.092968  -0.116931  0  4.003717  0
C  C69  1  0.10953498  0.78455224  0.53384780  1  0  -0.109968  0  3.780906  0  0  -0.121259  0  4.020873  0  0  -0.128172  0  4.046226  0  -0.035949  0  -0.092898  -0.116811  0  4.003746  0
C  C70  1  0.60952877  0.28454466  0.96615266  1  0  -0.109971  0  3.781011  0  0  -0.121225  0  4.020961  0  0  -0.128138  0  4.046311  0  -0.035812  0  -0.092905  -0.116778  0  4.003836  0
C  C71  1  0.89046544  0.21544958  0.46615266  1  0  -0.109998  0  3.780857  0  0  -0.121282  0  4.020839  0  0  -0.128195  0  4.046192  0  -0.035756  0  -0.092929  -0.116835  0  4.003714  0
C  C72  1  0.46371868  0.65800722  0.08036663  1  0  0.118968  0  3.70209  0  0  0.086949  0  3.946158  0  0  0.093445  0  3.965553  0  0.405313  0  0.040609  0.082414  0  3.933821  0
C  C73  1  0.03627454  0.84199602  0.58036618  1  0  0.118827  0  3.702209  0  0  0.086782  0  3.946293  0  0  0.093286  0  3.965672  0  0.405266  0  0.040553  0.082238  0  3.933971  0
C  C74  1  0.53626977  0.34199255  0.91963473  1  0  0.118907  0  3.702318  0  0  0.086829  0  3.946407  0  0  0.093336  0  3.965781  0  0.405253  0  0.040596  0.082278  0  3.934092  0
C  C75  1  0.96372427  0.15800477  0.41963428  1  0  0.118811  0  3.702225  0  0  0.086752  0  3.946318  0  0  0.093258  0  3.965692  0  0.405302  0  0.040506  0.082208  0  3.933999  0
C  C76  1  0.29971907  0.43856886  0.05446097  1  0  0.11904  0  3.702939  0  0  0.089395  0  3.948152  0  0  0.096358  0  3.967135  0  0.42095  0  0.041012  0.085074  0  3.935227  0
C  C77  1  0.20027929  0.06143564  0.55446188  1  0  0.119049  0  3.702995  0  0  0.089395  0  3.948191  0  0  0.096354  0  3.967177  0  0.420851  0  0.041009  0.085075  0  3.935266  0
C  C78  1  0.70028115  0.56142885  0.94554039  1  0  0.119155  0  3.703191  0  0  0.089496  0  3.948384  0  0  0.096439  0  3.967362  0  0.420832  0  0.041025  0.085177  0  3.93546  0
C  C79  1  0.79972487  0.93856618  0.44553948  1  0  0.11906  0  3.703142  0  0  0.089413  0  3.948332  0  0  0.096372  0  3.967316  0  0.420846  0  0.040979  0.085092  0  3.935405  0
C  C80  1  0.22120809  0.48980422  0.00689410  1  0  -0.132102  0  3.797265  0  0  -0.145981  0  4.044973  0  0  -0.153833  0  4.0729  0  0.014724  0  -0.100735  -0.140955  0  4.02612  0
C  C81  1  0.27879079  0.01019823  0.50689592  1  0  -0.132091  0  3.797354  0  0  -0.145978  0  4.04505  0  0  -0.153829  0  4.072976  0  0.014677  0  -0.100713  -0.140937  0  4.026192  0
C  C82  1  0.77878891  0.51019144  0.99310544  1  0  -0.132235  0  3.797325  0  0  -0.146127  0  4.04507  0  0  -0.153976  0  4.072991  0  0.014425  0  -0.100783  -0.141104  0  4.026201  0
C  C83  1  0.72121587  0.98980359  0.49310590  1  0  -0.132222  0  3.797309  0  0  -0.146119  0  4.045035  0  0  -0.15397  0  4.072959  0  0.014837  0  -0.100737  -0.141084  0  4.026179  0
C  C84  1  0.11310122  0.82126093  0.84404340  1  0  -0.139126  0  3.677189  0  0  -0.104494  0  3.960694  0  0  -0.110164  0  3.987635  0  -0.132585  0  -0.118615  -0.100378  0  3.942361  0
C  C85  1  0.38690074  0.67874231  0.34404430  1  0  -0.13913  0  3.677228  0  0  -0.104506  0  3.960729  0  0  -0.110175  0  3.987669  0  -0.132655  0  -0.118625  -0.100389  0  3.942394  0
C  C86  1  0.88689848  0.17873884  0.15595615  1  0  -0.139069  0  3.677243  0  0  -0.104435  0  3.960741  0  0  -0.110106  0  3.987684  0  -0.132629  0  -0.118602  -0.100319  0  3.942409  0
C  C87  1  0.61310306  0.32125848  0.65595751  1  0  -0.139073  0  3.677144  0  0  -0.104445  0  3.96065  0  0  -0.110114  0  3.987591  0  -0.132572  0  -0.118572  -0.100329  0  3.942316  0
C  C88  1  0.14257088  0.96394066  0.84054176  1  0  -0.130646  0  3.793106  0  0  -0.142662  0  4.032516  0  0  -0.150403  0  4.059416  0  -0.017895  0  -0.097905  -0.137708  0  4.014837  0
C  C89  1  0.35743019  0.53606361  0.34054221  1  0  -0.130658  0  3.793166  0  0  -0.142654  0  4.032565  0  0  -0.150396  0  4.059467  0  -0.01769  0  -0.097906  -0.137704  0  4.014892  0
C  C90  1  0.85743006  0.03605911  0.15945779  1  0  -0.130669  0  3.793147  0  0  -0.142664  0  4.032545  0  0  -0.150406  0  4.059448  0  -0.017891  0  -0.097904  -0.137709  0  4.014865  0
C  C91  1  0.64257148  0.46393821  0.65945824  1  0  -0.130648  0  3.793068  0  0  -0.142654  0  4.032461  0  0  -0.150395  0  4.05936  0  -0.017844  0  -0.097895  -0.137705  0  4.014787  0
C  C92  1  0.10265423  0.02354479  0.78745997  1  0  0.127418  0  3.679635  0  0  0.098609  0  3.921234  0  0  0.105609  0  3.939873  0  0.404597  0  0.042963  0.094345  0  3.908244  0
C  C93  1  0.39734626  0.47645869  0.28745997  1  0  0.127353  0  3.679553  0  0  0.098561  0  3.921153  0  0  0.10556  0  3.939797  0  0.404452  0  0.042932  0.094292  0  3.908168  0
C  C94  1  0.89734708  0.97645601  0.21254048  1  0  0.12734  0  3.679691  0  0  0.098538  0  3.921279  0  0  0.105532  0  3.93992  0  0.404617  0  0.042935  0.094275  0  3.908288  0
C  C95  1  0.60265255  0.52354211  0.71254048  1  0  0.127364  0  3.679526  0  0  0.098585  0  3.921125  0  0  0.105577  0  3.939761  0  0.40453  0  0.042952  0.094318  0  3.90814  0
C  C96  1  0.00066496  0.81093956  0.74152111  1  0  0.135954  0  3.704941  0  0  0.104334  0  3.951157  0  0  0.11141  0  3.970441  0  0.48313  0  0.045498  0.099661  0  3.938278  0
C  C97  1  0.49933502  0.68906163  0.24152111  1  0  0.135923  0  3.704828  0  0  0.104305  0  3.951035  0  0  0.111381  0  3.970323  0  0.483113  0  0.045511  0.099633  0  3.938155  0
C  C98  1  0.99933598  0.18906021  0.25847889  1  0  0.135873  0  3.704952  0  0  0.104257  0  3.951168  0  0  0.111328  0  3.970455  0  0.48313  0  0.04548  0.099585  0  3.938288  0
C  C99  1  0.50066556  0.31093711  0.75847980  1  0  0.135921  0  3.704789  0  0  0.104326  0  3.950999  0  0  0.11139  0  3.970279  0  0.483096  0  0.04551  0.099654  0  3.938118  0
C  C100  1  0.04066113  0.74504104  0.79250546  1  0  -0.120809  0  3.779867  0  0  -0.134688  0  4.022307  0  0  -0.141681  0  4.048155  0  -0.05036  0  -0.098547  -0.130199  0  4.004814  0
C  C101  1  0.45934047  0.75496117  0.29250546  1  0  -0.120774  0  3.779691  0  0  -0.134631  0  4.02212  0  0  -0.141626  0  4.047967  0  -0.050414  0  -0.09851  -0.130142  0  4.004626  0
C  C102  1  0.95933981  0.25495872  0.20749409  1  0  -0.120815  0  3.779902  0  0  -0.134695  0  4.022337  0  0  -0.141689  0  4.04819  0  -0.050336  0  -0.098545  -0.130206  0  4.004843  0
C  C103  1  0.54066172  0.24503859  0.70749545  1  0  -0.120848  0  3.779836  0  0  -0.134748  0  4.022263  0  0  -0.141741  0  4.048109  0  -0.050432  0  -0.098577  -0.130258  0  4.004768  0
C  C104  1  0.08815647  0.33593395  0.65196598  1  0  0.734595  0  3.86943  0  0  0.698526  0  4.155757  0  0  0.731919  0  4.149059  0  1.556076  0  0.195873  0.675861  0  4.159172  0
C  C105  1  0.41184240  0.16406850  0.15196507  1  0  0.734387  0  3.869063  0  0  0.698466  0  4.155235  0  0  0.731861  0  4.148539  0  1.556113  0  0.195894  0.675802  0  4.158648  0
C  C106  1  0.91184680  0.66406890  0.34803311  1  0  0.734525  0  3.869636  0  0  0.698533  0  4.155869  0  0  0.731927  0  4.149171  0  1.556164  0  0.195851  0.675867  0  4.159285  0
C  C107  1  0.58815495  0.83592819  0.84803221  1  0  0.734498  0  3.869571  0  0  0.698526  0  4.155773  0  0  0.73192  0  4.149078  0  1.556142  0  0.195876  0.67586  0  4.159187  0
C  C108  1  0.15441951  0.48256859  0.67416940  1  0  -0.447733  0  3.662395  0  0  -0.519355  0  3.886988  0  0  -0.527012  0  3.891287  0  -0.119519  0  -0.250402  -0.513751  0  3.883787  0
C  C109  1  0.34557865  0.01743180  0.17416803  1  0  -0.447785  0  3.662454  0  0  -0.519491  0  3.887013  0  0  -0.52715  0  3.891311  0  -0.119541  0  -0.25048  -0.513883  0  3.883812  0
C  C110  1  0.84558252  0.51743425  0.32582969  1  0  -0.44768  0  3.662448  0  0  -0.519329  0  3.887008  0  0  -0.526985  0  3.891311  0  -0.119558  0  -0.250387  -0.513727  0  3.883805  0
C  C111  1  0.65441835  0.98256386  0.82583015  1  0  -0.447729  0  3.66245  0  0  -0.519406  0  3.887025  0  0  -0.527063  0  3.891323  0  -0.119263  0  -0.250417  -0.513804  0  3.883823  0
C  C112  1  0.62768725  0.89003790  0.65335608  1  0  0.738111  0  3.849137  0  0  0.698019  0  4.14174  0  0  0.731549  0  4.133806  0  1.572271  0  0.202688  0.675306  0  4.146294  0
C  C113  1  0.87231273  0.60996124  0.15335471  1  0  0.738109  0  3.849139  0  0  0.697994  0  4.141769  0  0  0.731537  0  4.13382  0  1.57227  0  0.202673  0.675281  0  4.146323  0
C  C114  1  0.37231566  0.10996392  0.34664483  1  0  0.737991  0  3.849063  0  0  0.697877  0  4.141711  0  0  0.731403  0  4.133782  0  1.572042  0  0.202626  0.675164  0  4.146268  0
C  C115  1  0.12768894  0.39004058  0.84664483  1  0  0.738108  0  3.84917  0  0  0.698002  0  4.141782  0  0  0.731536  0  4.133842  0  1.572264  0  0.202662  0.67529  0  4.146336  0
C  C116  1  0.43296760  0.86176650  0.65977757  1  0  -0.458126  0  3.664026  0  0  -0.533636  0  3.89487  0  0  -0.541337  0  3.898701  0  -0.092389  0  -0.252039  -0.528105  0  3.89201  0
C  C117  1  0.06703327  0.63823366  0.15977711  1  0  -0.458121  0  3.664085  0  0  -0.533647  0  3.894914  0  0  -0.541354  0  3.898744  0  -0.092389  0  -0.252033  -0.52812  0  3.89205  0
C  C118  1  0.56703531  0.13823532  0.34022289  1  0  -0.457864  0  3.664022  0  0  -0.533409  0  3.894853  0  0  -0.541112  0  3.898692  0  -0.092163  0  -0.251956  -0.527881  0  3.891992  0
C  C119  1  0.93296839  0.36176816  0.84022289  1  0  -0.458095  0  3.664018  0  0  -0.5336  0  3.894865  0  0  -0.541306  0  3.8987  0  -0.092366  0  -0.252013  -0.528072  0  3.892001  0
N  N120  1  0.41932343  0.52149179  0.09094068  1  0  -0.33865  0  3.328234  0  0  -0.248065  0  3.608079  0  0  -0.268536  0  3.623168  0  -1.267969  0  -0.336378  -0.234191  0  3.59761  0
N  N121  1  0.08067301  0.97851351  0.59094023  1  0  -0.338583  0  3.328134  0  0  -0.247942  0  3.607903  0  0  -0.268415  0  3.622995  0  -1.2679  0  -0.336323  -0.23407  0  3.597434  0
N  N122  1  0.58067377  0.47850798  0.90906114  1  0  -0.338683  0  3.328304  0  0  -0.247993  0  3.608029  0  0  -0.268468  0  3.623125  0  -1.267785  0  -0.336364  -0.234121  0  3.597562  0
N  N123  1  0.91932865  0.02148831  0.40905977  1  0  -0.338607  0  3.328326  0  0  -0.247948  0  3.608065  0  0  -0.268423  0  3.623162  0  -1.26804  0  -0.336289  -0.234075  0  3.597596  0
N  N124  1  0.03238509  0.94840011  0.73849982  1  0  -0.340822  0  3.306632  0  0  -0.249654  0  3.577102  0  0  -0.270071  0  3.592542  0  -1.276929  0  -0.335984  -0.235993  0  3.566646  0
N  N125  1  0.46761490  0.55160108  0.23849891  1  0  -0.340744  0  3.306443  0  0  -0.249572  0  3.576886  0  0  -0.269993  0  3.592332  0  -1.27691  0  -0.335956  -0.235908  0  3.566425  0
N  N126  1  0.96761460  0.05159966  0.26150064  1  0  -0.340702  0  3.306554  0  0  -0.249544  0  3.577011  0  0  -0.269949  0  3.592443  0  -1.276949  0  -0.335955  -0.235882  0  3.566552  0
N  N127  1  0.53238730  0.44839869  0.76150109  1  0  -0.340761  0  3.306366  0  0  -0.249625  0  3.576839  0  0  -0.270018  0  3.592261  0  -1.276873  0  -0.336004  -0.235963  0  3.566382  0
O  O128  1  0.07757770  0.24010983  0.69211063  1  0  -0.660627  0  2.006234  0  0  -0.581169  0  2.269052  0  0  -0.611117  0  2.255356  0  -1.174077  0  -0.339284  -0.560246  0  2.277817  0
O  O129  1  0.42242939  0.25989467  0.19210835  1  0  -0.660492  0  2.006215  0  0  -0.581152  0  2.269058  0  0  -0.611087  0  2.255337  0  -1.174003  0  -0.339296  -0.560229  0  2.277826  0
O  O130  1  0.92243057  0.75989302  0.30788937  1  0  -0.660556  0  2.006278  0  0  -0.581175  0  2.269124  0  0  -0.61112  0  2.255423  0  -1.174096  0  -0.33926  -0.560249  0  2.277886  0
O  O131  1  0.57757119  0.74010407  0.80788846  1  0  -0.660504  0  2.006285  0  0  -0.581118  0  2.269107  0  0  -0.611063  0  2.255405  0  -1.174072  0  -0.339241  -0.560195  0  2.277871  0
O  O132  1  0.04563942  0.31296280  0.59713110  1  0  -0.671654  0  1.924145  0  0  -0.620162  0  2.151207  0  0  -0.644432  0  2.140385  0  -1.195767  0  -0.347762  -0.602745  0  2.157803  0
O  O133  1  0.45435463  0.18703657  0.09712518  1  0  -0.671553  0  1.923707  0  0  -0.620106  0  2.150702  0  0  -0.644379  0  2.139883  0  -1.195788  0  -0.347743  -0.602687  0  2.157296  0
O  O134  1  0.95436189  0.68703799  0.40286890  1  0  -0.671632  0  1.924167  0  0  -0.620163  0  2.15119  0  0  -0.644434  0  2.140368  0  -1.195756  0  -0.347762  -0.602746  0  2.157787  0
O  O135  1  0.54563879  0.81295601  0.90286936  1  0  -0.671632  0  1.924131  0  0  -0.620176  0  2.151154  0  0  -0.644449  0  2.140337  0  -1.195765  0  -0.347786  -0.602758  0  2.15775  0
O  O136  1  0.71863147  0.01770990  0.66089838  1  0  -0.686538  0  2.070584  0  0  -0.596506  0  2.34751  0  0  -0.626285  0  2.329986  0  -1.173051  0  -0.339893  -0.575779  0  2.35889  0
O  O137  1  0.78136954  0.48228947  0.16089702  1  0  -0.686497  0  2.070595  0  0  -0.596497  0  2.347581  0  0  -0.626281  0  2.330052  0  -1.173049  0  -0.339878  -0.575769  0  2.358959  0
O  O138  1  0.28137269  0.98229192  0.33910298  1  0  -0.686549  0  2.070631  0  0  -0.596512  0  2.347558  0  0  -0.626289  0  2.330034  0  -1.172979  0  -0.339891  -0.575785  0  2.358939  0
O  O139  1  0.21863177  0.51771132  0.83910389  1  0  -0.686486  0  2.070611  0  0  -0.596499  0  2.347629  0  0  -0.62628  0  2.330105  0  -1.173074  0  -0.339888  -0.575772  0  2.359007  0
O  O140  1  0.69309451  0.79414399  0.64310180  1  0  -0.63099  0  1.933802  0  0  -0.583578  0  2.156294  0  0  -0.606945  0  2.147177  0  -1.201689  0  -0.3202  -0.567368  0  2.162337  0
O  O141  1  0.80690298  0.70585515  0.14309953  1  0  -0.631028  0  1.933793  0  0  -0.583562  0  2.156245  0  0  -0.606931  0  2.147119  0  -1.20169  0  -0.320189  -0.567351  0  2.162286  0
O  O142  1  0.30690877  0.20585885  0.35689865  1  0  -0.630958  0  1.933726  0  0  -0.583508  0  2.156196  0  0  -0.606875  0  2.147083  0  -1.201714  0  -0.320186  -0.567298  0  2.16224  0
O  O143  1  0.19309708  0.29414565  0.85689865  1  0  -0.631037  0  1.933849  0  0  -0.583585  0  2.156307  0  0  -0.606951  0  2.147187  0  -1.20166  0  -0.320185  -0.567376  0  2.162349  0
