# generated using pymatgen
data_CdH6(C3N5)2
_symmetry_space_group_name_H-M   'P 1'
_cell_length_a   6.30373342
_cell_length_b   10.34050901
_cell_length_c   15.08333385
_cell_angle_alpha   90.00022328
_cell_angle_beta   89.99981225
_cell_angle_gamma   90.00031331
_symmetry_Int_Tables_number   1
_chemical_formula_structural   CdH6(C3N5)2
_chemical_formula_sum   'Cd4 H24 C24 N40'
_cell_volume   983.18920144
_cell_formula_units_Z   4
loop_
 _symmetry_equiv_pos_site_id
 _symmetry_equiv_pos_as_xyz
  1  'x, y, z'
loop_
 _atom_site_type_symbol
 _atom_site_label
 _atom_site_symmetry_multiplicity
 _atom_site_fract_x
 _atom_site_fract_y
 _atom_site_fract_z
 _atom_site_occupancy
 _atom_site_hle17_bader_spin_density
 _atom_site_hle17_ddec_charge
 _atom_site_hle17_ddec_spin_density
 _atom_site_hle17_ddec_sum_bond_order
 _atom_site_hle17_magmom
 _atom_site_hse06_10hf_bader_spin_density
 _atom_site_hse06_10hf_ddec_charge
 _atom_site_hse06_10hf_ddec_spin_density
 _atom_site_hse06_10hf_ddec_sum_bond_order
 _atom_site_hse06_10hf_magmom
 _atom_site_hse06_bader_spin_density
 _atom_site_hse06_ddec_charge
 _atom_site_hse06_ddec_spin_density
 _atom_site_hse06_ddec_sum_bond_order
 _atom_site_hse06_magmom
 _atom_site_pbe_bader_spin_density
 _atom_site_pbe_cm5_charge
 _atom_site_pbe_ddec_charge
 _atom_site_pbe_ddec_spin_density
 _atom_site_pbe_ddec_sum_bond_order
 _atom_site_pbe_magmom
Cd  Cd0  1  0.24999388  0.99999697  0.43387207  1  0  1.040382  0  1.840476  0  0  0.858402  0  2.2957  0  0  0.904477  0  2.258057  0  0  0.796565  0.825247  0  2.320503  0
Cd  Cd1  1  0.74999696  0.49999922  0.06612940  1  0  1.040408  0  1.840374  0  0  0.858422  0  2.295576  0  0  0.904498  0  2.257934  0  0  0.796631  0.825285  0  2.320376  0
Cd  Cd2  1  0.74999391  0.99999538  0.56612828  1  0  1.040428  0  1.840401  0  0  0.85845  0  2.295606  0  0  0.904525  0  2.257964  0  0  0.796583  0.825292  0  2.32041  0
Cd  Cd3  1  0.25000114  0.49999884  0.93387028  1  0  1.04041  0  1.8404  0  0  0.858413  0  2.295618  0  0  0.904488  0  2.257974  0  0  0.796622  0.825277  0  2.32042  0
H  H4  1  0.05250087  0.95240514  0.09791989  1  0  0.312491  0  0.891551  0  0  0.289209  0  0.964058  0  0  0.29628  0  0.95809  0  0  0.321931  0.284085  0  0.968772  0
H  H5  1  0.55251452  0.54758838  0.40209313  1  0  0.31246  0  0.891371  0  0  0.289199  0  0.963926  0  0  0.296254  0  0.95796  0  0  0.321817  0.284076  0  0.968641  0
H  H6  1  0.94749436  0.45240715  0.40208742  1  0  0.312486  0  0.891469  0  0  0.289261  0  0.96398  0  0  0.296314  0  0.958015  0  0  0.321869  0.284142  0  0.968684  0
H  H7  1  0.44749813  0.04758484  0.09790184  1  0  0.312367  0  0.891423  0  0  0.2891  0  0.964001  0  0  0.296158  0  0.958034  0  0  0.321714  0.283972  0  0.968716  0
H  H8  1  0.94749882  0.04759388  0.90209570  1  0  0.312386  0  0.891443  0  0  0.289137  0  0.964018  0  0  0.296194  0  0.958052  0  0  0.321734  0.284007  0  0.968732  0
H  H9  1  0.44749945  0.45240774  0.59791517  1  0  0.312504  0  0.891539  0  0  0.289209  0  0.964099  0  0  0.296261  0  0.958135  0  0  0.321874  0.28409  0  0.968811  0
H  H10  1  0.05250851  0.54759188  0.59790564  1  0  0.312435  0  0.891362  0  0  0.289194  0  0.963927  0  0  0.296249  0  0.957961  0  0  0.321809  0.284073  0  0.968636  0
H  H11  1  0.55250157  0.95241031  0.90208127  1  0  0.312555  0  0.891512  0  0  0.289249  0  0.964033  0  0  0.296306  0  0.958075  0  0  0.321918  0.284123  0  0.968746  0
H  H12  1  0.77816306  0.81641290  0.33589974  1  0  0.107991  0  0.967565  0  0  0.110679  0  1.038783  0  0  0.11301  0  1.038407  0  0  0.112183  0.109033  0  1.039066  0
H  H13  1  0.27817217  0.68357662  0.16410832  1  0  0.108032  0  0.967687  0  0  0.110742  0  1.038882  0  0  0.113065  0  1.038497  0  0  0.112209  0.109101  0  1.039156  0
H  H14  1  0.22183109  0.31641761  0.16409926  1  0  0.108095  0  0.967633  0  0  0.110771  0  1.038843  0  0  0.113101  0  1.038463  0  0  0.112227  0.109126  0  1.039128  0
H  H15  1  0.72181617  0.18357354  0.33589032  1  0  0.108002  0  0.967868  0  0  0.110742  0  1.038982  0  0  0.113064  0  1.038595  0  0  0.112207  0.109101  0  1.039284  0
H  H16  1  0.22180332  0.18357645  0.66410327  1  0  0.107991  0  0.967938  0  0  0.110687  0  1.039119  0  0  0.113008  0  1.038733  0  0  0.112246  0.109049  0  1.039421  0
H  H17  1  0.72183228  0.31642337  0.83589998  1  0  0.108006  0  0.967488  0  0  0.110698  0  1.0387  0  0  0.113033  0  1.038325  0  0  0.11219  0.109055  0  1.038973  0
H  H18  1  0.77817971  0.68357755  0.83589512  1  0  0.108052  0  0.967781  0  0  0.110745  0  1.038979  0  0  0.113066  0  1.038593  0  0  0.112232  0.109107  0  1.039238  0
H  H19  1  0.27815497  0.81641484  0.66409876  1  0  0.108058  0  0.967289  0  0  0.110708  0  1.038556  0  0  0.113044  0  1.038183  0  0  0.112189  0.109065  0  1.038829  0
H  H20  1  0.73589834  0.82292841  0.15222752  1  0  0.110206  0  0.969462  0  0  0.114918  0  1.038637  0  0  0.117117  0  1.03824  0  0  0.118828  0.113287  0  1.039056  0
H  H21  1  0.23590603  0.67707159  0.34777663  1  0  0.11016  0  0.969533  0  0  0.114868  0  1.038731  0  0  0.117031  0  1.038397  0  0  0.118801  0.113243  0  1.039145  0
H  H22  1  0.26409903  0.32292370  0.34777017  1  0  0.110139  0  0.969444  0  0  0.114846  0  1.038636  0  0  0.11704  0  1.038277  0  0  0.118761  0.113219  0  1.039049  0
H  H23  1  0.76410129  0.17707341  0.15222797  1  0  0.110162  0  0.969501  0  0  0.11489  0  1.038659  0  0  0.117071  0  1.038309  0  0  0.118777  0.11326  0  1.039072  0
H  H24  1  0.26409500  0.17708221  0.84776355  1  0  0.110207  0  0.969569  0  0  0.114873  0  1.038765  0  0  0.117089  0  1.038378  0  0  0.118764  0.113246  0  1.039182  0
H  H25  1  0.76410001  0.32292744  0.65222903  1  0  0.11017  0  0.969445  0  0  0.114895  0  1.038617  0  0  0.117082  0  1.038254  0  0  0.118794  0.113268  0  1.03903  0
H  H26  1  0.73590542  0.67707726  0.65222952  1  0  0.110091  0  0.969556  0  0  0.114817  0  1.03872  0  0  0.117035  0  1.038325  0  0  0.118738  0.113189  0  1.039132  0
H  H27  1  0.23589523  0.82293045  0.84777570  1  0  0.110169  0  0.969339  0  0  0.114856  0  1.038583  0  0  0.117039  0  1.038206  0  0  0.118812  0.113225  0  1.039  0
C  C28  1  0.88265070  0.85732776  0.28615939  1  0  0.019118  0  3.708567  0  0  -0.01216  0  3.976738  0  0  -0.01065  0  3.996859  0  0  -0.000971  -0.013299  0  3.963398  0
C  C29  1  0.38263532  0.64267665  0.21384322  1  0  0.019234  0  3.709611  0  0  -0.012091  0  3.977773  0  0  -0.010557  0  3.997873  0  0  -0.001038  -0.01323  0  3.964436  0
C  C30  1  0.11735488  0.35732270  0.21384038  1  0  0.018914  0  3.709542  0  0  -0.012367  0  3.977701  0  0  -0.010847  0  3.997821  0  0  -0.001123  -0.013502  0  3.964354  0
C  C31  1  0.61738125  0.14268063  0.28616327  1  0  0.019262  0  3.710007  0  0  -0.012093  0  3.97823  0  0  -0.010556  0  3.998328  0  0  -0.001066  -0.013259  0  3.96491  0
C  C32  1  0.11738072  0.14268963  0.71383168  1  0  0.0192  0  3.710069  0  0  -0.012143  0  3.978307  0  0  -0.010604  0  3.998411  0  0  -0.001182  -0.013309  0  3.964995  0
C  C33  1  0.61735327  0.35733204  0.78615713  1  0  0.019173  0  3.709149  0  0  -0.012117  0  3.977289  0  0  -0.010612  0  3.997424  0  0  -0.000947  -0.013249  0  3.963939  0
C  C34  1  0.88263053  0.64268213  0.78616129  1  0  0.019128  0  3.709784  0  0  -0.012196  0  3.977964  0  0  -0.010659  0  3.99807  0  0  -0.001144  -0.013335  0  3.964627  0
C  C35  1  0.38265492  0.85733580  0.71384835  1  0  0.019103  0  3.70892  0  0  -0.012142  0  3.977067  0  0  -0.010644  0  3.997203  0  0  -0.000951  -0.013278  0  3.963727  0
C  C36  1  0.85955203  0.85930222  0.19527035  1  0  0.013518  0  3.652592  0  0  -0.028375  0  3.921656  0  0  -0.026337  0  3.94093  0  0  0.003635  -0.029664  0  3.909094  0
C  C37  1  0.35954072  0.64070695  0.30471505  1  0  0.013452  0  3.652512  0  0  -0.028345  0  3.921601  0  0  -0.026327  0  3.940869  0  0  0.003705  -0.029627  0  3.909033  0
C  C38  1  0.14045515  0.35929389  0.30471617  1  0  0.013619  0  3.65251  0  0  -0.028208  0  3.921566  0  0  -0.026222  0  3.940812  0  0  0.003773  -0.029493  0  3.908993  0
C  C39  1  0.64048218  0.14071533  0.19530005  1  0  0.013541  0  3.652141  0  0  -0.02829  0  3.921219  0  0  -0.026291  0  3.940471  0  0  0.003791  -0.029576  0  3.90866  0
C  C40  1  0.14048732  0.14072582  0.80469486  1  0  0.013519  0  3.652094  0  0  -0.028218  0  3.92116  0  0  -0.026248  0  3.94039  0  0  0.003796  -0.029506  0  3.908605  0
C  C41  1  0.64045104  0.35930175  0.69527999  1  0  0.013483  0  3.652747  0  0  -0.028364  0  3.921814  0  0  -0.026369  0  3.941081  0  0  0.003664  -0.029646  0  3.90924  0
C  C42  1  0.85953344  0.64071287  0.69529280  1  0  0.013562  0  3.652392  0  0  -0.028217  0  3.921451  0  0  -0.026246  0  3.940682  0  0  0.003835  -0.029502  0  3.908882  0
C  C43  1  0.35956193  0.85931174  0.80473013  1  0  0.013611  0  3.65286  0  0  -0.028242  0  3.921895  0  0  -0.026211  0  3.941174  0  0  0.0037  -0.029527  0  3.909327  0
C  C44  1  0.15260617  0.96360052  0.23250547  1  0  0.255751  0  3.81119  0  0  0.228485  0  4.070811  0  0  0.240248  0  4.085839  0  0  0.213374  0.220669  0  4.060693  0
C  C45  1  0.65262549  0.53638854  0.26749084  1  0  0.255497  0  3.811122  0  0  0.228472  0  4.070636  0  0  0.240157  0  4.085705  0  0  0.213487  0.220681  0  4.0605  0
C  C46  1  0.84739073  0.46360622  0.26749127  1  0  0.25558  0  3.811145  0  0  0.228396  0  4.070793  0  0  0.240118  0  4.085822  0  0  0.21335  0.220577  0  4.060679  0
C  C47  1  0.34735534  0.03638250  0.23251338  1  0  0.255438  0  3.811264  0  0  0.228437  0  4.070747  0  0  0.240118  0  4.085821  0  0  0.213569  0.220645  0  4.0606  0
C  C48  1  0.84734752  0.03638593  0.76748494  1  0  0.255419  0  3.811315  0  0  0.228434  0  4.070788  0  0  0.240123  0  4.085864  0  0  0.213594  0.220648  0  4.060632  0
C  C49  1  0.34739165  0.46361145  0.73250818  1  0  0.255556  0  3.811204  0  0  0.228366  0  4.070824  0  0  0.240095  0  4.085841  0  0  0.213345  0.220547  0  4.060708  0
C  C50  1  0.15263275  0.53638991  0.73251107  1  0  0.255576  0  3.811144  0  0  0.228574  0  4.070661  0  0  0.24026  0  4.085725  0  0  0.213536  0.220798  0  4.060505  0
C  C51  1  0.65259835  0.96360008  0.76749625  1  0  0.255797  0  3.811103  0  0  0.228568  0  4.070692  0  0  0.2403  0  4.085728  0  0  0.213426  0.22075  0  4.060575  0
N  N52  1  0.06582381  0.92187342  0.30856426  1  0  -0.423885  0  3.195978  0  0  -0.354705  0  3.465768  0  0  -0.373588  0  3.482945  0  0  -0.353151  -0.341616  0  3.453711  0
N  N53  1  0.56579961  0.57812982  0.19143814  1  0  -0.424051  0  3.196314  0  0  -0.35487  0  3.465991  0  0  -0.373756  0  3.483196  0  0  -0.353227  -0.341778  0  3.453925  0
N  N54  1  0.93419338  0.42187224  0.19143436  1  0  -0.423848  0  3.196199  0  0  -0.354662  0  3.465963  0  0  -0.373553  0  3.483155  0  0  -0.353113  -0.341569  0  3.453905  0
N  N55  1  0.43421486  0.07813228  0.30855823  1  0  -0.424104  0  3.196528  0  0  -0.35496  0  3.46627  0  0  -0.373848  0  3.483474  0  0  -0.353325  -0.341867  0  3.454207  0
N  N56  1  0.93421237  0.07813817  0.69144140  1  0  -0.424122  0  3.196596  0  0  -0.354927  0  3.466233  0  0  -0.373818  0  3.483435  0  0  -0.353359  -0.341836  0  3.454169  0
N  N57  1  0.43419373  0.42188081  0.80856619  1  0  -0.423924  0  3.196148  0  0  -0.35473  0  3.465941  0  0  -0.373612  0  3.483111  0  0  -0.353169  -0.341637  0  3.453884  0
N  N58  1  0.06579203  0.57813162  0.80856334  1  0  -0.424111  0  3.196438  0  0  -0.354912  0  3.466093  0  0  -0.373801  0  3.483293  0  0  -0.35325  -0.341826  0  3.454022  0
N  N59  1  0.56581815  0.92187642  0.69143283  1  0  -0.423948  0  3.196142  0  0  -0.354783  0  3.465938  0  0  -0.373662  0  3.483124  0  0  -0.353211  -0.341696  0  3.453884  0
N  N60  1  0.03070551  0.92675761  0.16271855  1  0  -0.308324  0  3.460001  0  0  -0.245342  0  3.691596  0  0  -0.260327  0  3.706714  0  0  -0.371939  -0.235259  0  3.681395  0
N  N61  1  0.53071984  0.57323969  0.33727197  1  0  -0.308216  0  3.459121  0  0  -0.245483  0  3.690957  0  0  -0.260369  0  3.706012  0  0  -0.37184  -0.235397  0  3.680748  0
N  N62  1  0.96929269  0.42675643  0.33727013  1  0  -0.308254  0  3.459343  0  0  -0.245471  0  3.691031  0  0  -0.260363  0  3.706081  0  0  -0.371877  -0.235374  0  3.680827  0
N  N63  1  0.46927397  0.07323758  0.16273169  1  0  -0.30827  0  3.458412  0  0  -0.245476  0  3.690161  0  0  -0.260369  0  3.705228  0  0  -0.371845  -0.235387  0  3.679946  0
N  N64  1  0.96927198  0.07324431  0.83726655  1  0  -0.308273  0  3.458307  0  0  -0.245563  0  3.690106  0  0  -0.260458  0  3.705176  0  0  -0.371805  -0.235474  0  3.679891  0
N  N65  1  0.46929730  0.42676126  0.66272374  1  0  -0.308264  0  3.459677  0  0  -0.245401  0  3.691442  0  0  -0.260293  0  3.706487  0  0  -0.371863  -0.235312  0  3.681239  0
N  N66  1  0.03071652  0.57324260  0.66273221  1  0  -0.308153  0  3.458805  0  0  -0.245505  0  3.690692  0  0  -0.260398  0  3.705764  0  0  -0.371852  -0.23542  0  3.680475  0
N  N67  1  0.53069875  0.92675757  0.83728126  1  0  -0.308431  0  3.460285  0  0  -0.245479  0  3.691967  0  0  -0.260404  0  3.707038  0  0  -0.371954  -0.235399  0  3.681767  0
N  N68  1  0.98598910  0.14393615  0.47604145  1  0  -0.602445  0  2.711837  0  0  -0.55483  0  3.013083  0  0  -0.57956  0  3.020435  0  0  -0.317657  -0.536994  0  3.006636  0
N  N69  1  0.48599586  0.35605211  0.02395504  1  0  -0.602147  0  2.712512  0  0  -0.554513  0  3.013706  0  0  -0.579233  0  3.021069  0  0  -0.317606  -0.536697  0  3.007261  0
N  N70  1  0.01400686  0.64394325  0.02395708  1  0  -0.602116  0  2.712301  0  0  -0.554514  0  3.013508  0  0  -0.579234  0  3.020866  0  0  -0.317563  -0.536686  0  3.007037  0
N  N71  1  0.51400178  0.85605593  0.47604473  1  0  -0.60222  0  2.712167  0  0  -0.554617  0  3.01339  0  0  -0.579339  0  3.02075  0  0  -0.317631  -0.536787  0  3.006938  0
N  N72  1  0.01400266  0.85605417  0.52395492  1  0  -0.602237  0  2.712281  0  0  -0.55463  0  3.013493  0  0  -0.57935  0  3.020855  0  0  -0.317655  -0.536807  0  3.007047  0
N  N73  1  0.51400859  0.64394304  0.97604531  1  0  -0.602211  0  2.712193  0  0  -0.554639  0  3.013431  0  0  -0.579359  0  3.020789  0  0  -0.317574  -0.536823  0  3.006992  0
N  N74  1  0.98599600  0.35605190  0.97604525  1  0  -0.602248  0  2.712383  0  0  -0.55467  0  3.013602  0  0  -0.579392  0  3.020963  0  0  -0.317691  -0.536858  0  3.00716  0
N  N75  1  0.48598839  0.14393729  0.52395695  1  0  -0.602149  0  2.712203  0  0  -0.554551  0  3.0134  0  0  -0.579271  0  3.020754  0  0  -0.317515  -0.536721  0  3.006953  0
N  N76  1  0.03166129  0.24822914  0.50596405  1  0  0.404793  0  4.241134  0  0  0.43406  0  4.524967  0  0  0.450097  0  4.555006  0  0  0.077753  0.423425  0  4.503624  0
N  N77  1  0.53166476  0.25177578  0.99403616  1  0  0.404522  0  4.241336  0  0  0.433783  0  4.525177  0  0  0.449817  0  4.555233  0  0  0.077659  0.423149  0  4.503826  0
N  N78  1  0.96834129  0.74822121  0.99403717  1  0  0.404546  0  4.241263  0  0  0.433795  0  4.525119  0  0  0.449833  0  4.555169  0  0  0.077636  0.423162  0  4.503776  0
N  N79  1  0.46832991  0.75177189  0.50596572  1  0  0.40453  0  4.241063  0  0  0.433795  0  4.524896  0  0  0.449829  0  4.554952  0  0  0.077671  0.423164  0  4.503546  0
N  N80  1  0.96833365  0.75177279  0.49403498  1  0  0.404661  0  4.240894  0  0  0.433938  0  4.524711  0  0  0.449972  0  4.554764  0  0  0.077728  0.423305  0  4.503364  0
N  N81  1  0.46834127  0.74822324  0.00596618  1  0  0.404757  0  4.241117  0  0  0.434012  0  4.524971  0  0  0.450045  0  4.555023  0  0  0.077694  0.423375  0  4.50363  0
N  N82  1  0.03166475  0.25177395  0.00596451  1  0  0.404623  0  4.241243  0  0  0.433893  0  4.525063  0  0  0.449928  0  4.555113  0  0  0.077732  0.423261  0  4.503712  0
N  N83  1  0.53165709  0.24822036  0.49403661  1  0  0.404692  0  4.241027  0  0  0.433953  0  4.524871  0  0  0.449994  0  4.554918  0  0  0.07771  0.423319  0  4.503524  0
N  N84  1  0.07278642  0.35067783  0.53380747  1  0  -0.409182  0  2.436664  0  0  -0.410962  0  2.68782  0  0  -0.418321  0  2.696537  0  0  -0.202221  -0.40614  0  2.683037  0
N  N85  1  0.57280040  0.14931274  0.96618937  1  0  -0.409222  0  2.43605  0  0  -0.410995  0  2.687207  0  0  -0.418365  0  2.695936  0  0  -0.202251  -0.406158  0  2.682414  0
N  N86  1  0.92721062  0.85068312  0.96619004  1  0  -0.409269  0  2.436156  0  0  -0.411009  0  2.687335  0  0  -0.41838  0  2.696057  0  0  -0.202259  -0.406173  0  2.68254  0
N  N87  1  0.42719822  0.64931369  0.53381158  1  0  -0.409145  0  2.43621  0  0  -0.410898  0  2.687367  0  0  -0.418268  0  2.696098  0  0  -0.20221  -0.406073  0  2.68258  0
N  N88  1  0.92720058  0.64930959  0.46618758  1  0  -0.409278  0  2.435945  0  0  -0.41106  0  2.687134  0  0  -0.418421  0  2.695841  0  0  -0.202262  -0.406232  0  2.68235  0
N  N89  1  0.42721040  0.85068049  0.03381297  1  0  -0.409376  0  2.436155  0  0  -0.411106  0  2.687337  0  0  -0.418488  0  2.696088  0  0  -0.202287  -0.40627  0  2.682544  0
N  N90  1  0.07279701  0.14931397  0.03380965  1  0  -0.409214  0  2.436117  0  0  -0.410973  0  2.687303  0  0  -0.418338  0  2.69602  0  0  -0.202233  -0.406137  0  2.682508  0
N  N91  1  0.57279037  0.35068147  0.46619075  1  0  -0.409385  0  2.436077  0  0  -0.411141  0  2.687268  0  0  -0.418518  0  2.696001  0  0  -0.20237  -0.406311  0  2.682482  0
