# generated using pymatgen
data_Zn3P4H22C16(NO10)2
_symmetry_space_group_name_H-M   'P 1'
_cell_length_a   9.02800305
_cell_length_b   9.01508027
_cell_length_c   9.89935846
_cell_angle_alpha   101.08820823
_cell_angle_beta   109.35300178
_cell_angle_gamma   110.09120783
_symmetry_Int_Tables_number   1
_chemical_formula_structural   Zn3P4H22C16(NO10)2
_chemical_formula_sum   'Zn3 P4 H22 C16 N2 O20'
_cell_volume   669.93863995
_cell_formula_units_Z   1
loop_
 _symmetry_equiv_pos_site_id
 _symmetry_equiv_pos_as_xyz
  1  'x, y, z'
loop_
 _atom_site_type_symbol
 _atom_site_label
 _atom_site_symmetry_multiplicity
 _atom_site_fract_x
 _atom_site_fract_y
 _atom_site_fract_z
 _atom_site_occupancy
 _atom_site_hle17_bader_spin_density
 _atom_site_hle17_ddec_charge
 _atom_site_hle17_ddec_spin_density
 _atom_site_hle17_ddec_sum_bond_order
 _atom_site_hle17_magmom
 _atom_site_hse06_10hf_bader_spin_density
 _atom_site_hse06_10hf_ddec_charge
 _atom_site_hse06_10hf_ddec_spin_density
 _atom_site_hse06_10hf_ddec_sum_bond_order
 _atom_site_hse06_10hf_magmom
 _atom_site_hse06_bader_spin_density
 _atom_site_hse06_ddec_charge
 _atom_site_hse06_ddec_spin_density
 _atom_site_hse06_ddec_sum_bond_order
 _atom_site_hse06_magmom
 _atom_site_pbe_bader_spin_density
 _atom_site_pbe_cm5_charge
 _atom_site_pbe_ddec_charge
 _atom_site_pbe_ddec_spin_density
 _atom_site_pbe_ddec_sum_bond_order
 _atom_site_pbe_magmom
Zn  Zn0  1  0.25935685  0.23779162  0.52889224  1  0  1.206358  0  1.731324  0  0  1.034506  0  2.194326  0  0  1.080639  0  2.134055  0  0  0.70408  1.001385  0  2.236573  0
Zn  Zn1  1  0.74064589  0.76221059  0.47110764  1  0  1.206347  0  1.731334  0  0  1.034498  0  2.194342  0  0  1.080627  0  2.13407  0  0  0.704091  1.00138  0  2.236592  0
Zn  Zn2  1  0.00000105  0.99999953  0.00000025  1  0  1.256636  0  1.730698  0  0  1.11308  0  2.173636  0  0  1.153694  0  2.116519  0  0  0.691714  1.08353  0  2.213646  0
P  P3  1  0.27833897  0.96525529  0.30348442  1  0  1.433332  0  4.771803  0  0  1.270213  0  5.271264  0  0  1.319616  0  5.233798  0  0  0.35877  1.235539  0  5.296801  0
P  P4  1  0.72166146  0.03474443  0.69651638  1  0  1.433215  0  4.771828  0  0  1.270096  0  5.271304  0  0  1.319498  0  5.23384  0  0  0.358732  1.235425  0  5.29684  0
P  P5  1  0.91256283  0.89380579  0.26301590  1  0  1.404821  0  4.918686  0  0  1.239767  0  5.413838  0  0  1.289863  0  5.377635  0  0  0.327743  1.20458  0  5.438421  0
P  P6  1  0.08743759  0.10619392  0.73698388  1  0  1.404678  0  4.918789  0  0  1.239609  0  5.413952  0  0  1.289698  0  5.377751  0  0  0.327688  1.204422  0  5.438535  0
H  H7  1  0.48418828  0.88306167  0.39033125  1  0  0.445978  0  0.855536  0  0  0.411072  0  0.924516  0  0  0.422842  0  0.90759  0  0  0.30841  0.402736  0  0.9365  0
H  H8  1  0.51581274  0.11693679  0.60966951  1  0  0.445978  0  0.855539  0  0  0.411113  0  0.924456  0  0  0.422886  0  0.907525  0  0  0.308431  0.402775  0  0.936441  0
H  H9  1  0.09326767  0.85392281  0.51676126  1  0  0.373138  0  0.916168  0  0  0.348663  0  0.990571  0  0  0.358798  0  0.978825  0  0  0.291748  0.341457  0  0.998897  0
H  H10  1  0.90673158  0.14607691  0.48323918  1  0  0.37313  0  0.916184  0  0  0.348657  0  0.990583  0  0  0.358794  0  0.978836  0  0  0.291746  0.341451  0  0.998911  0
H  H11  1  0.91188172  0.19792098  0.13703344  1  0  0.414127  0  0.834741  0  0  0.393203  0  0.896952  0  0  0.400555  0  0.889395  0  0  0.312381  0.387876  0  0.902543  0
H  H12  1  0.08811814  0.80207748  0.86296696  1  0  0.414115  0  0.834786  0  0  0.393193  0  0.896989  0  0  0.400546  0  0.889433  0  0  0.312366  0.387867  0  0.90258  0
H  H13  1  0.11562180  0.29638669  0.22490746  1  0  0.427439  0  0.87707  0  0  0.394617  0  0.943393  0  0  0.405626  0  0.927494  0  0  0.292809  0.386652  0  0.954919  0
H  H14  1  0.88437861  0.70361301  0.77509131  1  0  0.427437  0  0.877071  0  0  0.394617  0  0.94339  0  0  0.405627  0  0.927491  0  0  0.292807  0.386653  0  0.954915  0
H  H15  1  0.43706667  0.28159539  0.89172607  1  0  0.316042  0  0.888005  0  0  0.292028  0  0.952395  0  0  0.301127  0  0.9455  0  0  0.319121  0.28564  0  0.957251  0
H  H16  1  0.56293142  0.71840434  0.10827504  1  0  0.316051  0  0.888002  0  0  0.292016  0  0.952391  0  0  0.301114  0  0.945499  0  0  0.319121  0.285629  0  0.957248  0
H  H17  1  0.12051412  0.60020083  0.21563933  1  0  0.113966  0  0.917235  0  0  0.127741  0  0.980525  0  0  0.129337  0  0.979601  0  0  0.106715  0.126507  0  0.981341  0
H  H18  1  0.87948455  0.39979764  0.78436073  1  0  0.113939  0  0.917257  0  0  0.12771  0  0.980555  0  0  0.129305  0  0.979631  0  0  0.106715  0.126475  0  0.981369  0
H  H19  1  0.00617246  0.66321320  0.07155326  1  0  0.114881  0  0.9564  0  0  0.129232  0  1.019058  0  0  0.130844  0  1.018809  0  0  0.106042  0.127972  0  1.019401  0
H  H20  1  0.99382623  0.33678527  0.92844781  1  0  0.114865  0  0.956393  0  0  0.129224  0  1.019033  0  0  0.130832  0  1.018787  0  0  0.106032  0.127964  0  1.019376  0
H  H21  1  0.94923084  0.46987088  0.36906441  1  0  0.11502  0  0.932172  0  0  0.125934  0  0.990638  0  0  0.128874  0  0.987769  0  0  0.115731  0.123727  0  0.992785  0
H  H22  1  0.05076901  0.53012759  0.63093600  1  0  0.115027  0  0.932171  0  0  0.125924  0  0.990659  0  0  0.128862  0  0.98779  0  0  0.115725  0.123717  0  0.992805  0
H  H23  1  0.66236180  0.24232022  0.32105103  1  0  0.132487  0  0.934391  0  0  0.140251  0  0.991262  0  0  0.144139  0  0.989818  0  0  0.117191  0.137332  0  0.992666  0
H  H24  1  0.33763865  0.75767952  0.67895179  1  0  0.132547  0  0.93434  0  0  0.140299  0  0.991221  0  0  0.144192  0  0.989772  0  0  0.117213  0.137379  0  0.992626  0
H  H25  1  0.40004252  0.15475439  0.07094925  1  0  0.128472  0  0.970994  0  0  0.132446  0  1.034818  0  0  0.136359  0  1.030904  0  0  0.129666  0.129519  0  1.037689  0
H  H26  1  0.59995500  0.84524410  0.92905249  1  0  0.128465  0  0.971028  0  0  0.132448  0  1.034845  0  0  0.136354  0  1.030929  0  0  0.129673  0.129522  0  1.037713  0
H  H27  1  0.69536034  0.49245068  0.92356938  1  0  0.121694  0  0.926308  0  0  0.127987  0  0.99072  0  0  0.131779  0  0.98728  0  0  0.134048  0.12517  0  0.993285  0
H  H28  1  0.30463718  0.50754780  0.07643135  1  0  0.121705  0  0.926352  0  0  0.127991  0  0.990772  0  0  0.131783  0  0.987335  0  0  0.134069  0.125176  0  0.993338  0
C  C29  1  0.07826043  0.80913526  0.30385182  1  0  -0.223982  0  3.675523  0  0  -0.181562  0  3.926242  0  0  -0.190499  0  3.938231  0  0  0.050529  -0.175576  0  3.917971  0
C  C30  1  0.92174001  0.19086447  0.69614999  1  0  -0.223922  0  3.675423  0  0  -0.181514  0  3.926151  0  0  -0.190453  0  3.938142  0  0  0.050536  -0.175533  0  3.917884  0
C  C31  1  0.01631089  0.64062046  0.17862544  1  0  -0.189467  0  3.717613  0  0  -0.242337  0  3.958012  0  0  -0.24276  0  3.971912  0  0  -0.157235  -0.241707  0  3.948676  0
C  C32  1  0.98368838  0.35937927  0.82137602  1  0  -0.189371  0  3.717598  0  0  -0.24224  0  3.958001  0  0  -0.242658  0  3.9719  0  0  -0.157213  -0.241608  0  3.948666  0
C  C33  1  0.84743572  0.50360215  0.15327477  1  0  0.082344  0  3.706892  0  0  0.104407  0  3.951972  0  0  0.099778  0  3.975375  0  0  0.011637  0.106902  0  3.936547  0
C  C34  1  0.15256178  0.49639631  0.84672392  1  0  0.082213  0  3.706972  0  0  0.104273  0  3.952061  0  0  0.099644  0  3.975459  0  0  0.011551  0.106769  0  3.936637  0
C  C35  1  0.83356808  0.42792458  0.26296296  1  0  -0.034581  0  3.640994  0  0  -0.065974  0  3.895937  0  0  -0.06004  0  3.910245  0  0  -0.051694  -0.069754  0  3.886533  0
C  C36  1  0.16643060  0.57207388  0.73703710  1  0  -0.034558  0  3.641021  0  0  -0.06594  0  3.895963  0  0  -0.060003  0  3.91027  0  0  -0.051677  -0.06972  0  3.886556  0
C  C37  1  0.67458393  0.30129972  0.23650538  1  0  -0.111154  0  3.704437  0  0  -0.122333  0  3.961863  0  0  -0.130971  0  3.98211  0  0  -0.071768  -0.116973  0  3.948606  0
C  C38  1  0.32541477  0.69869876  0.76349670  1  0  -0.111223  0  3.704378  0  0  -0.122386  0  3.961798  0  0  -0.13103  0  3.982042  0  0  -0.071787  -0.117028  0  3.948543  0
C  C39  1  0.52985586  0.24959363  0.09957862  1  0  0.145043  0  3.574453  0  0  0.099867  0  3.8272  0  0  0.109361  0  3.84124  0  0  0.067799  0.093812  0  3.817705  0
C  C40  1  0.47014401  0.75040485  0.90042382  1  0  0.145061  0  3.574531  0  0  0.099835  0  3.827265  0  0  0.109341  0  3.841298  0  0  0.067785  0.093781  0  3.817769  0
C  C41  1  0.69867563  0.44513214  0.01737472  1  0  0.100071  0  3.530099  0  0  0.050984  0  3.783314  0  0  0.058172  0  3.798253  0  0  0.072179  0.046426  0  3.773391  0
C  C42  1  0.30132364  0.55486506  0.98262530  1  0  0.100148  0  3.530162  0  0  0.051024  0  3.783374  0  0  0.05821  0  3.798313  0  0  0.072219  0.046464  0  3.773453  0
C  C43  1  0.42569428  0.48469552  0.42327128  1  0  0.548556  0  3.89399  0  0  0.50062  0  4.185815  0  0  0.529858  0  4.180305  0  0  0.215491  0.480757  0  4.188821  0
C  C44  1  0.57430832  0.51531416  0.57672074  1  0  0.548431  0  3.89403  0  0  0.500519  0  4.185857  0  0  0.529756  0  4.180352  0  0  0.215443  0.480655  0  4.188859  0
N  N45  1  0.54684595  0.32206293  0.99509186  1  0  -0.187839  0  3.457577  0  0  -0.114128  0  3.68482  0  0  -0.129084  0  3.700699  0  0  -0.332004  -0.104382  0  3.674139  0
N  N46  1  0.45315214  0.67793680  0.00490925  1  0  -0.187881  0  3.457717  0  0  -0.114074  0  3.684872  0  0  -0.12903  0  3.700752  0  0  -0.33201  -0.10433  0  3.674195  0
O  O47  1  0.39637820  0.87430660  0.28841272  1  0  -0.720566  0  1.98988  0  0  -0.650293  0  2.216314  0  0  -0.671091  0  2.192033  0  0  -0.38433  -0.635745  0  2.233037  0
O  O48  1  0.60362165  0.12569186  0.71158769  1  0  -0.720534  0  1.989918  0  0  -0.650288  0  2.216328  0  0  -0.671088  0  2.192038  0  0  -0.38433  -0.635742  0  2.233051  0
O  O49  1  0.23026494  0.02547553  0.17055865  1  0  -0.837765  0  2.015842  0  0  -0.756129  0  2.292502  0  0  -0.782336  0  2.271088  0  0  -0.363465  -0.737283  0  2.306658  0
O  O50  1  0.76973548  0.97452417  0.82944113  1  0  -0.837735  0  2.015838  0  0  -0.756098  0  2.292491  0  0  -0.782305  0  2.271075  0  0  -0.363457  -0.737249  0  2.306634  0
O  O51  1  0.37724459  0.10570658  0.46218051  1  0  -0.873297  0  2.113797  0  0  -0.77394  0  2.390467  0  0  -0.802933  0  2.367475  0  0  -0.369749  -0.753303  0  2.406058  0
O  O52  1  0.62275638  0.89429437  0.53781763  1  0  -0.873234  0  2.113762  0  0  -0.773853  0  2.390434  0  0  -0.802851  0  2.36746  0  0  -0.36972  -0.753218  0  2.406027  0
O  O53  1  0.00080063  0.07455683  0.37897676  1  0  -0.887183  0  2.087809  0  0  -0.79006  0  2.363256  0  0  -0.817162  0  2.338509  0  0  -0.375028  -0.770788  0  2.380123  0
O  O54  1  0.99920213  0.92544287  0.62102371  1  0  -0.887161  0  2.087793  0  0  -0.790032  0  2.363254  0  0  -0.817117  0  2.338495  0  0  -0.375011  -0.770758  0  2.38012  0
O  O55  1  0.75327880  0.77671258  0.28145562  1  0  -0.851284  0  2.052027  0  0  -0.754224  0  2.34265  0  0  -0.783363  0  2.319355  0  0  -0.374942  -0.733214  0  2.358214  0
O  O56  1  0.24671985  0.22328586  0.71854241  1  0  -0.851226  0  2.052053  0  0  -0.754167  0  2.342678  0  0  -0.783312  0  2.3194  0  0  -0.374913  -0.733161  0  2.358248  0
O  O57  1  0.84905855  0.88323643  0.09703652  1  0  -0.851002  0  2.047427  0  0  -0.765747  0  2.329779  0  0  -0.793406  0  2.309084  0  0  -0.37353  -0.745694  0  2.343462  0
O  O58  1  0.15094070  0.11676328  0.90296291  1  0  -0.850951  0  2.047456  0  0  -0.765679  0  2.329798  0  0  -0.793342  0  2.309111  0  0  -0.373512  -0.745623  0  2.343482  0
O  O59  1  0.12188990  0.78392121  0.44755206  1  0  -0.512439  0  2.087114  0  0  -0.474604  0  2.303257  0  0  -0.489491  0  2.295269  0  0  -0.389073  -0.463499  0  2.308455  0
O  O60  1  0.87811052  0.21607850  0.55244772  1  0  -0.512448  0  2.087109  0  0  -0.474597  0  2.303231  0  0  -0.489482  0  2.295239  0  0  -0.389062  -0.463492  0  2.308433  0
O  O61  1  0.27011029  0.38954280  0.40090331  1  0  -0.617829  0  2.131748  0  0  -0.541712  0  2.384023  0  0  -0.57047  0  2.371177  0  0  -0.298704  -0.521459  0  2.392313  0
O  O62  1  0.72989300  0.61046064  0.59909392  1  0  -0.617766  0  2.131863  0  0  -0.541678  0  2.384151  0  0  -0.570434  0  2.371308  0  0  -0.298685  -0.521429  0  2.392442  0
O  O63  1  0.46541044  0.55300066  0.33370332  1  0  -0.545488  0  2.012387  0  0  -0.49298  0  2.251619  0  0  -0.516438  0  2.242883  0  0  -0.284069  -0.476736  0  2.257222  0
O  O64  1  0.53458872  0.44700404  0.66629188  1  0  -0.545551  0  2.012233  0  0  -0.493045  0  2.251445  0  0  -0.516507  0  2.242715  0  0  -0.28412  -0.476798  0  2.257043  0
O  O65  1  0.01671629  0.23803224  0.12002331  1  0  -0.808161  0  1.913851  0  0  -0.75403  0  2.118104  0  0  -0.774342  0  2.091382  0  0  -0.562336  -0.739617  0  2.137195  0
O  O66  1  0.98328414  0.76196748  0.87997748  1  0  -0.808156  0  1.913904  0  0  -0.754016  0  2.118145  0  0  -0.77433  0  2.091424  0  0  -0.562324  -0.739606  0  2.137239  0
