# generated using pymatgen
data_ZnH11C14N3O5
_symmetry_space_group_name_H-M   'P 1'
_cell_length_a   9.13919102
_cell_length_b   10.75849516
_cell_length_c   18.50958486
_cell_angle_alpha   76.98770701
_cell_angle_beta   75.72110408
_cell_angle_gamma   64.87696099
_symmetry_Int_Tables_number   1
_chemical_formula_structural   ZnH11C14N3O5
_chemical_formula_sum   'Zn4 H44 C56 N12 O20'
_cell_volume   1581.74455883
_cell_formula_units_Z   4
loop_
 _symmetry_equiv_pos_site_id
 _symmetry_equiv_pos_as_xyz
  1  'x, y, z'
loop_
 _atom_site_type_symbol
 _atom_site_label
 _atom_site_symmetry_multiplicity
 _atom_site_fract_x
 _atom_site_fract_y
 _atom_site_fract_z
 _atom_site_occupancy
 _atom_site_hle17_bader_spin_density
 _atom_site_hle17_ddec_charge
 _atom_site_hle17_ddec_spin_density
 _atom_site_hle17_ddec_sum_bond_order
 _atom_site_hle17_magmom
 _atom_site_hse06_10hf_bader_spin_density
 _atom_site_hse06_10hf_ddec_charge
 _atom_site_hse06_10hf_ddec_spin_density
 _atom_site_hse06_10hf_ddec_sum_bond_order
 _atom_site_hse06_10hf_magmom
 _atom_site_hse06_bader_spin_density
 _atom_site_hse06_ddec_charge
 _atom_site_hse06_ddec_spin_density
 _atom_site_hse06_ddec_sum_bond_order
 _atom_site_hse06_magmom
 _atom_site_pbe_bader_spin_density
 _atom_site_pbe_cm5_charge
 _atom_site_pbe_ddec_charge
 _atom_site_pbe_ddec_spin_density
 _atom_site_pbe_ddec_sum_bond_order
 _atom_site_pbe_magmom
Zn  Zn0  1  0.49106984  0.97366667  0.79998625  1  0  1.008983  0  1.837713  0  0  0.827727  0  2.294776  0  0  0.875501  0  2.240866  0  0  0.684184  0.794439  0  2.331664  0
Zn  Zn1  1  0.26475308  0.52629836  0.70005728  1  0  1.008972  0  1.837662  0  0  0.827769  0  2.294583  0  0  0.875554  0  2.240679  0  0  0.683921  0.79445  0  2.331511  0
Zn  Zn2  1  0.50893010  0.02633390  0.20001360  1  0  1.008995  0  1.837689  0  0  0.827719  0  2.294765  0  0  0.875495  0  2.240853  0  0  0.684167  0.794429  0  2.331656  0
Zn  Zn3  1  0.73524733  0.47370118  0.29994265  1  0  1.008954  0  1.837708  0  0  0.827747  0  2.294625  0  0  0.875535  0  2.240721  0  0  0.683907  0.794427  0  2.331551  0
H  H4  1  0.63817289  0.12024755  0.92518186  1  0  0.294164  0  0.944163  0  0  0.271133  0  1.018501  0  0  0.280801  0  1.010398  0  0  0.307332  0.264268  0  1.024232  0
H  H5  1  0.68345410  0.37976673  0.57486212  1  0  0.294674  0  0.943932  0  0  0.271048  0  1.018812  0  0  0.280692  0  1.010713  0  0  0.307421  0.264206  0  1.024548  0
H  H6  1  0.36182698  0.87975199  0.07481860  1  0  0.294058  0  0.944372  0  0  0.271013  0  1.018713  0  0  0.280671  0  1.010598  0  0  0.307299  0.264201  0  1.024375  0
H  H7  1  0.31654322  0.62023385  0.42513921  1  0  0.294667  0  0.943882  0  0  0.271015  0  1.018803  0  0  0.280659  0  1.010699  0  0  0.307405  0.264197  0  1.024511  0
H  H8  1  0.13115136  0.20209215  0.85261052  1  0  0.088907  0  0.95292  0  0  0.09651  0  1.016185  0  0  0.099386  0  1.014163  0  0  0.117699  0.094423  0  1.017683  0
H  H9  1  0.18565350  0.29797024  0.64728341  1  0  0.088625  0  0.953966  0  0  0.096124  0  1.017289  0  0  0.098848  0  1.015411  0  0  0.117661  0.094007  0  1.018782  0
H  H10  1  0.86884868  0.79790842  0.14738811  1  0  0.088957  0  0.952793  0  0  0.096563  0  1.016055  0  0  0.099422  0  1.014062  0  0  0.117726  0.094476  0  1.017554  0
H  H11  1  0.81434484  0.70202930  0.35271746  1  0  0.088634  0  0.953951  0  0  0.096123  0  1.017292  0  0  0.098849  0  1.01541  0  0  0.11765  0.094006  0  1.018785  0
H  H12  1  0.03886779  0.83007440  0.78211439  1  0  0.135603  0  0.95418  0  0  0.140156  0  1.020751  0  0  0.144756  0  1.017202  0  0  0.118043  0.136887  0  1.023413  0
H  H13  1  0.65118785  0.66995113  0.71799125  1  0  0.13648  0  0.952899  0  0  0.140743  0  1.019776  0  0  0.145441  0  1.016137  0  0  0.11791  0.137093  0  1.023016  0
H  H14  1  0.96113317  0.16992513  0.21788499  1  0  0.135587  0  0.954181  0  0  0.140135  0  1.020763  0  0  0.144735  0  1.017212  0  0  0.118038  0.136867  0  1.023422  0
H  H15  1  0.34881356  0.33004841  0.28200882  1  0  0.136472  0  0.952914  0  0  0.14072  0  1.0198  0  0  0.14541  0  1.016173  0  0  0.117901  0.137079  0  1.023029  0
H  H16  1  0.31798902  0.81775009  0.77932090  1  0  0.100259  0  0.921161  0  0  0.108387  0  0.981159  0  0  0.111392  0  0.978549  0  0  0.127552  0.106085  0  0.983216  0
H  H17  1  0.91527675  0.68213291  0.72079898  1  0  0.100218  0  0.921621  0  0  0.108101  0  0.981904  0  0  0.111097  0  0.9793  0  0  0.127352  0.105838  0  0.983912  0
H  H18  1  0.68200961  0.18225254  0.22067689  1  0  0.100267  0  0.921124  0  0  0.108371  0  0.981148  0  0  0.111377  0  0.978539  0  0  0.127552  0.10607  0  0.983203  0
H  H19  1  0.08472316  0.31786559  0.27920089  1  0  0.100134  0  0.921643  0  0  0.108017  0  0.981938  0  0  0.111014  0  0.979335  0  0  0.127329  0.105754  0  0.983945  0
H  H20  1  0.54009843  0.79453740  0.59863419  1  0  0.100843  0  0.954454  0  0  0.109872  0  1.01635  0  0  0.113087  0  1.014628  0  0  0.103479  0.107516  0  1.017753  0
H  H21  1  0.93310687  0.70555708  0.90142114  1  0  0.100785  0  0.95397  0  0  0.10949  0  1.016202  0  0  0.112782  0  1.014377  0  0  0.10356  0.107074  0  1.017638  0
H  H22  1  0.45990492  0.20546007  0.40136617  1  0  0.100821  0  0.954432  0  0  0.109839  0  1.016336  0  0  0.113053  0  1.014613  0  0  0.103455  0.107485  0  1.017738  0
H  H23  1  0.06689061  0.29444453  0.09857835  1  0  0.100824  0  0.953981  0  0  0.109565  0  1.016183  0  0  0.112824  0  1.014396  0  0  0.103586  0.107148  0  1.017623  0
H  H24  1  0.45276647  0.22634528  0.53382329  1  0  0.086487  0  0.967876  0  0  0.096736  0  1.031625  0  0  0.100032  0  1.029669  0  0  0.099949  0.094316  0  1.033176  0
H  H25  1  0.21300845  0.27376985  0.96610662  1  0  0.087062  0  0.966069  0  0  0.09687  0  1.030296  0  0  0.100254  0  1.02826  0  0  0.100356  0.094368  0  1.031953  0
H  H26  1  0.54723634  0.77365219  0.46617761  1  0  0.086486  0  0.967917  0  0  0.096736  0  1.031659  0  0  0.100031  0  1.029705  0  0  0.099938  0.09431  0  1.033217  0
H  H27  1  0.78699196  0.72622969  0.03389330  1  0  0.087109  0  0.966094  0  0  0.096973  0  1.03025  0  0  0.100362  0  1.028206  0  0  0.100386  0.09447  0  1.031909  0
H  H28  1  0.50893498  0.58050110  0.86268197  1  0  0.104827  0  0.957482  0  0  0.111608  0  1.02399  0  0  0.115479  0  1.021218  0  0  0.102268  0.108796  0  1.026055  0
H  H29  1  0.95228481  0.91967831  0.63734200  1  0  0.105182  0  0.956266  0  0  0.111821  0  1.023006  0  0  0.115704  0  1.020192  0  0  0.102229  0.109022  0  1.025098  0
H  H30  1  0.49107003  0.41949843  0.13731675  1  0  0.104841  0  0.95747  0  0  0.111611  0  1.023989  0  0  0.115483  0  1.021214  0  0  0.102269  0.108799  0  1.026056  0
H  H31  1  0.04771059  0.08032331  0.36265843  1  0  0.105153  0  0.956264  0  0  0.111798  0  1.023004  0  0  0.115683  0  1.020191  0  0  0.102224  0.109  0  1.025095  0
H  H32  1  0.48826610  0.65340130  0.08538963  1  0  0.08811  0  0.970368  0  0  0.095147  0  1.039809  0  0  0.098426  0  1.038022  0  0  0.098404  0.092669  0  1.041347  0
H  H33  1  0.22698014  0.84654560  0.41467369  1  0  0.088073  0  0.972787  0  0  0.095009  0  1.042083  0  0  0.098288  0  1.040338  0  0  0.098151  0.092694  0  1.043292  0
H  H34  1  0.51173633  0.34659720  0.91460997  1  0  0.0881  0  0.970379  0  0  0.095135  0  1.039819  0  0  0.098416  0  1.03803  0  0  0.098397  0.092654  0  1.041367  0
H  H35  1  0.77301574  0.15345498  0.58532682  1  0  0.088093  0  0.972801  0  0  0.095042  0  1.042079  0  0  0.098317  0  1.040343  0  0  0.098161  0.092726  0  1.043288  0
H  H36  1  0.38828217  0.20282926  0.86398719  1  0  0.309768  0  0.943666  0  0  0.291455  0  1.010533  0  0  0.299021  0  1.004074  0  0  0.29652  0.285959  0  1.015433  0
H  H37  1  0.45503353  0.29720175  0.63599838  1  0  0.309666  0  0.944213  0  0  0.291075  0  1.01163  0  0  0.298643  0  1.005139  0  0  0.296351  0.285596  0  1.016348  0
H  H38  1  0.61171776  0.79717131  0.13601266  1  0  0.309786  0  0.943647  0  0  0.29147  0  1.010518  0  0  0.299037  0  1.004059  0  0  0.296524  0.285973  0  1.015417  0
H  H39  1  0.54496739  0.70279883  0.36400160  1  0  0.309657  0  0.944223  0  0  0.291058  0  1.011646  0  0  0.298626  0  1.005155  0  0  0.296334  0.285579  0  1.016363  0
H  H40  1  0.43651206  0.04752346  0.92508806  1  0  0.299598  0  0.914339  0  0  0.283646  0  0.97698  0  0  0.291366  0  0.970076  0  0  0.300267  0.278321  0  0.981541  0
H  H41  1  0.40905943  0.45255971  0.57491905  1  0  0.300114  0  0.913413  0  0  0.283601  0  0.976586  0  0  0.291326  0  0.969702  0  0  0.300144  0.278117  0  0.981522  0
H  H42  1  0.56348890  0.95247608  0.07491133  1  0  0.299605  0  0.914306  0  0  0.283645  0  0.976958  0  0  0.291366  0  0.970055  0  0  0.300261  0.278318  0  0.981522  0
H  H43  1  0.59094089  0.54743983  0.42508209  1  0  0.300196  0  0.913386  0  0  0.283669  0  0.976593  0  0  0.291399  0  0.969699  0  0  0.300175  0.278181  0  0.981541  0
H  H44  1  0.84231213  0.22631728  0.86457658  1  0  0.114435  0  0.942878  0  0  0.124616  0  1.000966  0  0  0.127703  0  1.000585  0  0  0.114244  0.122371  0  1.001355  0
H  H45  1  0.93290400  0.27378555  0.63542785  1  0  0.114549  0  0.942785  0  0  0.12483  0  1.000897  0  0  0.127871  0  1.00057  0  0  0.114264  0.122585  0  1.001351  0
H  H46  1  0.15768726  0.77368330  0.13542380  1  0  0.114443  0  0.942874  0  0  0.124635  0  1.000949  0  0  0.127722  0  1.000567  0  0  0.114247  0.12239  0  1.001336  0
H  H47  1  0.06709642  0.72621399  0.36457208  1  0  0.114495  0  0.942845  0  0  0.124805  0  1.000925  0  0  0.127826  0  1.000621  0  0  0.114253  0.122559  0  1.001379  0
C  C48  1  0.49211097  0.77488225  0.93743706  1  0  0.653795  0  3.903671  0  0  0.601951  0  4.202473  0  0  0.636092  0  4.194573  0  0  0.207565  0.578944  0  4.206834  0
C  C49  1  0.20460085  0.72520354  0.56260060  1  0  0.654205  0  3.903533  0  0  0.603918  0  4.201181  0  0  0.638135  0  4.193199  0  0  0.208624  0.58072  0  4.20575  0
C  C50  1  0.50789159  0.22511832  0.06256131  1  0  0.653748  0  3.903992  0  0  0.601904  0  4.202793  0  0  0.636041  0  4.194889  0  0  0.207521  0.578896  0  4.207154  0
C  C51  1  0.79539557  0.27479704  0.43739937  1  0  0.654284  0  3.903398  0  0  0.603947  0  4.201129  0  0  0.638167  0  4.193143  0  0  0.208649  0.58075  0  4.205698  0
C  C52  1  0.49683026  0.63299357  0.97051112  1  0  -0.063732  0  3.767645  0  0  -0.038312  0  3.993968  0  0  -0.045018  0  4.017021  0  0  -0.018749  -0.034128  0  3.978544  0
C  C53  1  0.10037799  0.86707702  0.52951812  1  0  -0.062543  0  3.766582  0  0  -0.040083  0  3.996177  0  0  -0.046894  0  4.01936  0  0  -0.019271  -0.03552  0  3.980436  0
C  C54  1  0.50317124  0.36700596  0.02948773  1  0  -0.063724  0  3.767649  0  0  -0.038322  0  3.993992  0  0  -0.044998  0  4.017004  0  0  -0.018743  -0.034136  0  3.97857  0
C  C55  1  0.89961789  0.13292355  0.47048239  1  0  -0.062563  0  3.766546  0  0  -0.040087  0  3.996175  0  0  -0.046897  0  4.019355  0  0  -0.01927  -0.035525  0  3.980435  0
C  C56  1  0.75266381  0.03502439  0.82254679  1  0  0.511964  0  3.8357  0  0  0.463793  0  4.119262  0  0  0.493498  0  4.118365  0  0  0.24703  0.443647  0  4.11948  0
C  C57  1  0.61015159  0.46506875  0.67748233  1  0  0.511079  0  3.831466  0  0  0.462748  0  4.114754  0  0  0.492343  0  4.113944  0  0  0.247224  0.442582  0  4.11502  0
C  C58  1  0.24733654  0.96497411  0.17745375  1  0  0.511992  0  3.83583  0  0  0.463868  0  4.119279  0  0  0.493571  0  4.118385  0  0  0.247046  0.443724  0  4.1195  0
C  C59  1  0.38984307  0.53493599  0.32252165  1  0  0.510876  0  3.83164  0  0  0.462634  0  4.114815  0  0  0.492251  0  4.113979  0  0  0.247199  0.44247  0  4.115083  0
C  C60  1  0.10489073  0.12004278  0.83992236  1  0  0.131095  0  3.685654  0  0  0.10281  0  3.936554  0  0  0.108565  0  3.95426  0  0  0.050856  0.099008  0  3.924679  0
C  C61  1  0.06473402  0.37998156  0.66006381  1  0  0.13236  0  3.686525  0  0  0.104474  0  3.937243  0  0  0.110325  0  3.954944  0  0  0.051319  0.100572  0  3.925606  0
C  C62  1  0.89510981  0.87995882  0.16007633  1  0  0.131046  0  3.685501  0  0  0.102759  0  3.936402  0  0  0.108524  0  3.954121  0  0  0.050805  0.098958  0  3.924525  0
C  C63  1  0.93526684  0.62001798  0.33993680  1  0  0.132256  0  3.686528  0  0  0.104356  0  3.937249  0  0  0.110208  0  3.954946  0  0  0.051292  0.100454  0  3.925612  0
C  C64  1  0.05352136  0.91377531  0.79930140  1  0  -0.109791  0  3.671167  0  0  -0.133808  0  3.9197  0  0  -0.138379  0  3.938204  0  0  -0.067205  -0.130965  0  3.907531  0
C  C65  1  0.76663746  0.58625202  0.70076977  1  0  -0.111076  0  3.672187  0  0  -0.134848  0  3.92057  0  0  -0.139594  0  3.939161  0  0  -0.067194  -0.132059  0  3.908891  0
C  C66  1  0.94647711  0.08622630  0.20069823  1  0  -0.109841  0  3.671165  0  0  -0.133849  0  3.919704  0  0  -0.138418  0  3.938204  0  0  -0.067239  -0.131007  0  3.907533  0
C  C67  1  0.23336149  0.41374856  0.29922994  1  0  -0.11109  0  3.672242  0  0  -0.134827  0  3.920625  0  0  -0.139567  0  3.939223  0  0  -0.067171  -0.132046  0  3.908941  0
C  C68  1  0.49143730  0.02207185  0.65378893  1  0  0.634568  0  3.913309  0  0  0.584706  0  4.204119  0  0  0.618827  0  4.197162  0  0  0.204525  0.56159  0  4.207733  0
C  C69  1  0.16728756  0.47811168  0.84622630  1  0  0.63583  0  3.911742  0  0  0.585447  0  4.202945  0  0  0.619568  0  4.195975  0  0  0.205456  0.562423  0  4.206587  0
C  C70  1  0.50856503  0.97792666  0.34621189  1  0  0.634444  0  3.913221  0  0  0.58458  0  4.204025  0  0  0.618691  0  4.197084  0  0  0.20447  0.561464  0  4.207639  0
C  C71  1  0.83271145  0.52189304  0.15377337  1  0  0.635854  0  3.911681  0  0  0.585482  0  4.202893  0  0  0.619602  0  4.195922  0  0  0.205482  0.562456  0  4.206537  0
C  C72  1  0.20947611  0.90660520  0.79751689  1  0  0.1444  0  3.660402  0  0  0.114173  0  3.909806  0  0  0.120536  0  3.926847  0  0  0.058796  0.109929  0  3.898493  0
C  C73  1  0.91368521  0.59335588  0.70255220  1  0  0.144418  0  3.661227  0  0  0.114338  0  3.910896  0  0  0.12069  0  3.928021  0  0  0.058727  0.110139  0  3.899592  0
C  C74  1  0.79052396  0.09339744  0.20248172  1  0  0.144429  0  3.660326  0  0  0.114209  0  3.909746  0  0  0.120572  0  3.926787  0  0  0.058803  0.109964  0  3.898432  0
C  C75  1  0.08631425  0.40664573  0.29744756  1  0  0.144534  0  3.66128  0  0  0.114418  0  3.91096  0  0  0.120769  0  3.928085  0  0  0.058731  0.110218  0  3.899659  0
C  C76  1  0.49649134  0.01116994  0.57426566  1  0  -0.055375  0  3.765557  0  0  -0.032992  0  3.995622  0  0  -0.040035  0  4.018748  0  0  -0.014938  -0.028401  0  3.979915  0
C  C77  1  0.08192076  0.48895117  0.92573904  1  0  -0.056407  0  3.767812  0  0  -0.033162  0  3.996728  0  0  -0.040102  0  4.019755  0  0  -0.014406  -0.028551  0  3.981086  0
C  C78  1  0.50350994  0.98882442  0.42573506  1  0  -0.055227  0  3.765439  0  0  -0.032806  0  3.995435  0  0  -0.039845  0  4.018561  0  0  -0.014888  -0.028215  0  3.979727  0
C  C79  1  0.91807780  0.51105043  0.07425937  1  0  -0.056372  0  3.767848  0  0  -0.033202  0  3.996871  0  0  -0.04014  0  4.019893  0  0  -0.014449  -0.028588  0  3.981227  0
C  C80  1  0.52366770  0.88354285  0.55487872  1  0  -0.06132  0  3.72621  0  0  -0.084351  0  3.971365  0  0  -0.084706  0  3.99135  0  0  -0.080983  -0.083906  0  3.957688  0
C  C81  1  0.96201785  0.61651306  0.94515157  1  0  -0.060641  0  3.727848  0  0  -0.083451  0  3.972574  0  0  -0.083924  0  3.99259  0  0  -0.081001  -0.08304  0  3.959008  0
C  C82  1  0.47633511  0.11645150  0.44512160  1  0  -0.061394  0  3.726182  0  0  -0.084432  0  3.971336  0  0  -0.084787  0  3.991322  0  0  -0.08101  -0.08399  0  3.957661  0
C  C83  1  0.03798212  0.38348648  0.05484768  1  0  -0.060718  0  3.727899  0  0  -0.083534  0  3.972623  0  0  -0.08398  0  3.992644  0  0  -0.081029  -0.083126  0  3.95906  0
C  C84  1  0.47258613  0.12746364  0.51892456  1  0  -0.074492  0  3.752633  0  0  -0.097492  0  4.000909  0  0  -0.099079  0  4.022057  0  0  -0.085313  -0.096217  0  3.986427  0
C  C85  1  0.11906424  0.37261791  0.98105330  1  0  -0.075081  0  3.753403  0  0  -0.097983  0  4.001677  0  0  -0.099732  0  4.022859  0  0  -0.086305  -0.096739  0  3.987277  0
C  C86  1  0.52741572  0.87253279  0.48107561  1  0  -0.074652  0  3.752744  0  0  -0.097668  0  4.001019  0  0  -0.099254  0  4.022169  0  0  -0.085392  -0.096386  0  3.986539  0
C  C87  1  0.88093525  0.62738266  0.01894587  1  0  -0.075149  0  3.753522  0  0  -0.098062  0  4.001782  0  0  -0.099816  0  4.022979  0  0  -0.086308  -0.09682  0  3.987382  0
C  C88  1  0.50561195  0.54464741  0.92276922  1  0  -0.068957  0  3.727196  0  0  -0.091396  0  3.970223  0  0  -0.092268  0  3.990119  0  0  -0.085064  -0.090528  0  3.956725  0
C  C89  1  0.97313113  0.95543899  0.57725043  1  0  -0.069052  0  3.726342  0  0  -0.090498  0  3.970009  0  0  -0.091348  0  3.98991  0  0  -0.084986  -0.090005  0  3.956533  0
C  C90  1  0.49439048  0.45535108  0.07723038  1  0  -0.068981  0  3.727177  0  0  -0.09141  0  3.970218  0  0  -0.092288  0  3.990103  0  0  -0.085083  -0.090544  0  3.956724  0
C  C91  1  0.02686369  0.04456055  0.42275057  1  0  -0.068993  0  3.726301  0  0  -0.090448  0  3.969971  0  0  -0.0913  0  3.989876  0  0  -0.084992  -0.089955  0  3.956494  0
C  C92  1  0.49149301  0.58710987  0.04786291  1  0  -0.082619  0  3.760084  0  0  -0.105921  0  4.010134  0  0  -0.107441  0  4.031353  0  0  -0.091341  -0.104898  0  3.995952  0
C  C93  1  0.12639302  0.91287673  0.45215408  1  0  -0.084008  0  3.760956  0  0  -0.106373  0  4.011498  0  0  -0.107862  0  4.032676  0  0  -0.090896  -0.105111  0  3.996966  0
C  C94  1  0.50850907  0.41289173  0.95213538  1  0  -0.082589  0  3.760063  0  0  -0.105883  0  4.010116  0  0  -0.107411  0  4.031325  0  0  -0.091316  -0.104861  0  3.995933  0
C  C95  1  0.87360033  0.08712385  0.54784669  1  0  -0.084031  0  3.760985  0  0  -0.106406  0  4.011528  0  0  -0.107896  0  4.032702  0  0  -0.090879  -0.105144  0  3.996998  0
C  C96  1  0.94391824  0.13358889  0.84574549  1  0  -0.136979  0  3.710606  0  0  -0.158886  0  3.956369  0  0  -0.164016  0  3.977235  0  0  -0.077233  -0.155522  0  3.942381  0
C  C97  1  0.92307350  0.36646944  0.65427176  1  0  -0.13808  0  3.70887  0  0  -0.160284  0  3.954476  0  0  -0.165458  0  3.975354  0  0  -0.077452  -0.157127  0  3.940795  0
C  C98  1  0.05608118  0.86641065  0.15425429  1  0  -0.136967  0  3.710493  0  0  -0.158876  0  3.95626  0  0  -0.164004  0  3.977124  0  0  -0.077202  -0.155511  0  3.942268  0
C  C99  1  0.07692490  0.63353114  0.34572849  1  0  -0.138002  0  3.708895  0  0  -0.16023  0  3.954511  0  0  -0.165387  0  3.9754  0  0  -0.07745  -0.157073  0  3.940828  0
C  C100  1  0.91780780  0.02891835  0.82422387  1  0  -0.000221  0  3.763715  0  0  0.01774  0  3.998533  0  0  0.015195  0  4.02001  0  0  0.008455  0.019468  0  3.984156  0
C  C101  1  0.77086631  0.47115820  0.67582574  1  0  0.00147  0  3.763817  0  0  0.019775  0  3.997923  0  0  0.017237  0  4.019475  0  0  0.00865  0.021466  0  3.983557  0
C  C102  1  0.08219363  0.97108326  0.17577618  1  0  -0.000181  0  3.763597  0  0  0.017738  0  3.998428  0  0  0.01519  0  4.01991  0  0  0.008469  0.019466  0  3.984047  0
C  C103  1  0.22913362  0.52884238  0.32417411  1  0  0.001522  0  3.763853  0  0  0.019795  0  3.997955  0  0  0.017254  0  4.019496  0  0  0.008654  0.021486  0  3.983591  0
N  N104  1  0.62686900  0.09911593  0.87494258  1  0  -0.263956  0  3.31932  0  0  -0.220717  0  3.569778  0  0  -0.239698  0  3.579731  0  0  -0.325764  -0.207831  0  3.562867  0
N  N105  1  0.60080953  0.40096342  0.62508947  1  0  -0.263931  0  3.317622  0  0  -0.219966  0  3.568038  0  0  -0.238777  0  3.577912  0  0  -0.325392  -0.207019  0  3.561038  0
N  N106  1  0.37313039  0.90088465  0.12505781  1  0  -0.263945  0  3.319612  0  0  -0.220662  0  3.570003  0  0  -0.239622  0  3.579949  0  0  -0.325786  -0.207823  0  3.563038  0
N  N107  1  0.39919046  0.59903507  0.37490918  1  0  -0.263811  0  3.317993  0  0  -0.219844  0  3.568384  0  0  -0.238664  0  3.578261  0  0  -0.325361  -0.206924  0  3.56137  0
N  N108  1  0.23521456  0.00871820  0.81638593  1  0  -0.317693  0  3.260524  0  0  -0.244112  0  3.528702  0  0  -0.261077  0  3.545074  0  0  -0.315329  -0.232895  0  3.517896  0
N  N109  1  0.06031349  0.49125511  0.68363027  1  0  -0.317624  0  3.262461  0  0  -0.244354  0  3.530892  0  0  -0.261265  0  3.547146  0  0  -0.315187  -0.233146  0  3.520073  0
N  N110  1  0.76478451  0.99128443  0.18361254  1  0  -0.317691  0  3.260396  0  0  -0.244108  0  3.528581  0  0  -0.261072  0  3.544947  0  0  -0.315318  -0.23289  0  3.517774  0
N  N111  1  0.93968638  0.50874443  0.31637020  1  0  -0.317575  0  3.262409  0  0  -0.244261  0  3.530793  0  0  -0.261171  0  3.547048  0  0  -0.315163  -0.233053  0  3.519973  0
N  N112  1  0.47192255  0.10095716  0.87468101  1  0  -0.510967  0  3.151395  0  0  -0.467668  0  3.413683  0  0  -0.482107  0  3.408835  0  0  -0.518414  -0.457394  0  3.417126  0
N  N113  1  0.44747768  0.39908831  0.62532755  1  0  -0.511205  0  3.151293  0  0  -0.467387  0  3.414116  0  0  -0.481892  0  3.409247  0  0  -0.518556  -0.457155  0  3.417531  0
N  N114  1  0.52807742  0.89904237  0.12531824  1  0  -0.510986  0  3.151406  0  0  -0.467688  0  3.413649  0  0  -0.482132  0  3.408802  0  0  -0.518398  -0.457407  0  3.417101  0
N  N115  1  0.55251708  0.60091331  0.37467464  1  0  -0.511283  0  3.151408  0  0  -0.467465  0  3.414192  0  0  -0.48197  0  3.409329  0  0  -0.51858  -0.457232  0  3.417616  0
O  O116  1  0.73607979  0.98163063  0.77299117  1  0  -0.528895  0  1.99659  0  0  -0.473425  0  2.233819  0  0  -0.49668  0  2.22403  0  0  -0.27883  -0.457577  0  2.240153  0
O  O117  1  0.49065308  0.51846592  0.72703154  1  0  -0.529311  0  1.995347  0  0  -0.473411  0  2.232206  0  0  -0.496674  0  2.222468  0  0  -0.278915  -0.457505  0  2.238603  0
O  O118  1  0.26392114  0.01836995  0.22700881  1  0  -0.528894  0  1.996591  0  0  -0.473432  0  2.233776  0  0  -0.496689  0  2.22399  0  0  -0.2788  -0.457582  0  2.240107  0
O  O119  1  0.50934954  0.48153568  0.27296621  1  0  -0.529264  0  1.995083  0  0  -0.473429  0  2.231939  0  0  -0.496702  0  2.222188  0  0  -0.2789  -0.457518  0  2.238333  0
O  O120  1  0.54980249  0.78950861  0.86700118  1  0  -0.635989  0  2.050769  0  0  -0.569258  0  2.316253  0  0  -0.597394  0  2.303211  0  0  -0.327169  -0.549301  0  2.324288  0
O  O121  1  0.20614946  0.71049716  0.63309007  1  0  -0.636606  0  2.051278  0  0  -0.569775  0  2.315866  0  0  -0.597975  0  2.302845  0  0  -0.327474  -0.550032  0  2.324012  0
O  O122  1  0.45020096  0.21049196  0.13299855  1  0  -0.63603  0  2.050804  0  0  -0.569288  0  2.316267  0  0  -0.597424  0  2.303225  0  0  -0.327159  -0.549328  0  2.324303  0
O  O123  1  0.79385051  0.28950237  0.36690917  1  0  -0.636632  0  2.051259  0  0  -0.569771  0  2.315845  0  0  -0.597972  0  2.302822  0  0  -0.32748  -0.550028  0  2.323993  0
O  O124  1  0.43181652  0.87073274  0.97889819  1  0  -0.642651  0  1.956259  0  0  -0.592679  0  2.180022  0  0  -0.616442  0  2.169541  0  0  -0.328757  -0.575891  0  2.186165  0
O  O125  1  0.28206484  0.62949504  0.52107678  1  0  -0.642816  0  1.956206  0  0  -0.592924  0  2.179335  0  0  -0.616754  0  2.168884  0  0  -0.329224  -0.576212  0  2.186003  0
O  O126  1  0.56818294  0.12926887  0.02110157  1  0  -0.642607  0  1.956498  0  0  -0.59262  0  2.180249  0  0  -0.616391  0  2.169775  0  0  -0.328721  -0.575813  0  2.186392  0
O  O127  1  0.71793264  0.37050657  0.47892271  1  0  -0.642838  0  1.956221  0  0  -0.592937  0  2.179381  0  0  -0.61677  0  2.168928  0  0  -0.329221  -0.576214  0  2.18605  0
O  O128  1  0.53269649  0.90877197  0.69967385  1  0  -0.620732  0  2.045518  0  0  -0.548851  0  2.29814  0  0  -0.578232  0  2.287102  0  0  -0.313646  -0.527867  0  2.304888  0
O  O129  1  0.14125892  0.59140947  0.80036087  1  0  -0.620072  0  2.045023  0  0  -0.548677  0  2.298609  0  0  -0.578145  0  2.287598  0  0  -0.31369  -0.527912  0  2.305083  0
O  O130  1  0.46730485  0.09122653  0.30032683  1  0  -0.620696  0  2.045501  0  0  -0.548831  0  2.298127  0  0  -0.578208  0  2.287094  0  0  -0.313659  -0.527849  0  2.304878  0
O  O131  1  0.85874156  0.40859111  0.19963844  1  0  -0.620142  0  2.044919  0  0  -0.548717  0  2.298462  0  0  -0.578187  0  2.287459  0  0  -0.313722  -0.527951  0  2.304937  0
O  O132  1  0.44458704  0.13931645  0.67507776  1  0  -0.633744  0  1.975537  0  0  -0.582818  0  2.210982  0  0  -0.607322  0  2.200138  0  0  -0.318415  -0.565105  0  2.217557  0
O  O133  1  0.25887781  0.36085712  0.82493295  1  0  -0.634885  0  1.973193  0  0  -0.583372  0  2.208297  0  0  -0.608059  0  2.197591  0  0  -0.319326  -0.565934  0  2.215033  0
O  O134  1  0.55541487  0.86068102  0.32492178  1  0  -0.633707  0  1.975416  0  0  -0.582746  0  2.210819  0  0  -0.607248  0  2.199981  0  0  -0.318364  -0.565031  0  2.217392  0
O  O135  1  0.74112373  0.63914449  0.17506588  1  0  -0.634861  0  1.973342  0  0  -0.583367  0  2.208473  0  0  -0.608053  0  2.197772  0  0  -0.319316  -0.565928  0  2.21521  0
