# generated using pymatgen
data_CdH14C22S2(NO)4
_symmetry_space_group_name_H-M   'P 1'
_cell_length_a   9.49750256
_cell_length_b   10.46235676
_cell_length_c   10.92112501
_cell_angle_alpha   79.73899811
_cell_angle_beta   85.20349286
_cell_angle_gamma   72.05319692
_symmetry_Int_Tables_number   1
_chemical_formula_structural   CdH14C22S2(NO)4
_chemical_formula_sum   'Cd2 H28 C44 S4 N8 O8'
_cell_volume   1015.39922199
_cell_formula_units_Z   2
loop_
 _symmetry_equiv_pos_site_id
 _symmetry_equiv_pos_as_xyz
  1  'x, y, z'
loop_
 _atom_site_type_symbol
 _atom_site_label
 _atom_site_symmetry_multiplicity
 _atom_site_fract_x
 _atom_site_fract_y
 _atom_site_fract_z
 _atom_site_occupancy
 _atom_site_pbe_bader_spin_density
 _atom_site_pbe_cm5_charge
 _atom_site_pbe_ddec_charge
 _atom_site_pbe_ddec_spin_density
 _atom_site_pbe_ddec_sum_bond_order
 _atom_site_pbe_magmom
Cd  Cd0  1  0.99604616  0.79861282  0.11973027  1  0  0.782077  0.920446  0  2.158633  0
Cd  Cd1  1  0.00395356  0.20138578  0.88027070  1  0  0.782067  0.920465  0  2.158613  0
H  H2  1  0.07618672  0.31738459  0.10490763  1  0  0.105864  0.12005  0  1.028014  0
H  H3  1  0.92381086  0.68262108  0.89509784  1  0  0.105871  0.120052  0  1.027882  0
H  H4  1  0.96909618  0.42873252  0.47068698  1  0  0.100641  0.101802  0  1.048507  0
H  H5  1  0.03089998  0.57126096  0.52932154  1  0  0.100655  0.101798  0  1.048465  0
H  H6  1  0.98773850  0.19151531  0.56071392  1  0  0.101231  0.110709  0  1.024417  0
H  H7  1  0.01226168  0.80847517  0.43928834  1  0  0.10124  0.110695  0  1.024411  0
H  H8  1  0.05386663  0.01303486  0.41959058  1  0  0.093978  0.08846  0  1.086332  0
H  H9  1  0.94613824  0.98696069  0.58040770  1  0  0.093986  0.088453  0  1.086404  0
H  H10  1  0.82810677  0.00432256  0.33105112  1  0  0.130909  0.10249  0  1.036437  0
H  H11  1  0.17189480  0.99566998  0.66894702  1  0  0.130882  0.102481  0  1.036365  0
H  H12  1  0.61200868  0.84179888  0.10462206  1  0  0.119024  0.114161  0  1.000676  0
H  H13  1  0.38798585  0.15820590  0.89537466  1  0  0.119109  0.114243  0  1.000606  0
H  H14  1  0.39870156  0.01318314  0.24013082  1  0  0.123087  0.129274  0  1.014616  0
H  H15  1  0.60129373  0.98682264  0.75986659  1  0  0.123086  0.12931  0  1.01454  0
H  H16  1  0.29399291  0.17489422  0.36842414  1  0  0.100019  0.119228  0  1.067736  0
H  H17  1  0.70600713  0.82510337  0.63157696  1  0  0.100014  0.119225  0  1.067748  0
H  H18  1  0.24794579  0.34168416  0.53010619  1  0  0.106984  0.131598  0  1.001084  0
H  H19  1  0.75205676  0.65831545  0.46989345  1  0  0.10698  0.131584  0  1.001065  0
H  H20  1  0.73940010  0.35315444  0.63062581  1  0  0.107525  0.137659  0  1.004797  0
H  H21  1  0.26060353  0.64684515  0.36937465  1  0  0.107533  0.13768  0  1.004792  0
H  H22  1  0.68312689  0.51228654  0.79780660  1  0  0.10853  0.131088  0  1.007837  0
H  H23  1  0.31687391  0.48771515  0.20219010  1  0  0.108529  0.131095  0  1.007812  0
H  H24  1  0.18041814  0.55319808  0.93494991  1  0  0.132551  0.116005  0  1.034243  0
H  H25  1  0.81958014  0.44680158  0.06504825  1  0  0.132553  0.115993  0  1.034224  0
H  H26  1  0.53879713  0.72249268  0.87311589  1  0  0.123256  0.127171  0  1.007945  0
H  H27  1  0.46120285  0.27751507  0.12688262  1  0  0.123285  0.12723  0  1.007968  0
H  H28  1  0.32181996  0.86842820  0.02755589  1  0  0.117728  0.123344  0  1.017045  0
H  H29  1  0.67817567  0.13157345  0.97244766  1  0  0.117714  0.123369  0  1.017054  0
C  C30  1  0.09302216  0.04571249  0.17379367  1  0  0.200817  0.578829  0  4.222967  0
C  C31  1  0.90698117  0.95429120  0.82620248  1  0  0.200951  0.579111  0  4.222686  0
C  C32  1  0.06730798  0.15344552  0.25510669  1  0  -0.030774  -0.05402  0  3.999612  0
C  C33  1  0.93269350  0.84655411  0.74489212  1  0  -0.030763  -0.054042  0  3.999513  0
C  C34  1  0.05830805  0.28850533  0.20462665  1  0  -0.085158  -0.125156  0  3.934352  0
C  C35  1  0.94168615  0.71149738  0.79537410  1  0  -0.085126  -0.125129  0  3.934278  0
C  C36  1  0.02335502  0.38806955  0.28204271  1  0  -0.022942  -0.035141  0  3.985051  0
C  C37  1  0.97664345  0.61193000  0.71796461  1  0  -0.02302  -0.035221  0  3.98519  0
C  C38  1  0.99819197  0.35189712  0.41004341  1  0  -0.082723  -0.089181  0  3.960574  0
C  C39  1  0.00180463  0.64810148  0.58996057  1  0  -0.082713  -0.089111  0  3.96055  0
C  C40  1  0.00818999  0.21764135  0.46092258  1  0  -0.097529  -0.092813  0  4.007223  0
C  C41  1  0.99181039  0.78235521  0.53907958  1  0  -0.097545  -0.092878  0  4.007451  0
C  C42  1  0.04324459  0.11909962  0.38342611  1  0  -0.09806  -0.124465  0  4.025183  0
C  C43  1  0.95675819  0.88089903  0.61656909  1  0  -0.098095  -0.12444  0  4.025288  0
C  C44  1  0.00794004  0.53400933  0.22802663  1  0  0.181658  0.537153  0  4.273449  0
C  C45  1  0.99205912  0.46599125  0.77197863  1  0  0.18179  0.537208  0  4.273373  0
C  C46  1  0.74187379  0.98110549  0.28839707  1  0  0.139145  0.096409  0  3.898995  0
C  C47  1  0.25812765  0.01889106  0.71160500  1  0  0.139208  0.096467  0  3.899081  0
C  C48  1  0.62526191  0.90144953  0.17196794  1  0  0.003448  -0.020043  0  4.004729  0
C  C49  1  0.37473060  0.09855521  0.82803354  1  0  0.003392  -0.020084  0  4.004454  0
C  C50  1  0.51830833  0.98614355  0.23782705  1  0  0.000235  -0.104344  0  3.895445  0
C  C51  1  0.48169277  0.01385403  0.76217397  1  0  0.000237  -0.104339  0  3.895021  0
C  C52  1  0.53046406  0.13082563  0.39288687  1  0  0.081242  0.062136  0  4.045893  0
C  C53  1  0.46953698  0.86916888  0.60711649  1  0  0.081198  0.062098  0  4.045996  0
C  C54  1  0.38207360  0.19295037  0.41371873  1  0  -0.114581  -0.194555  0  4.041661  0
C  C55  1  0.61792510  0.80704822  0.58628416  1  0  -0.114585  -0.194548  0  4.041694  0
C  C56  1  0.35773707  0.28272887  0.50133932  1  0  -0.106753  -0.131757  0  3.986563  0
C  C57  1  0.64226377  0.71727279  0.49865921  1  0  -0.106743  -0.131707  0  3.986466  0
C  C58  1  0.48680699  0.28938213  0.54644273  1  0  -0.019237  -0.004089  0  4.061717  0
C  C59  1  0.51319590  0.71061955  0.45355288  1  0  -0.019212  -0.004105  0  4.061605  0
C  C60  1  0.50369529  0.36903929  0.63581734  1  0  -0.021078  -0.012594  0  4.069957  0
C  C61  1  0.49630829  0.63096033  0.36418038  1  0  -0.021102  -0.012658  0  4.069973  0
C  C62  1  0.62871546  0.39440043  0.66963147  1  0  -0.10444  -0.134357  0  3.980759  0
C  C63  1  0.37128573  0.60560020  0.33036904  1  0  -0.104435  -0.134341  0  3.980702  0
C  C64  1  0.59881018  0.48100799  0.76049748  1  0  -0.107283  -0.170721  0  4.033978  0
C  C65  1  0.40118791  0.51899571  0.23950186  1  0  -0.107271  -0.170687  0  4.033879  0
C  C66  1  0.45123332  0.51990753  0.79623054  1  0  0.080524  0.053844  0  4.053168  0
C  C67  1  0.54876723  0.48009512  0.20376968  1  0  0.080603  0.053864  0  4.053164  0
C  C68  1  0.24680252  0.62034993  0.94027802  1  0  0.137069  0.091075  0  3.867178  0
C  C69  1  0.75320034  0.37964867  0.05972084  1  0  0.13709  0.091139  0  3.86724  0
C  C70  1  0.43419401  0.70954404  0.91089095  1  0  -0.006045  -0.110342  0  3.910736  0
C  C71  1  0.56579907  0.29045870  0.08910714  1  0  -0.006032  -0.11034  0  3.910399  0
C  C72  1  0.32717928  0.77965222  0.98701771  1  0  -0.000263  -0.019738  0  3.999954  0
C  C73  1  0.67281915  0.22034342  0.01297744  1  0  -0.000243  -0.019706  0  3.999612  0
S  S74  1  0.64111571  0.18251303  0.47973699  1  0  0.100663  0.103157  0  2.849703  0
S  S75  1  0.35888408  0.81748863  0.52026255  1  0  0.10066  0.103154  0  2.849609  0
S  S76  1  0.34788702  0.45197801  0.71814220  1  0  0.10522  0.106999  0  2.919253  0
S  S77  1  0.65211615  0.54801958  0.28185589  1  0  0.105212  0.107023  0  2.919351  0
N  N78  1  0.76349848  0.89905800  0.20458603  1  0  -0.346969  -0.277296  0  3.503349  0
N  N79  1  0.23650073  0.10093863  0.79541072  1  0  -0.347062  -0.277439  0  3.50365  0
N  N80  1  0.59387649  0.03664309  0.31216493  1  0  -0.226141  0.021926  0  3.867566  0
N  N81  1  0.40611965  0.96335350  0.68783758  1  0  -0.226096  0.021941  0  3.867549  0
N  N82  1  0.38186027  0.60895972  0.88055387  1  0  -0.224732  0.028615  0  3.836932  0
N  N83  1  0.61814096  0.39104398  0.11944338  1  0  -0.224829  0.028529  0  3.836993  0
N  N84  1  0.21158157  0.72356368  0.00412546  1  0  -0.350468  -0.288668  0  3.515669  0
N  N85  1  0.78841605  0.27643493  0.99587660  1  0  -0.350484  -0.288793  0  3.515774  0
O  O86  1  0.07761772  0.93133194  0.22721848  1  0  -0.333737  -0.559659  0  2.264525  0
O  O87  1  0.92238380  0.06867076  0.77277707  1  0  -0.333803  -0.559808  0  2.264398  0
O  O88  1  0.12734901  0.07274523  0.05944725  1  0  -0.341354  -0.587957  0  2.309786  0
O  O89  1  0.87266073  0.92725838  0.94055112  1  0  -0.341422  -0.588119  0  2.309837  0
O  O90  1  0.96544524  0.57634599  0.11607860  1  0  -0.333824  -0.564802  0  2.208688  0
O  O91  1  0.03456613  0.42365252  0.88392139  1  0  -0.333813  -0.56475  0  2.20872  0
O  O92  1  0.03747235  0.60907241  0.29593615  1  0  -0.329344  -0.551914  0  2.183575  0
O  O93  1  0.96252575  0.39092818  0.70406920  1  0  -0.329441  -0.551978  0  2.183485  0
