# generated using pymatgen
data_AgH12C11S(NO)3
_symmetry_space_group_name_H-M   'P 1'
_cell_length_a   6.78819243
_cell_length_b   10.92860175
_cell_length_c   10.92861504
_cell_angle_alpha   97.12681808
_cell_angle_beta   113.06578148
_cell_angle_gamma   113.06706684
_symmetry_Int_Tables_number   1
_chemical_formula_structural   AgH12C11S(NO)3
_chemical_formula_sum   'Ag2 H24 C22 S2 N6 O6'
_cell_volume   648.34533334
_cell_formula_units_Z   2
loop_
 _symmetry_equiv_pos_site_id
 _symmetry_equiv_pos_as_xyz
  1  'x, y, z'
loop_
 _atom_site_type_symbol
 _atom_site_label
 _atom_site_symmetry_multiplicity
 _atom_site_fract_x
 _atom_site_fract_y
 _atom_site_fract_z
 _atom_site_occupancy
 _atom_site_hle17_bader_spin_density
 _atom_site_hle17_ddec_charge
 _atom_site_hle17_ddec_spin_density
 _atom_site_hle17_ddec_sum_bond_order
 _atom_site_hle17_magmom
 _atom_site_hse06_10hf_bader_spin_density
 _atom_site_hse06_10hf_ddec_charge
 _atom_site_hse06_10hf_ddec_spin_density
 _atom_site_hse06_10hf_ddec_sum_bond_order
 _atom_site_hse06_10hf_magmom
 _atom_site_hse06_bader_spin_density
 _atom_site_hse06_ddec_charge
 _atom_site_hse06_ddec_spin_density
 _atom_site_hse06_ddec_sum_bond_order
 _atom_site_hse06_magmom
 _atom_site_pbe_bader_spin_density
 _atom_site_pbe_cm5_charge
 _atom_site_pbe_ddec_charge
 _atom_site_pbe_ddec_spin_density
 _atom_site_pbe_ddec_sum_bond_order
 _atom_site_pbe_magmom
Ag  Ag0  1  0.80340294  0.87323806  0.25663730  1  0  0.640095  0  1.191574  0  0  0.515675  0  1.582355  0  0  0.549659  0  1.533275  0  0  0.479147  0.49041  0  1.61786  0
Ag  Ag1  1  0.19666507  0.74338851  0.12676444  1  0  0.639988  0  1.191611  0  0  0.515568  0  1.582448  0  0  0.549558  0  1.533361  0  0  0.479083  0.490304  0  1.617952  0
H  H2  1  0.82747474  0.25388670  0.05335797  1  0  0.308017  0  0.905332  0  0  0.299936  0  0.957666  0  0  0.304468  0  0.956131  0  0  0.305141  0.29686  0  0.958728  0
H  H3  1  0.17245084  0.94663776  0.74610297  1  0  0.308194  0  0.905471  0  0  0.300049  0  0.957836  0  0  0.304579  0  0.956299  0  0  0.305209  0.296975  0  0.958896  0
H  H4  1  0.86135604  0.39479110  0.99475897  1  0  0.313771  0  0.889433  0  0  0.303583  0  0.947181  0  0  0.308787  0  0.944065  0  0  0.30649  0.300111  0  0.94917  0
H  H5  1  0.13860128  0.00522076  0.60521534  1  0  0.313941  0  0.889513  0  0  0.303686  0  0.947263  0  0  0.308888  0  0.944146  0  0  0.306623  0.300215  0  0.949252  0
H  H6  1  0.73241311  0.02793318  0.90485596  1  0  0.099273  0  0.93441  0  0  0.114212  0  0.985823  0  0  0.117543  0  0.984535  0  0  0.10107  0.111477  0  0.987591  0
H  H7  1  0.26746468  0.09511241  0.97203785  1  0  0.099265  0  0.934211  0  0  0.114212  0  0.985621  0  0  0.117548  0  0.984321  0  0  0.101057  0.111466  0  0.987389  0
H  H8  1  0.59783078  0.88332543  0.66731624  1  0  0.105707  0  0.989639  0  0  0.108292  0  1.063467  0  0  0.111721  0  1.060369  0  0  0.103621  0.106017  0  1.065439  0
H  H9  1  0.40207478  0.33265836  0.11663355  1  0  0.105824  0  0.989691  0  0  0.108434  0  1.063482  0  0  0.111861  0  1.060386  0  0  0.103626  0.106159  0  1.065457  0
H  H10  1  0.65390571  0.24086415  0.52348217  1  0  0.102643  0  0.991602  0  0  0.111321  0  1.051108  0  0  0.114456  0  1.048736  0  0  0.107667  0.108784  0  1.052984  0
H  H11  1  0.34622310  0.47656864  0.75912866  1  0  0.102777  0  0.991667  0  0  0.11151  0  1.051067  0  0  0.114668  0  1.048667  0  0  0.107743  0.108972  0  1.052944  0
H  H12  1  0.79275675  0.38478200  0.75991040  1  0  0.100635  0  0.969217  0  0  0.11274  0  1.028682  0  0  0.114953  0  1.029463  0  0  0.099768  0.111275  0  1.028202  0
H  H13  1  0.20730759  0.24010949  0.61524337  1  0  0.100517  0  0.969501  0  0  0.112646  0  1.028946  0  0  0.114863  0  1.029715  0  0  0.099713  0.111167  0  1.028501  0
H  H14  1  0.13091605  0.13577819  0.25650764  1  0  0.095677  0  0.949655  0  0  0.112868  0  1.023127  0  0  0.114509  0  1.020662  0  0  0.081713  0.11128  0  1.025598  0
H  H15  1  0.86900544  0.74365470  0.86406071  1  0  0.0955  0  0.949836  0  0  0.112811  0  1.023144  0  0  0.114456  0  1.020681  0  0  0.081753  0.111219  0  1.025627  0
H  H16  1  0.31230840  0.32068052  0.33291409  1  0  0.127628  0  0.933959  0  0  0.150496  0  0.989039  0  0  0.152116  0  0.988334  0  0  0.100771  0.149148  0  0.989737  0
H  H17  1  0.68750503  0.66684017  0.67922823  1  0  0.127467  0  0.934092  0  0  0.150366  0  0.989152  0  0  0.151975  0  0.988449  0  0  0.100706  0.14902  0  0.989852  0
H  H18  1  0.28375409  0.21351588  0.44046119  1  0  0.100169  0  0.967474  0  0  0.119518  0  1.035931  0  0  0.120393  0  1.035851  0  0  0.086427  0.118532  0  1.036357  0
H  H19  1  0.71650808  0.55967111  0.78676556  1  0  0.100062  0  0.967738  0  0  0.119299  0  1.036357  0  0  0.120166  0  1.036289  0  0  0.086308  0.118352  0  1.036747  0
H  H20  1  0.21226024  0.56323284  0.41950317  1  0  0.140029  0  0.936666  0  0  0.157882  0  0.998762  0  0  0.160325  0  0.998086  0  0  0.100051  0.156069  0  0.99931  0
H  H21  1  0.78772390  0.58045732  0.43676901  1  0  0.139873  0  0.936663  0  0  0.157705  0  0.998814  0  0  0.16013  0  0.99816  0  0  0.100002  0.155913  0  0.99934  0
H  H22  1  0.16791575  0.48141197  0.25417388  1  0  0.131426  0  0.972928  0  0  0.149793  0  1.035268  0  0  0.152462  0  1.03399  0  0  0.094423  0.147741  0  1.036496  0
H  H23  1  0.83200454  0.74577871  0.51854664  1  0  0.131256  0  0.97272  0  0  0.149605  0  1.035113  0  0  0.152271  0  1.033841  0  0  0.094299  0.147554  0  1.036342  0
H  H24  1  0.96122989  0.54053251  0.26433477  1  0  0.114946  0  0.947223  0  0  0.133483  0  1.014008  0  0  0.135645  0  1.012632  0  0  0.091411  0.131989  0  1.014937  0
H  H25  1  0.03874396  0.73563343  0.45944373  1  0  0.115064  0  0.946928  0  0  0.133526  0  1.013795  0  0  0.135693  0  1.012408  0  0  0.091437  0.132028  0  1.014732  0
C  C26  1  0.77195556  0.21735307  0.85016455  1  0  0.340786  0  3.855907  0  0  0.334547  0  4.09934  0  0  0.348563  0  4.117382  0  0  0.111034  0.325224  0  4.086485  0
C  C27  1  0.22803193  0.14981679  0.78263185  1  0  0.341074  0  3.855952  0  0  0.334812  0  4.099373  0  0  0.348828  0  4.117415  0  0  0.111137  0.32549  0  4.086514  0
C  C28  1  0.71505143  0.07457938  0.82096161  1  0  -0.198546  0  3.728148  0  0  -0.210744  0  3.976842  0  0  -0.219697  0  3.996772  0  0  -0.106103  -0.204553  0  3.963274  0
C  C29  1  0.28490155  0.17902126  0.92539203  1  0  -0.198581  0  3.727706  0  0  -0.210748  0  3.976341  0  0  -0.219704  0  3.996273  0  0  -0.106042  -0.204539  0  3.962753  0
C  C30  1  0.64070249  0.99300891  0.68775516  1  0  -0.044122  0  3.796452  0  0  -0.074006  0  4.054294  0  0  -0.068356  0  4.07231  0  0  -0.090729  -0.077919  0  4.04209  0
C  C31  1  0.35929554  0.31225637  0.00696932  1  0  -0.044331  0  3.795807  0  0  -0.074216  0  4.053641  0  0  -0.068565  0  4.071664  0  0  -0.09068  -0.078134  0  4.041434  0
C  C32  1  0.61616533  0.05157052  0.57886831  1  0  -0.166528  0  3.770655  0  0  -0.139991  0  4.027578  0  0  -0.151748  0  4.051044  0  0  -0.044439  -0.132381  0  4.011975  0
C  C33  1  0.38385327  0.42116858  0.94843516  1  0  -0.166513  0  3.770258  0  0  -0.140061  0  4.02729  0  0  -0.151823  0  4.050746  0  0  -0.044438  -0.132445  0  4.011696  0
C  C34  1  0.66991217  0.19319430  0.60574652  1  0  -0.050512  0  3.785952  0  0  -0.079162  0  4.041245  0  0  -0.073686  0  4.05857  0  0  -0.094506  -0.081897  0  4.029157  0
C  C35  1  0.33009615  0.39428724  0.80679906  1  0  -0.05069  0  3.784759  0  0  -0.079299  0  4.040028  0  0  -0.073833  0  4.057336  0  0  -0.094514  -0.082041  0  4.027955  0
C  C36  1  0.74794383  0.27454021  0.73954940  1  0  -0.189626  0  3.726086  0  0  -0.202737  0  3.975449  0  0  -0.211801  0  3.996941  0  0  -0.104855  -0.197179  0  3.960819  0
C  C37  1  0.25209925  0.26045508  0.72546796  1  0  -0.189572  0  3.725319  0  0  -0.20276  0  3.97476  0  0  -0.211817  0  3.996246  0  0  -0.104874  -0.19721  0  3.960131  0
C  C38  1  0.76934499  0.14168410  0.33807521  1  0  0.360492  0  3.863349  0  0  0.311949  0  4.14929  0  0  0.335208  0  4.161182  0  0  0.166646  0.296534  0  4.140298  0
C  C39  1  0.23069784  0.66194258  0.85830093  1  0  0.360739  0  3.862759  0  0  0.312107  0  4.148775  0  0  0.33537  0  4.160657  0  0  0.166706  0.296691  0  4.139791  0
C  C40  1  0.96710278  0.23939428  0.33196299  1  0  -0.16259  0  3.805962  0  0  -0.138146  0  4.059959  0  0  -0.151904  0  4.085483  0  0  -0.058653  -0.129888  0  4.043057  0
C  C41  1  0.03288763  0.66803819  0.76059045  1  0  -0.162814  0  3.806143  0  0  -0.138339  0  4.060066  0  0  -0.152087  0  4.085592  0  0  -0.058568  -0.130077  0  4.043182  0
C  C42  1  0.91440924  0.35244893  0.31546653  1  0  0.218233  0  3.811299  0  0  0.212073  0  4.082816  0  0  0.224978  0  4.099082  0  0  0.094607  0.203813  0  4.071734  0
C  C43  1  0.08557602  0.68455175  0.64757218  1  0  0.218354  0  3.812113  0  0  0.212288  0  4.083403  0  0  0.225153  0  4.09972  0  0  0.094655  0.204022  0  4.072331  0
C  C44  1  0.18306016  0.22729899  0.34115754  1  0  -0.280608  0  3.757301  0  0  -0.363096  0  4.002401  0  0  -0.362248  0  4.012082  0  0  -0.243912  -0.36322  0  3.996453  0
C  C45  1  0.81693844  0.65885236  0.77271079  1  0  -0.280031  0  3.757628  0  0  -0.362579  0  4.002768  0  0  -0.361716  0  4.012438  0  0  -0.243764  -0.362729  0  3.996786  0
C  C46  1  0.07194540  0.49136610  0.31224818  1  0  -0.362193  0  3.687075  0  0  -0.437289  0  3.919766  0  0  -0.442187  0  3.926131  0  0  -0.241487  -0.433822  0  3.915705  0
C  C47  1  0.92802709  0.68771049  0.50863525  1  0  -0.361972  0  3.686542  0  0  -0.43702  0  3.919285  0  0  -0.44189  0  3.925675  0  0  -0.241333  -0.433566  0  3.915205  0
S  S48  1  0.53013234  0.94072463  0.41531038  1  0  1.191399  0  5.401606  0  0  1.10883  0  5.87948  0  0  1.153433  0  5.869928  0  0  0.521683  1.077741  0  5.885033  0
S  S49  1  0.46990969  0.58467017  0.05928175  1  0  1.191496  0  5.401294  0  0  1.108978  0  5.879143  0  0  1.15358  0  5.869591  0  0  0.521629  1.077882  0  5.884703  0
N  N50  1  0.85582043  0.29992703  0.98254913  1  0  -0.634642  0  3.143364  0  0  -0.601096  0  3.37008  0  0  -0.621848  0  3.374806  0  0  -0.581819  -0.586404  0  3.366523  0
N  N51  1  0.14414538  0.01743944  0.70006405  1  0  -0.634905  0  3.143868  0  0  -0.601193  0  3.370683  0  0  -0.621941  0  3.375396  0  0  -0.582007  -0.586506  0  3.367134  0
N  N52  1  0.72841862  0.01622477  0.36311530  1  0  -0.708441  0  3.244736  0  0  -0.62669  0  3.571213  0  0  -0.657563  0  3.573261  0  0  -0.432647  -0.604447  0  3.568067  0
N  N53  1  0.27162443  0.63692022  0.98377185  1  0  -0.708278  0  3.243515  0  0  -0.626589  0  3.570145  0  0  -0.65748  0  3.572212  0  0  -0.432537  -0.604338  0  3.566994  0
N  N54  1  0.70105355  0.32555169  0.30782559  1  0  -0.241134  0  2.686124  0  0  -0.234842  0  2.966504  0  0  -0.242112  0  2.974659  0  0  -0.235069  -0.229275  0  2.960292  0
N  N55  1  0.29892491  0.69218279  0.67445449  1  0  -0.241541  0  2.686686  0  0  -0.235359  0  2.967046  0  0  -0.242634  0  2.975223  0  0  -0.235456  -0.229776  0  2.960831  0
O  O56  1  0.54170812  0.81423575  0.43382990  1  0  -0.596591  0  2.012179  0  0  -0.544845  0  2.264488  0  0  -0.56707  0  2.254054  0  0  -0.304852  -0.528858  0  2.270706  0
O  O57  1  0.45832976  0.56618041  0.18576617  1  0  -0.596588  0  2.012479  0  0  -0.544862  0  2.264814  0  0  -0.567081  0  2.254377  0  0  -0.304871  -0.528874  0  2.271034  0
O  O58  1  0.27962801  0.91226096  0.31106734  1  0  -0.666981  0  2.030193  0  0  -0.592144  0  2.316948  0  0  -0.619033  0  2.299936  0  0  -0.348191  -0.573069  0  2.32876  0
O  O59  1  0.72042190  0.68893382  0.08774776  1  0  -0.667057  0  2.029939  0  0  -0.592231  0  2.316689  0  0  -0.61912  0  2.299681  0  0  -0.34818  -0.573151  0  2.328499  0
O  O60  1  0.60227078  0.18764359  0.31737130  1  0  -0.188468  0  2.344407  0  0  -0.11247  0  2.578922  0  0  -0.13003  0  2.584695  0  0  -0.064496  -0.100148  0  2.574507  0
O  O61  1  0.39777861  0.68266036  0.81235003  1  0  -0.188463  0  2.344822  0  0  -0.112289  0  2.579239  0  0  -0.12983  0  2.585  0  0  -0.064338  -0.099985  0  2.574837  0
