# generated using pymatgen
data_AlH6C10NClO5
_symmetry_space_group_name_H-M   'P 1'
_cell_length_a   6.69009421
_cell_length_b   11.16341244
_cell_length_c   11.08499644
_cell_angle_alpha   82.63744097
_cell_angle_beta   73.50355927
_cell_angle_gamma   72.50981545
_symmetry_Int_Tables_number   1
_chemical_formula_structural   AlH6C10NClO5
_chemical_formula_sum   'Al2 H12 C20 N2 Cl2 O10'
_cell_volume   756.26912435
_cell_formula_units_Z   2
loop_
 _symmetry_equiv_pos_site_id
 _symmetry_equiv_pos_as_xyz
  1  'x, y, z'
loop_
 _atom_site_type_symbol
 _atom_site_label
 _atom_site_symmetry_multiplicity
 _atom_site_fract_x
 _atom_site_fract_y
 _atom_site_fract_z
 _atom_site_occupancy
 _atom_site_pbe_bader_charge
 _atom_site_pbe_bader_spin_density
 _atom_site_pbe_cm5_charge
 _atom_site_pbe_ddec_charge
 _atom_site_pbe_ddec_spin_density
 _atom_site_pbe_ddec_sum_bond_order
 _atom_site_pbe_magmom
Al  Al0  1  0.49210451  0.49807129  0.50369973  1  2.505477  0  0.397618  1.635765  0  2.581403  0
Al  Al1  1  0.99063737  0.50021879  0.50416219  1  2.50205  0  0.394334  1.630993  0  2.595632  0
H  H2  1  0.27597014  0.35273414  0.58211276  1  0.603072  0  0.351995  0.426145  0  0.858313  0
H  H3  1  0.70070282  0.64783781  0.43613115  1  0.64825  0  0.340622  0.410133  0  0.894844  0
H  H4  1  0.75485403  0.43636961  0.13316077  1  0.095358  0  0.102977  0.120198  0  1.028449  0
H  H5  1  0.23017720  0.56483868  0.87285140  1  0.056424  0  0.106367  0.1189  0  1.017625  0
H  H6  1  0.26301507  0.23767479  0.34171970  1  0.151377  0  0.11432  0.139354  0  1.022537  0
H  H7  1  0.48136488  0.77218982  0.33300382  1  0.107516  0  0.112744  0.130427  0  1.024226  0
H  H8  1  0.74154407  0.87957293  0.58155167  1  0.075166  0  0.113567  0.120731  0  0.978408  0
H  H9  1  0.62652061  0.11421007  0.57896583  1  0.096857  0  0.111863  0.116428  0  0.986132  0
H  H10  1  0.99893962  0.45382916  0.79995985  1  0.486575  0  0.299896  0.3089  0  0.989644  0
H  H11  1  0.03751615  0.41769449  0.95023053  1  0.43882  0  0.297655  0.297591  0  0.978411  0
H  H12  1  0.99054333  0.55091255  0.21092129  1  0.479076  0  0.298595  0.308616  0  0.992179  0
H  H13  1  0.94221015  0.60804636  0.06668304  1  0.423286  0  0.301015  0.294643  0  0.953945  0
C  C14  1  0.86133970  0.27205655  0.49183344  1  1.571601  0  0.275997  0.657788  0  4.0653  0
C  C15  1  0.62858438  0.50802853  0.73182618  1  1.468832  0  0.261033  0.650972  0  4.079693  0
C  C16  1  0.12962481  0.72737896  0.49469862  1  1.566311  0  0.271578  0.651021  0  4.071958  0
C  C17  1  0.35611142  0.49103035  0.27466233  1  1.567278  0  0.25498  0.63456  0  4.095018  0
C  C18  1  0.56537125  0.50496568  0.87099558  1  0.054596  0  -0.028578  -0.139763  0  3.961924  0
C  C19  1  0.41909594  0.49271274  0.13546656  1  -0.049731  0  -0.030391  -0.142504  0  3.98103  0
C  C20  1  0.72178874  0.46609196  0.94334901  1  0.431638  0  0.092208  0.276011  0  4.089558  0
C  C21  1  0.26292105  0.52761881  0.06307045  1  0.429058  0  0.086386  0.265499  0  4.092153  0
C  C22  1  0.64067106  0.46319265  0.07474709  1  0.031431  0  -0.108069  -0.218776  0  3.988138  0
C  C23  1  0.34354573  0.53546735  0.93190686  1  -0.026478  0  -0.106119  -0.214944  0  3.979318  0
C  C24  1  0.93922718  0.13315643  0.47710994  1  0.019899  0  -0.004517  -0.082423  0  3.922775  0
C  C25  1  0.15719694  0.07007491  0.41187993  1  0.000201  0  0.00391  0.074468  0  3.943558  0
C  C26  1  0.79244660  0.06431692  0.53249059  1  -0.023839  0  -0.077685  -0.085715  0  3.990537  0
C  C27  1  0.30936846  0.13568867  0.34370605  1  0.007002  0  -0.092683  -0.188187  0  3.938936  0
C  C28  1  0.51631697  0.07303785  0.27894367  1  0.099915  0  0.009892  0.089633  0  4.078149  0
C  C29  1  0.06886069  0.86742091  0.47803708  1  -0.05759  0  -0.005317  -0.080617  0  3.927084  0
C  C30  1  0.85671434  0.93257099  0.53359894  1  0.036359  0  -0.077513  -0.086427  0  3.983526  0
C  C31  1  0.22195529  0.93477053  0.41120224  1  0.045259  0  0.002191  0.073074  0  3.947587  0
C  C32  1  0.43318808  0.87354183  0.34005111  1  -0.022544  0  -0.09541  -0.194988  0  3.964644  0
C  C33  1  0.57883155  0.93977213  0.27679788  1  0.061283  0  0.007916  0.089442  0  4.084252  0
N  N34  1  0.94222715  0.42657512  0.89118089  1  -1.273898  0  -0.606155  -0.627552  0  3.337673  0
N  N35  1  0.04239840  0.54891031  0.11542192  1  -1.238448  0  -0.602262  -0.628145  0  3.380029  0
Cl  Cl36  1  0.69468798  0.15723522  0.19891763  1  -0.17673  0  0.014884  -0.041484  0  1.57258  0
Cl  Cl37  1  0.83492756  0.85956614  0.19450533  1  -0.198236  0  0.004672  -0.062464  0  1.5555  0
O  O38  1  0.66086276  0.32519487  0.50073248  1  -1.260239  0  -0.231968  -0.593575  0  2.346285  0
O  O39  1  0.82566847  0.50664616  0.67564131  1  -1.274923  0  -0.239524  -0.604705  0  2.379395  0
O  O40  1  0.98212130  0.67377527  0.50391026  1  -1.265674  0  -0.233868  -0.595215  0  2.351249  0
O  O41  1  0.49962074  0.48973452  0.33034565  1  -1.266795  0  -0.24312  -0.596163  0  2.364571  0
O  O42  1  0.32241659  0.67062402  0.50126447  1  -1.259587  0  -0.229574  -0.584523  0  2.366088  0
O  O43  1  0.15845694  0.49357081  0.33170046  1  -1.269569  0  -0.242279  -0.605317  0  2.386575  0
O  O44  1  0.99806270  0.32798142  0.49832938  1  -1.262437  0  -0.231391  -0.589969  0  2.366843  0
O  O45  1  0.48530623  0.50937379  0.67574766  1  -1.262396  0  -0.244016  -0.602104  0  2.347585  0
O  O46  1  0.24215744  0.44244910  0.56128894  1  -1.410539  0  -0.44756  -0.978364  0  2.17701  0
O  O47  1  0.74007348  0.55666377  0.44600337  1  -1.46031  0  -0.451217  -0.97737  0  2.179053  0
