# generated using pymatgen
data_ZnH10C16(N3O)2
_symmetry_space_group_name_H-M   'P 1'
_cell_length_a   7.86330306
_cell_length_b   9.09763142
_cell_length_c   11.98812839
_cell_angle_alpha   98.00021200
_cell_angle_beta   105.47391822
_cell_angle_gamma   100.84417978
_symmetry_Int_Tables_number   1
_chemical_formula_structural   ZnH10C16(N3O)2
_chemical_formula_sum   'Zn2 H20 C32 N12 O4'
_cell_volume   795.34223465
_cell_formula_units_Z   2
loop_
 _symmetry_equiv_pos_site_id
 _symmetry_equiv_pos_as_xyz
  1  'x, y, z'
loop_
 _atom_site_type_symbol
 _atom_site_label
 _atom_site_symmetry_multiplicity
 _atom_site_fract_x
 _atom_site_fract_y
 _atom_site_fract_z
 _atom_site_occupancy
 _atom_site_hle17_bader_spin_density
 _atom_site_hle17_ddec_charge
 _atom_site_hle17_ddec_spin_density
 _atom_site_hle17_ddec_sum_bond_order
 _atom_site_hle17_magmom
 _atom_site_hse06_10hf_bader_spin_density
 _atom_site_hse06_10hf_ddec_charge
 _atom_site_hse06_10hf_ddec_spin_density
 _atom_site_hse06_10hf_ddec_sum_bond_order
 _atom_site_hse06_10hf_magmom
 _atom_site_hse06_bader_spin_density
 _atom_site_hse06_ddec_charge
 _atom_site_hse06_ddec_spin_density
 _atom_site_hse06_ddec_sum_bond_order
 _atom_site_hse06_magmom
 _atom_site_pbe_bader_spin_density
 _atom_site_pbe_cm5_charge
 _atom_site_pbe_ddec_charge
 _atom_site_pbe_ddec_spin_density
 _atom_site_pbe_ddec_sum_bond_order
 _atom_site_pbe_magmom
Zn  Zn0  1  0.93937124  0.65367711  0.39803202  1  0  0.889675  0  1.977276  0  0  0.680643  0  2.4526  0  0  0.727347  0  2.405  0  0  0.706037  0.648263  0  2.485071  0
Zn  Zn1  1  0.06063011  0.34632421  0.60196849  1  0  0.8897  0  1.977268  0  0  0.680692  0  2.452585  0  0  0.727395  0  2.404988  0  0  0.706043  0.648313  0  2.48506  0
H  H2  1  0.06877095  0.97620783  0.36923452  1  0  0.092972  0  0.973528  0  0  0.091245  0  1.054804  0  0  0.095187  0  1.049725  0  0  0.120246  0.088281  0  1.058568  0
H  H3  1  0.93123102  0.02379577  0.63076634  1  0  0.092963  0  0.973524  0  0  0.091226  0  1.054804  0  0  0.095167  0  1.049729  0  0  0.120238  0.088261  0  1.05857  0
H  H4  1  0.34004231  0.12820561  0.33417335  1  0  0.113184  0  0.932241  0  0  0.125887  0  0.982899  0  0  0.128859  0  0.983028  0  0  0.11544  0.123718  0  0.983078  0
H  H5  1  0.65995803  0.87179685  0.66582544  1  0  0.113214  0  0.932259  0  0  0.125919  0  0.98292  0  0  0.12889  0  0.98305  0  0  0.115467  0.123752  0  0.983097  0
H  H6  1  0.61081139  0.00996625  0.33862552  1  0  0.113095  0  0.931698  0  0  0.119294  0  0.998064  0  0  0.122682  0  0.995106  0  0  0.113942  0.116738  0  1.000291  0
H  H7  1  0.38918894  0.99003621  0.66137243  1  0  0.113104  0  0.931695  0  0  0.119308  0  0.998055  0  0  0.122687  0  0.995107  0  0  0.113944  0.116751  0  1.000283  0
H  H8  1  0.30572426  0.60544247  0.40496547  1  0  0.09805  0  0.92747  0  0  0.103199  0  0.993869  0  0  0.106792  0  0.99029  0  0  0.122312  0.100512  0  0.996545  0
H  H9  1  0.69427640  0.39456113  0.59503516  1  0  0.098045  0  0.927517  0  0  0.103194  0  0.993915  0  0  0.106788  0  0.990337  0  0  0.122311  0.100516  0  0.996582  0
H  H10  1  0.79660885  0.23871323  0.00391130  1  0  0.115871  0  0.940142  0  0  0.12942  0  0.993901  0  0  0.132996  0  0.992546  0  0  0.112386  0.126881  0  0.994978  0
H  H11  1  0.20339117  0.76128809  0.99608898  1  0  0.115895  0  0.940167  0  0  0.129409  0  0.993975  0  0  0.132978  0  0.992619  0  0  0.112371  0.126871  0  0.995049  0
H  H12  1  0.67683952  0.37396602  0.84134367  1  0  0.092046  0  0.962598  0  0  0.103734  0  1.022853  0  0  0.10553  0  1.022634  0  0  0.103752  0.102428  0  1.023027  0
H  H13  1  0.32315496  0.62602957  0.15865589  1  0  0.091993  0  0.962555  0  0  0.10368  0  1.02283  0  0  0.105474  0  1.022613  0  0  0.103742  0.102374  0  1.023004  0
H  H14  1  0.58546086  0.60721403  0.78316450  1  0  0.11127  0  0.959162  0  0  0.119863  0  1.022461  0  0  0.123532  0  1.019941  0  0  0.101187  0.117181  0  1.024332  0
H  H15  1  0.41453721  0.39278500  0.21683604  1  0  0.111236  0  0.959213  0  0  0.119875  0  1.022461  0  0  0.123547  0  1.019939  0  0  0.101197  0.117193  0  1.024331  0
H  H16  1  0.57351258  0.87857216  0.84295488  1  0  0.082473  0  0.964116  0  0  0.094788  0  1.02332  0  0  0.09682  0  1.023517  0  0  0.096904  0.093332  0  1.02327  0
H  H17  1  0.42649077  0.12142689  0.15704575  1  0  0.082453  0  0.964113  0  0  0.094771  0  1.02332  0  0  0.096803  0  1.023516  0  0  0.096892  0.093315  0  1.02327  0
H  H18  1  0.69221690  0.00802485  0.05565472  1  0  0.084803  0  0.983495  0  0  0.08851  0  1.05706  0  0  0.091842  0  1.054669  0  0  0.095325  0.086092  0  1.058806  0
H  H19  1  0.30778450  0.99197191  0.94434534  1  0  0.084761  0  0.983529  0  0  0.088466  0  1.057099  0  0  0.091799  0  1.054706  0  0  0.095306  0.086048  0  1.058844  0
H  H20  1  0.80965689  0.86775022  0.20913689  1  0  0.115046  0  0.974146  0  0  0.121577  0  1.041933  0  0  0.124772  0  1.040315  0  0  0.104632  0.119204  0  1.043297  0
H  H21  1  0.19034615  0.13224768  0.79086357  1  0  0.115056  0  0.974153  0  0  0.121574  0  1.041955  0  0  0.124776  0  1.040328  0  0  0.104631  0.119203  0  1.043317  0
C  C22  1  0.18519768  0.92793077  0.36764432  1  0  0.157069  0  3.631226  0  0  0.120231  0  3.885064  0  0  0.129709  0  3.90029  0  0  0.060303  0.114211  0  3.874689  0
C  C23  1  0.81480429  0.07207283  0.63235571  1  0  0.157109  0  3.631144  0  0  0.120301  0  3.884977  0  0  0.12978  0  3.900203  0  0  0.060364  0.114281  0  3.874604  0
C  C24  1  0.33864982  0.01246536  0.34878006  1  0  -0.119218  0  3.722058  0  0  -0.129304  0  3.9746  0  0  -0.138125  0  3.996345  0  0  -0.075695  -0.123774  0  3.959994  0
C  C25  1  0.66135216  0.98753825  0.65121997  1  0  -0.119234  0  3.722001  0  0  -0.129335  0  3.974547  0  0  -0.138152  0  3.996286  0  0  -0.075738  -0.123804  0  3.95994  0
C  C26  1  0.48639377  0.94782219  0.35086630  1  0  -0.010413  0  3.674143  0  0  -0.041407  0  3.924462  0  0  -0.03505  0  3.941096  0  0  -0.058201  -0.045112  0  3.913072  0
C  C27  1  0.51360525  0.05218025  0.64913142  1  0  -0.010507  0  3.674057  0  0  -0.041513  0  3.924385  0  0  -0.035149  0  3.941021  0  0  -0.058241  -0.045218  0  3.912996  0
C  C28  1  0.47607961  0.79930553  0.37218312  1  0  -0.103953  0  3.763321  0  0  -0.074755  0  3.995224  0  0  -0.087651  0  4.018894  0  0  -0.009312  -0.066716  0  3.979491  0
C  C29  1  0.52392073  0.20069692  0.62781483  1  0  -0.10387  0  3.76337  0  0  -0.074653  0  3.995246  0  0  -0.087549  0  4.018913  0  0  -0.009305  -0.066615  0  3.979513  0
C  C30  1  0.31703387  0.72133823  0.38849962  1  0  0.115844  0  3.665107  0  0  0.073412  0  3.912987  0  0  0.082051  0  3.929723  0  0  0.056258  0.068  0  3.901601  0
C  C31  1  0.68296647  0.27866423  0.61150084  1  0  0.115864  0  3.665206  0  0  0.073436  0  3.913082  0  0  0.082077  0  3.929819  0  0  0.056296  0.068017  0  3.901693  0
C  C32  1  0.62986523  0.72203522  0.38067713  1  0  0.618371  0  3.95151  0  0  0.567874  0  4.242984  0  0  0.602092  0  4.237691  0  0  0.190405  0.544822  0  4.245732  0
C  C33  1  0.37013511  0.27796723  0.61932249  1  0  0.618267  0  3.951604  0  0  0.567771  0  4.243066  0  0  0.601989  0  4.23777  0  0  0.19038  0.544718  0  4.245814  0
C  C34  1  0.89251224  0.35884363  0.23870871  1  0  0.234418  0  3.810578  0  0  0.211245  0  4.073656  0  0  0.219876  0  4.089586  0  0  0.219196  0.20547  0  4.062808  0
C  C35  1  0.10748848  0.64115541  0.76129145  1  0  0.234414  0  3.810526  0  0  0.211261  0  4.073622  0  0  0.219892  0  4.089553  0  0  0.219212  0.205486  0  4.062775  0
C  C36  1  0.83482819  0.43558045  0.14096211  1  0  0.179526  0  3.821938  0  0  0.179373  0  4.069216  0  0  0.18711  0  4.086939  0  0  0.128271  0.174295  0  4.057063  0
C  C37  1  0.16517252  0.56441859  0.85903806  1  0  0.179614  0  3.821841  0  0  0.179416  0  4.069177  0  0  0.187154  0  4.086901  0  0  0.128282  0.174337  0  4.057026  0
C  C38  1  0.78442530  0.35628571  0.02220589  1  0  -0.14191  0  3.717936  0  0  -0.165253  0  3.971322  0  0  -0.172319  0  3.991263  0  0  -0.083798  -0.160698  0  3.957895  0
C  C39  1  0.21556849  0.64371217  0.97779462  1  0  -0.142052  0  3.717953  0  0  -0.165375  0  3.971416  0  0  -0.172429  0  3.991347  0  0  -0.083809  -0.160818  0  3.957989  0
C  C40  1  0.71988142  0.43115476  0.93383522  1  0  -0.036505  0  3.701151  0  0  -0.060877  0  3.952845  0  0  -0.057442  0  3.970846  0  0  -0.066006  -0.0629  0  3.940526  0
C  C41  1  0.28011369  0.56884313  0.06616468  1  0  -0.036351  0  3.700989  0  0  -0.06072  0  3.952629  0  0  -0.057287  0  3.970625  0  0  -0.065974  -0.062742  0  3.940311  0
C  C42  1  0.70755833  0.58440698  0.96257710  1  0  0.01711  0  3.775862  0  0  0.034118  0  4.004288  0  0  0.030786  0  4.029102  0  0  -0.004951  0.03614  0  3.987601  0
C  C43  1  0.29243780  0.41558976  0.03742286  1  0  0.017095  0  3.775814  0  0  0.034191  0  4.004167  0  0  0.030868  0  4.028971  0  0  -0.004938  0.03621  0  3.987481  0
C  C44  1  0.63702637  0.66615658  0.87563748  1  0  -0.104462  0  3.723734  0  0  -0.125789  0  3.973841  0  0  -0.128013  0  3.995418  0  0  -0.089533  -0.124021  0  3.959149  0
C  C45  1  0.36297434  0.33384246  0.12436268  1  0  -0.104451  0  3.723769  0  0  -0.125834  0  3.97385  0  0  -0.128065  0  3.995427  0  0  -0.089539  -0.124064  0  3.959156  0
C  C46  1  0.62992059  0.81570087  0.90916345  1  0  -0.069803  0  3.783461  0  0  -0.085111  0  4.035038  0  0  -0.088496  0  4.0586  0  0  -0.093699  -0.082857  0  4.018909  0
C  C47  1  0.37007981  0.18429702  0.09083737  1  0  -0.069772  0  3.783428  0  0  -0.085088  0  4.035016  0  0  -0.088476  0  4.058583  0  0  -0.093685  -0.082836  0  4.018886  0
C  C48  1  0.69475606  0.88909435  0.02953050  1  0  -0.053026  0  3.777335  0  0  -0.065922  0  4.026539  0  0  -0.066959  0  4.048268  0  0  -0.089068  -0.064923  0  4.011569  0
C  C49  1  0.30524007  0.11090240  0.97047113  1  0  -0.052961  0  3.777257  0  0  -0.06586  0  4.026453  0  0  -0.066897  0  4.048184  0  0  -0.089058  -0.064861  0  4.011485  0
C  C50  1  0.76299625  0.81235927  0.11626442  1  0  -0.14908  0  3.706909  0  0  -0.169825  0  3.952365  0  0  -0.175297  0  3.974604  0  0  -0.091475  -0.166136  0  3.937322  0
C  C51  1  0.23700415  0.18763863  0.88373557  1  0  -0.149154  0  3.706845  0  0  -0.169868  0  3.952319  0  0  -0.175343  0  3.974552  0  0  -0.091471  -0.166176  0  3.937269  0
C  C52  1  0.76901797  0.65766669  0.08526258  1  0  0.208231  0  3.773073  0  0  0.210675  0  4.00818  0  0  0.216152  0  4.030557  0  0  0.111337  0.207013  0  3.993057  0
C  C53  1  0.23098375  0.34233121  0.91473765  1  0  0.208322  0  3.772961  0  0  0.21069  0  4.008117  0  0  0.216163  0  4.030495  0  0  0.111354  0.20703  0  3.992993  0
N  N54  1  0.17482751  0.78404779  0.38590071  1  0  -0.31674  0  3.326907  0  0  -0.229594  0  3.60259  0  0  -0.250027  0  3.618713  0  0  -0.330337  -0.215931  0  3.591385  0
N  N55  1  0.82517150  0.21595466  0.61409701  1  0  -0.316782  0  3.326854  0  0  -0.229676  0  3.602575  0  0  -0.25011  0  3.618699  0  0  -0.330384  -0.216012  0  3.591374  0
N  N56  1  0.94490059  0.43156728  0.35235431  1  0  -0.297047  0  3.237719  0  0  -0.232154  0  3.525312  0  0  -0.247871  0  3.538061  0  0  -0.231671  -0.221583  0  3.5167  0
N  N57  1  0.05510043  0.56843290  0.64764520  1  0  -0.297039  0  3.237709  0  0  -0.232159  0  3.525314  0  0  -0.247878  0  3.538067  0  0  -0.231665  -0.22159  0  3.516705  0
N  N58  1  0.98213432  0.32507498  0.41577981  1  0  -0.105042  0  3.193766  0  0  -0.055436  0  3.495105  0  0  -0.063164  0  3.50802  0  0  -0.107741  -0.050183  0  3.48639  0
N  N59  1  0.01786570  0.67492634  0.58422048  1  0  -0.105001  0  3.193752  0  0  -0.055396  0  3.495095  0  0  -0.063122  0  3.508008  0  0  -0.107729  -0.050141  0  3.486378  0
N  N60  1  0.95281382  0.19272000  0.34338880  1  0  -0.054203  0  2.93747  0  0  -0.046574  0  3.229161  0  0  -0.044327  0  3.239181  0  0  -0.077885  -0.04777  0  3.222328  0
N  N61  1  0.04718885  0.80728133  0.65661361  1  0  -0.054273  0  2.937504  0  0  -0.046633  0  3.229174  0  0  -0.044388  0  3.239192  0  0  -0.077914  -0.047829  0  3.222342  0
N  N62  1  0.89663276  0.21078724  0.23164264  1  0  -0.280219  0  2.916526  0  0  -0.259197  0  3.198243  0  0  -0.267757  0  3.209089  0  0  -0.205039  -0.253368  0  3.190813  0
N  N63  1  0.10336927  0.78921180  0.76835859  1  0  -0.280194  0  2.916491  0  0  -0.259167  0  3.198192  0  0  -0.267727  0  3.209037  0  0  -0.205041  -0.253339  0  3.190765  0
N  N64  1  0.83019329  0.58077553  0.17205740  1  0  -0.380458  0  3.110049  0  0  -0.33429  0  3.36762  0  0  -0.349239  0  3.383202  0  0  -0.302591  -0.324028  0  3.356896  0
N  N65  1  0.16980711  0.41922237  0.82794260  1  0  -0.380585  0  3.109959  0  0  -0.334381  0  3.367565  0  0  -0.349331  0  3.383148  0  0  -0.302632  -0.324121  0  3.356843  0
O  O66  1  0.78500501  0.80782401  0.38882107  1  0  -0.610873  0  2.046187  0  0  -0.538143  0  2.30985  0  0  -0.567638  0  2.298573  0  0  -0.318324  -0.51744  0  2.316622  0
O  O67  1  0.21499470  0.19217617  0.61117820  1  0  -0.610816  0  2.046181  0  0  -0.538088  0  2.309831  0  0  -0.56759  0  2.298567  0  0  -0.318308  -0.517385  0  2.316603  0
O  O68  1  0.60434540  0.58134953  0.38067964  1  0  -0.606091  0  1.895851  0  0  -0.561456  0  2.119103  0  0  -0.584761  0  2.109198  0  0  -0.322606  -0.545143  0  2.125302  0
O  O69  1  0.39565494  0.41865293  0.61931999  1  0  -0.606071  0  1.895917  0  0  -0.561432  0  2.119154  0  0  -0.584737  0  2.109245  0  0  -0.322598  -0.545121  0  2.125356  0
