# generated using pymatgen
data_HgH17C16(NO2)2
_symmetry_space_group_name_H-M   'P 1'
_cell_length_a   8.71858618
_cell_length_b   10.25374872
_cell_length_c   11.14263632
_cell_angle_alpha   112.33473764
_cell_angle_beta   97.42473735
_cell_angle_gamma   105.11924477
_symmetry_Int_Tables_number   1
_chemical_formula_structural   HgH17C16(NO2)2
_chemical_formula_sum   'Hg2 H34 C32 N4 O8'
_cell_volume   859.93300308
_cell_formula_units_Z   2
loop_
 _symmetry_equiv_pos_site_id
 _symmetry_equiv_pos_as_xyz
  1  'x, y, z'
loop_
 _atom_site_type_symbol
 _atom_site_label
 _atom_site_symmetry_multiplicity
 _atom_site_fract_x
 _atom_site_fract_y
 _atom_site_fract_z
 _atom_site_occupancy
 _atom_site_hle17_bader_spin_density
 _atom_site_hle17_ddec_charge
 _atom_site_hle17_ddec_spin_density
 _atom_site_hle17_ddec_sum_bond_order
 _atom_site_hle17_magmom
 _atom_site_hse06_10hf_bader_charge
 _atom_site_hse06_10hf_bader_spin_density
 _atom_site_hse06_10hf_ddec_charge
 _atom_site_hse06_10hf_ddec_spin_density
 _atom_site_hse06_10hf_ddec_sum_bond_order
 _atom_site_hse06_10hf_magmom
 _atom_site_hse06_bader_spin_density
 _atom_site_hse06_ddec_charge
 _atom_site_hse06_ddec_spin_density
 _atom_site_hse06_ddec_sum_bond_order
 _atom_site_hse06_magmom
 _atom_site_pbe_bader_spin_density
 _atom_site_pbe_cm5_charge
 _atom_site_pbe_ddec_charge
 _atom_site_pbe_ddec_spin_density
 _atom_site_pbe_ddec_sum_bond_order
 _atom_site_pbe_magmom
Hg  Hg0  1  0.35341944  0.47669470  0.32760341  1  0  0.953234  0  1.737097  0  1.035893  0  0.782917  0  2.18044  0  0  0.850001  0  2.133782  0  0  0.664377  0.736494  0  2.211391  0
Hg  Hg1  1  0.64657469  0.52329817  0.67238082  1  0  0.95315  0  1.737143  0  1.035871  0  0.782873  0  2.180465  0  0  0.849962  0  2.1338  0  0  0.664341  0.736452  0  2.211417  0
H  H2  1  0.04047802  0.66361205  0.18606220  1  0  0.145609  0  0.908025  0  0.080763  0  0.171022  0  0.956034  0  0  0.173802  0  0.954792  0  0  0.111303  0.168922  0  0.957133  0
H  H3  1  0.95951667  0.33639710  0.81395392  1  0  0.145445  0  0.907857  0  0.081232  0  0.170839  0  0.955923  0  0  0.173619  0  0.954679  0  0  0.111235  0.168739  0  0.957022  0
H  H4  1  0.11617432  0.50995732  0.13879983  1  0  0.143678  0  0.975443  0  0.099984  0  0.160451  0  1.042235  0  0  0.163056  0  1.040481  0  0  0.100783  0.158454  0  1.043628  0
H  H5  1  0.88380873  0.49004872  0.86121367  1  0  0.143626  0  0.975387  0  0.099862  0  0.160374  0  1.042216  0  0  0.162982  0  1.040457  0  0  0.100756  0.158377  0  1.04361  0
H  H6  1  0.12843983  0.62113657  0.04753829  1  0  0.148554  0  0.92578  0  0.082702  0  0.172528  0  0.97649  0  0  0.174937  0  0.975607  0  0  0.111976  0.17082  0  0.977125  0
H  H7  1  0.87153647  0.37886401  0.95247149  1  0  0.148542  0  0.925677  0  0.082536  0  0.172499  0  0.976399  0  0  0.174906  0  0.97552  0  0  0.112013  0.170792  0  0.977034  0
H  H8  1  0.69833772  0.75219822  0.50709164  1  0  0.121919  0  0.962721  0  0.140578  0  0.12999  0  1.026595  0  0  0.133419  0  1.024195  0  0  0.104729  0.127546  0  1.028361  0
H  H9  1  0.30164875  0.24778549  0.49290002  1  0  0.121888  0  0.962777  0  0.140665  0  0.12995  0  1.02667  0  0  0.133378  0  1.024271  0  0  0.104713  0.127507  0  1.028433  0
H  H10  1  0.92027694  0.99827828  0.59565612  1  0  0.085329  0  0.96722  0  0.085408  0  0.098714  0  1.025632  0  0  0.100919  0  1.025525  0  0  0.099075  0.096977  0  1.02601  0
H  H11  1  0.07971450  0.00170880  0.40433379  1  0  0.085256  0  0.967291  0  0.085442  0  0.098638  0  1.025707  0  0  0.100844  0  1.0256  0  0  0.099038  0.0969  0  1.026085  0
H  H12  1  0.89267708  0.19407214  0.52577145  1  0  0.08063  0  0.959014  0  0.035037  0  0.095815  0  1.015468  0  0  0.097819  0  1.015271  0  0  0.098155  0.094167  0  1.015991  0
H  H13  1  0.10732197  0.80593019  0.47424013  1  0  0.080445  0  0.958983  0  0.035029  0  0.095655  0  1.01543  0  0  0.097657  0  1.015236  0  0  0.098096  0.094009  0  1.015952  0
H  H14  1  0.63767723  0.15133623  0.36286233  1  0  0.114273  0  0.956961  0  0.110794  0  0.123379  0  1.02076  0  0  0.125982  0  1.020237  0  0  0.106347  0.121777  0  1.020721  0
H  H15  1  0.36231979  0.84866626  0.63714455  1  0  0.114109  0  0.956909  0  0.110814  0  0.123216  0  1.020714  0  0  0.125818  0  1.020195  0  0  0.106302  0.121615  0  1.020673  0
H  H16  1  0.30686862  0.04637196  0.25688882  1  0  0.095115  0  0.932001  0  0.107601  0  0.106819  0  1.000413  0  0  0.10782  0  1.000226  0  0  0.114204  0.106299  0  1.000104  0
H  H17  1  0.69313064  0.95362620  0.74310694  1  0  0.094963  0  0.932  0  0.107662  0  0.106712  0  1.000403  0  0  0.107711  0  1.000214  0  0  0.114148  0.106199  0  1.000088  0
H  H18  1  0.18269207  0.87007908  0.12511039  1  0  0.094447  0  0.931499  0  0.078214  0  0.111098  0  0.993177  0  0  0.112236  0  0.992109  0  0  0.119195  0.110017  0  0.994368  0
H  H19  1  0.81731109  0.12992157  0.87487419  1  0  0.094453  0  0.931385  0  0.078765  0  0.111056  0  0.993148  0  0  0.112189  0  0.992085  0  0  0.119195  0.109975  0  0.994341  0
H  H20  1  0.43138153  0.74909146  0.00061049  1  0  0.106932  0  0.939559  0  0.111761  0  0.119754  0  0.993994  0  0  0.122891  0  0.992487  0  0  0.10547  0.117483  0  0.995099  0
H  H21  1  0.56863460  0.25091515  0.99939765  1  0  0.107009  0  0.939718  0  0.110879  0  0.119814  0  0.994155  0  0  0.12295  0  0.992646  0  0  0.105523  0.117543  0  0.995257  0
H  H22  1  0.41176075  0.19792108  0.15320811  1  0  0.088614  0  0.983089  0  0.084004  0  0.097421  0  1.050891  0  0  0.09996  0  1.049484  0  0  0.096527  0.095541  0  1.05208  0
H  H23  1  0.58825334  0.80207669  0.84679035  1  0  0.088569  0  0.98291  0  0.083848  0  0.097398  0  1.05071  0  0  0.099896  0  1.049336  0  0  0.096527  0.095517  0  1.051898  0
H  H24  1  0.81420875  0.05516234  0.11313520  1  0  0.133486  0  0.976769  0  0.090835  0  0.151814  0  1.036489  0  0  0.152506  0  1.039501  0  0  0.093417  0.15127  0  1.034486  0
H  H25  1  0.18580007  0.94482627  0.88686920  1  0  0.133509  0  0.976652  0  0.090805  0  0.151804  0  1.036401  0  0  0.152493  0  1.039415  0  0  0.093436  0.151259  0  1.034396  0
H  H26  1  0.92696203  0.05202283  0.25756936  1  0  0.128281  0  0.965384  0  0.044443  0  0.145226  0  1.02812  0  0  0.147524  0  1.027516  0  0  0.090014  0.143565  0  1.028674  0
H  H27  1  0.07304945  0.94797487  0.74243413  1  0  0.12828  0  0.965274  0  0.044598  0  0.145217  0  1.028028  0  0  0.147516  0  1.027425  0  0  0.090063  0.143555  0  1.028582  0
H  H28  1  0.96508975  0.96796249  0.09711226  1  0  0.144628  0  0.947986  0  0.090587  0  0.163693  0  1.007607  0  0  0.165993  0  1.007146  0  0  0.099594  0.161912  0  1.008189  0
H  H29  1  0.03491507  0.03203072  0.90289415  1  0  0.144633  0  0.948055  0  0.090685  0  0.163699  0  1.007658  0  0  0.165997  0  1.0072  0  0  0.09961  0.161913  0  1.00824  0
H  H30  1  0.87804607  0.40134362  0.24841325  1  0  0.138723  0  0.955324  0  0.0743  0  0.155917  0  1.015856  0  0  0.158042  0  1.01599  0  0  0.094861  0.154427  0  1.015807  0
H  H31  1  0.12195152  0.59865249  0.75157528  1  0  0.138767  0  0.955208  0  0.07447  0  0.155919  0  1.015797  0  0  0.158033  0  1.015953  0  0  0.094897  0.154433  0  1.015737  0
H  H32  1  0.86719860  0.37121966  0.39616078  1  0  0.124181  0  0.957475  0  0.02718  0  0.144386  0  1.016184  0  0  0.146247  0  1.01599  0  0  0.091626  0.143135  0  1.016249  0
H  H33  1  0.13280750  0.62877739  0.60382829  1  0  0.124182  0  0.957472  0  0.027022  0  0.144369  0  1.016208  0  0  0.146233  0  1.016008  0  0  0.09162  0.143117  0  1.016274  0
H  H34  1  0.93347947  0.55582296  0.40895785  1  0  0.125659  0  0.950821  0  0.05067  0  0.145427  0  1.012995  0  0  0.147281  0  1.012548  0  0  0.095658  0.144127  0  1.013416  0
H  H35  1  0.06653231  0.44417630  0.59102916  1  0  0.125652  0  0.950822  0  0.050739  0  0.14545  0  1.012959  0  0  0.147304  0  1.01251  0  0  0.095698  0.144149  0  1.013381  0
C  C36  1  0.13796285  0.62394603  0.14776601  1  0  -0.411062  0  3.699789  0  -0.041698  0  -0.492093  0  3.935675  0  0  -0.49727  0  3.940054  0  0  -0.228521  -0.488289  0  3.932592  0
C  C37  1  0.86202082  0.37605790  0.85224053  1  0  -0.410741  0  3.699489  0  -0.041916  0  -0.491731  0  3.935446  0  0  -0.496905  0  3.939823  0  0  -0.228424  -0.48793  0  3.932361  0
C  C38  1  0.30246168  0.72314084  0.23710483  1  0  0.411382  0  3.692941  0  1.051056  0  0.380009  0  3.970475  0  0  0.400913  0  3.98336  0  0  0.241664  0.366374  0  3.961059  0
C  C39  1  0.69753519  0.27686396  0.76290106  1  0  0.411176  0  3.693083  0  1.050926  0  0.379839  0  3.970595  0  0  0.400745  0  3.983478  0  0  0.241573  0.366207  0  3.961177  0
C  C40  1  0.54495667  0.81153927  0.38025403  1  0  0.158213  0  3.833833  0  0.351994  0  0.1506  0  4.081616  0  0  0.155848  0  4.105426  0  0  0.088637  0.146998  0  4.065544  0
C  C41  1  0.45503356  0.18846011  0.61974637  1  0  0.158074  0  3.833831  0  0.351893  0  0.150516  0  4.081512  0  0  0.155764  0  4.105322  0  0  0.088554  0.146915  0  4.065439  0
C  C42  1  0.68565008  0.83596738  0.47280562  1  0  -0.134443  0  3.716439  0  0.033424  0  -0.154316  0  3.969698  0  0  -0.156511  0  3.987844  0  0  -0.092119  -0.152838  0  3.957481  0
C  C43  1  0.31434902  0.16403309  0.52718914  1  0  -0.134303  0  3.715919  0  0.033517  0  -0.154181  0  3.96912  0  0  -0.156379  0  3.987274  0  0  -0.092089  -0.152706  0  3.956908  0
C  C44  1  0.80884742  0.97504623  0.52291611  1  0  -0.077653  0  3.785244  0  -0.090334  0  -0.09649  0  4.046349  0  0  -0.09837  0  4.068426  0  0  -0.099338  -0.09513  0  4.031444  0
C  C45  1  0.19114365  0.02493831  0.47708363  1  0  -0.077636  0  3.78535  0  -0.090654  0  -0.096472  0  4.046448  0  0  -0.098352  0  4.068521  0  0  -0.099274  -0.095111  0  4.031543  0
C  C46  1  0.79285403  0.08681890  0.48299611  1  0  -0.080425  0  3.796159  0  -0.040795  0  -0.100006  0  4.05936  0  0  -0.102267  0  4.081675  0  0  -0.099871  -0.098523  0  4.044467  0
C  C47  1  0.20714696  0.91319272  0.51700734  1  0  -0.080144  0  3.796541  0  -0.040223  0  -0.099757  0  4.059737  0  0  -0.102013  0  4.082053  0  0  -0.099804  -0.098274  0  4.04484  0
C  C48  1  0.65239565  0.06395124  0.39132380  1  0  -0.137528  0  3.745403  0  -0.013994  0  -0.157101  0  4.003037  0  0  -0.159363  0  4.023295  0  0  -0.091741  -0.155593  0  3.988825  0
C  C49  1  0.34759503  0.93606063  0.60867840  1  0  -0.137417  0  3.745447  0  -0.014379  0  -0.157003  0  4.00305  0  0  -0.159266  0  4.023305  0  0  -0.0917  -0.155494  0  3.988837  0
C  C50  1  0.53004995  0.92396212  0.34049403  1  0  0.107185  0  3.77885  0  0.35896  0  0.096181  0  4.02231  0  0  0.099374  0  4.044755  0  0  0.09541  0.09409  0  4.006868  0
C  C51  1  0.46994491  0.07603717  0.65950605  1  0  0.107103  0  3.779172  0  0.358752  0  0.096186  0  4.022444  0  0  0.09938  0  4.044888  0  0  0.095425  0.094093  0  4.007003  0
C  C52  1  0.31013572  0.94087299  0.18150591  1  0  -0.035082  0  3.64399  0  0.310921  0  -0.103161  0  3.89431  0  0  -0.09865  0  3.904606  0  0  -0.043725  -0.106094  0  3.887164  0
C  C53  1  0.68986136  0.05913427  0.81849279  1  0  -0.034998  0  3.643734  0  0.310485  0  -0.103044  0  3.894052  0  0  -0.098534  0  3.90437  0  0  -0.043747  -0.105984  0  3.886903  0
C  C54  1  0.41036807  0.97080786  0.08823688  1  0  0.058658  0  3.766359  0  -0.086739  0  0.076757  0  4.009477  0  0  0.076071  0  4.033165  0  0  -0.014442  0.077187  0  3.99339  0
C  C55  1  0.58964034  0.02918770  0.91176365  1  0  0.058829  0  3.766527  0  -0.086939  0  0.076861  0  4.009734  0  0  0.076175  0  4.033412  0  0  -0.01441  0.077291  0  3.993648  0
C  C56  1  0.46082611  0.85972761  0.00171233  1  0  -0.103886  0  3.732241  0  -0.029325  0  -0.125262  0  3.978917  0  0  -0.127406  0  3.999846  0  0  -0.08831  -0.123649  0  3.964675  0
C  C57  1  0.53919830  0.14028366  0.99828508  1  0  -0.104178  0  3.732038  0  -0.028599  0  -0.125517  0  3.978744  0  0  -0.127663  0  3.999686  0  0  -0.08841  -0.123903  0  3.964502  0
C  C58  1  0.45040197  0.11085636  0.08587430  1  0  -0.110786  0  3.75599  0  -0.039573  0  -0.125733  0  3.996407  0  0  -0.128447  0  4.018433  0  0  -0.090833  -0.124011  0  3.981656  0
C  C59  1  0.54960913  0.88916154  0.91414258  1  0  -0.110938  0  3.756621  0  -0.039685  0  -0.125901  0  3.997098  0  0  -0.128576  0  4.01915  0  0  -0.090906  -0.124174  0  3.982341  0
C  C60  1  0.67529139  0.44544464  0.32894142  1  0  0.723098  0  3.881597  0  1.57986  0  0.685358  0  4.172697  0  0  0.719441  0  4.168737  0  0  0.188448  0.662207  0  4.174092  0
C  C61  1  0.32471388  0.55455682  0.67105449  1  0  0.722771  0  3.881999  0  1.579454  0  0.685111  0  4.172982  0  0  0.719194  0  4.169019  0  0  0.188356  0.661959  0  4.174376  0
C  C62  1  0.06257763  0.20824929  0.18951813  1  0  0.717185  0  3.867602  0  1.561046  0  0.679327  0  4.159922  0  0  0.713686  0  4.15469  0  0  0.198935  0.655962  0  4.162522  0
C  C63  1  0.93742090  0.79174433  0.81047772  1  0  0.717145  0  3.867431  0  1.561104  0  0.679185  0  4.159916  0  0  0.713543  0  4.154682  0  0  0.198764  0.655822  0  4.162518  0
C  C64  1  0.93430632  0.06270991  0.16427695  1  0  -0.450354  0  3.639649  0  -0.116842  0  -0.520322  0  3.861163  0  0  -0.528531  0  3.865842  0  0  -0.248335  -0.514371  0  3.857803  0
C  C65  1  0.06570243  0.93728435  0.83572945  1  0  -0.450442  0  3.639506  0  -0.117032  0  -0.520334  0  3.861064  0  0  -0.528542  0  3.865744  0  0  -0.248402  -0.514375  0  3.857707  0
C  C66  1  0.84852195  0.44106608  0.34573245  1  0  -0.444829  0  3.66285  0  -0.069732  0  -0.518569  0  3.892116  0  0  -0.526152  0  3.896632  0  0  -0.247524  -0.513205  0  3.888664  0
C  C67  1  0.15148384  0.55893321  0.65425827  1  0  -0.444772  0  3.662918  0  -0.069723  0  -0.518496  0  3.89218  0  0  -0.526086  0  3.896707  0  0  -0.247575  -0.513137  0  3.888742  0
N  N68  1  0.40088704  0.68902667  0.31445116  1  0  -0.437665  0  3.247475  0  -1.19667  0  -0.357538  0  3.525392  0  0  -0.38636  0  3.543893  0  0  -0.325045  -0.338635  0  3.512563  0
N  N69  1  0.59910803  0.31097271  0.68554538  1  0  -0.437486  0  3.247184  0  -1.196457  0  -0.357459  0  3.52515  0  0  -0.386284  0  3.543655  0  0  -0.324951  -0.338557  0  3.512319  0
N  N70  1  0.37629880  0.86439710  0.25085517  1  0  -0.162804  0  3.501098  0  -1.282944  0  -0.077138  0  3.719561  0  0  -0.094597  0  3.743187  0  0  -0.234226  -0.065684  0  3.703441  0
N  N71  1  0.62369828  0.13561016  0.74914353  1  0  -0.162671  0  3.501124  0  -1.282928  0  -0.077029  0  3.719532  0  0  -0.094487  0  3.743154  0  0  -0.234182  -0.065576  0  3.703414  0
O  O72  1  0.61736012  0.47696685  0.23807002  1  0  -0.626524  0  1.872445  0  -1.18246  0  -0.577369  0  2.088183  0  0  -0.605962  0  2.080697  0  0  -0.333728  -0.556838  0  2.091747  0
O  O73  1  0.38264502  0.52303549  0.76193607  1  0  -0.626505  0  1.872376  0  -1.182466  0  -0.577381  0  2.088066  0  0  -0.605972  0  2.080582  0  0  -0.333774  -0.556847  0  2.09163  0
O  O74  1  0.17841656  0.26636106  0.30109137  1  0  -0.611298  0  1.982127  0  -1.104413  0  -0.532979  0  2.234448  0  0  -0.568154  0  2.226502  0  0  -0.306228  -0.509059  0  2.238951  0
O  O75  1  0.82159066  0.73363689  0.69890625  1  0  -0.61129  0  1.982018  0  -1.104428  0  -0.532959  0  2.234412  0  0  -0.568133  0  2.226464  0  0  -0.306218  -0.509043  0  2.238923  0
O  O76  1  0.59310466  0.41796110  0.41051522  1  0  -0.682224  0  1.975134  0  -1.179025  0  -0.611562  0  2.234903  0  0  -0.647041  0  2.224907  0  0  -0.336986  -0.586787  0  2.240155  0
O  O77  1  0.40689667  0.58202792  0.58947937  1  0  -0.681979  0  1.975295  0  -1.178711  0  -0.611362  0  2.235046  0  0  -0.646854  0  2.225082  0  0  -0.336888  -0.586589  0  2.240298  0
O  O78  1  0.05651282  0.26481313  0.10829981  1  0  -0.642301  0  1.897501  0  -1.203153  0  -0.594818  0  2.112231  0  0  -0.620525  0  2.103985  0  0  -0.329339  -0.576903  0  2.117326  0
O  O79  1  0.94348415  0.73518272  0.89169932  1  0  -0.642227  0  1.89741  0  -1.203235  0  -0.594695  0  2.112185  0  0  -0.620403  0  2.103938  0  0  -0.329225  -0.576779  0  2.117279  0
