# generated using pymatgen
data_AgH3(CO)2
_symmetry_space_group_name_H-M   'P 1'
_cell_length_a   5.57864649
_cell_length_b   9.76476511
_cell_length_c   21.58700000
_cell_angle_alpha   89.08200334
_cell_angle_beta   82.59686294
_cell_angle_gamma   82.59718248
_symmetry_Int_Tables_number   1
_chemical_formula_structural   AgH3(CO)2
_chemical_formula_sum   'Ag14 H42 C28 O28'
_cell_volume   1156.41139810
_cell_formula_units_Z   14
loop_
 _symmetry_equiv_pos_site_id
 _symmetry_equiv_pos_as_xyz
  1  'x, y, z'
loop_
 _atom_site_type_symbol
 _atom_site_label
 _atom_site_symmetry_multiplicity
 _atom_site_fract_x
 _atom_site_fract_y
 _atom_site_fract_z
 _atom_site_occupancy
 _atom_site_pbe_bader_charge
 _atom_site_pbe_bader_spin_density
 _atom_site_pbe_cm5_charge
 _atom_site_pbe_ddec_charge
 _atom_site_pbe_ddec_spin_density
 _atom_site_pbe_ddec_sum_bond_order
 _atom_site_pbe_magmom
Ag  Ag0  1  0.04552173  0.43668257  0.56311631  1  0.580307  0  0.382185  0.366007  0  2.072288  0
Ag  Ag1  1  0.95447988  0.56330478  0.43689007  1  0.580359  0  0.382122  0.365934  0  2.072166  0
Ag  Ag2  1  0.59743506  0.59338624  0.56751362  1  0.613004  0  0.410944  0.46071  0  1.996398  0
Ag  Ag3  1  0.40258305  0.40660008  0.43248712  1  0.613012  0  0.410973  0.460747  0  1.996323  0
Ag  Ag4  1  0.42472588  0.42494596  0.72824075  1  0.582886  0  0.383074  0.381734  0  2.049107  0
Ag  Ag5  1  0.57525468  0.57504656  0.27175657  1  0.582799  0  0.383079  0.381725  0  2.04897  0
Ag  Ag6  1  0.98460248  0.58174257  0.71866351  1  0.605539  0  0.409156  0.453538  0  1.979223  0
Ag  Ag7  1  0.01537492  0.41824788  0.28133347  1  0.605309  0  0.409126  0.453409  0  1.979392  0
Ag  Ag8  1  0.62816111  0.38894507  0.85781092  1  0.61089  0  0.414494  0.455487  0  2.072674  0
Ag  Ag9  1  0.37184476  0.61107946  0.14218903  1  0.610892  0  0.414484  0.455429  0  2.072695  0
Ag  Ag10  1  0.18334247  0.54434651  0.85596385  1  0.5715  0  0.37593  0.330568  0  2.135031  0
Ag  Ag11  1  0.81667541  0.45567286  0.14403342  1  0.571556  0  0.375937  0.330514  0  2.135412  0
Ag  Ag12  1  0.22481187  0.42130363  0.99374728  1  0.591389  0  0.395179  0.415761  0  2.003012  0
Ag  Ag13  1  0.77519032  0.57869715  0.00625389  1  0.590076  0  0.395203  0.415831  0  2.002994  0
H  H14  1  0.60930265  0.05032131  0.56338657  1  0.074043  0  0.09636  0.153215  0  1.023768  0
H  H15  1  0.39070642  0.94966501  0.43660846  1  0.074152  0  0.096362  0.153145  0  1.023882  0
H  H16  1  0.34364110  0.15467855  0.54139294  1  0.061133  0  0.098143  0.163923  0  1.017363  0
H  H17  1  0.65637736  0.84532223  0.45860121  1  0.061143  0  0.098164  0.163938  0  1.017305  0
H  H18  1  0.38566639  0.13854574  0.62112684  1  0.092583  0  0.103018  0.171314  0  1.004809  0
H  H19  1  0.61433090  0.86144472  0.37887133  1  0.092415  0  0.103039  0.171368  0  1.004718  0
H  H20  1  0.02194684  0.98278054  0.55518661  1  0.08693  0  0.098519  0.158367  0  1.01442  0
H  H21  1  0.97808601  0.01719649  0.44481047  1  0.086495  0  0.098547  0.158352  0  1.0145  0
H  H22  1  0.31375297  0.88203155  0.55883089  1  0.069554  0  0.098288  0.161691  0  1.008238  0
H  H23  1  0.68627324  0.11795890  0.44117095  1  0.069652  0  0.098237  0.161589  0  1.008086  0
H  H24  1  0.10573066  0.91632332  0.62755852  1  0.080974  0  0.104527  0.168275  0  1.003002  0
H  H25  1  0.89429550  0.08367539  0.37244280  1  0.081017  0  0.104485  0.168239  0  1.003191  0
H  H26  1  0.68964866  0.87000888  0.72821172  1  0.066478  0  0.097702  0.159419  0  1.014235  0
H  H27  1  0.31034531  0.12997228  0.27178616  1  0.066305  0  0.097685  0.159401  0  1.014334  0
H  H28  1  0.40022247  0.97253928  0.72408802  1  0.05968  0  0.097071  0.154304  0  1.023953  0
H  H29  1  0.59977302  0.02745118  0.27590836  1  0.059611  0  0.09709  0.154321  0  1.023971  0
H  H30  1  0.57483210  0.89376094  0.65598331  1  0.080758  0  0.103409  0.166197  0  1.013219  0
H  H31  1  0.42516839  0.10622332  0.34401433  1  0.080811  0  0.103377  0.166201  0  1.013151  0
H  H32  1  0.81424243  0.12753615  0.67113465  1  0.101645  0  0.105135  0.17273  0  0.997084  0
H  H33  1  0.18574331  0.87245741  0.32887129  1  0.101554  0  0.105125  0.172759  0  0.997017  0
H  H34  1  0.70793780  0.14189271  0.75202113  1  0.086691  0  0.098186  0.162041  0  1.017239  0
H  H35  1  0.29204859  0.85810600  0.24798197  1  0.086888  0  0.098131  0.162057  0  1.017334  0
H  H36  1  0.99242983  0.03871069  0.72591733  1  0.071838  0  0.095694  0.149632  0  1.031579  0
H  H37  1  0.00755434  0.96128183  0.27408774  1  0.071619  0  0.095704  0.149711  0  1.03153  0
H  H38  1  0.92201030  0.09737930  0.85057104  1  0.087223  0  0.097557  0.157411  0  1.013464  0
H  H39  1  0.07797621  0.90263491  0.14943611  1  0.087516  0  0.097564  0.157435  0  1.01355  0
H  H40  1  0.11904167  0.03732377  0.90660225  1  0.080174  0  0.104741  0.166562  0  0.997131  0
H  H41  1  0.88096828  0.96269870  0.09340360  1  0.080895  0  0.104729  0.166536  0  0.997131  0
H  H42  1  0.22001677  0.00640479  0.82683505  1  0.084677  0  0.102173  0.163045  0  1.003339  0
H  H43  1  0.77997983  0.99362077  0.17316845  1  0.08364  0  0.102238  0.163128  0  1.003225  0
H  H44  1  0.62070065  0.93165682  0.85551176  1  0.071099  0  0.096871  0.157672  0  1.016234  0
H  H45  1  0.37930236  0.06835635  0.14448235  1  0.071418  0  0.096833  0.157649  0  1.016179  0
H  H46  1  0.88957535  0.83005069  0.81756237  1  0.083767  0  0.099752  0.164274  0  1.016678  0
H  H47  1  0.11043151  0.16996145  0.18243254  1  0.083898  0  0.09973  0.16426  0  1.01677  0
H  H48  1  0.83779356  0.83503656  0.89957706  1  0.091326  0  0.101045  0.16729  0  1.013845  0
H  H49  1  0.16221306  0.16497661  0.10042017  1  0.090872  0  0.10103  0.16727  0  1.013848  0
H  H50  1  0.60813365  0.12620913  0.94725362  1  0.083371  0  0.10109  0.16549  0  1.018034  0
H  H51  1  0.39187216  0.87379165  0.05274604  1  0.083377  0  0.10112  0.165549  0  1.017937  0
H  H52  1  0.51636800  0.13120016  0.02842984  1  0.053622  0  0.101099  0.165735  0  1.005079  0
H  H53  1  0.48364416  0.86879649  0.97157057  1  0.053543  0  0.101122  0.165787  0  1.005091  0
H  H54  1  0.79848257  0.03167285  0.99823687  1  0.057103  0  0.094927  0.148585  0  1.033953  0
H  H55  1  0.20152050  0.96833206  0.00176054  1  0.05702  0  0.094912  0.148591  0  1.033894  0
C  C56  1  0.48189655  0.14453023  0.57359327  1  -0.083904  0  -0.2512  -0.537396  0  3.856918  0
C  C57  1  0.51811567  0.85545816  0.42640395  1  -0.083782  0  -0.251273  -0.537458  0  3.856821  0
C  C58  1  0.61129954  0.27111319  0.57051136  1  1.551934  0  0.206622  0.669471  0  4.106934  0
C  C59  1  0.38870521  0.72887623  0.42948703  1  1.55222  0  0.206663  0.669583  0  4.106726  0
C  C60  1  0.01088261  0.76355217  0.57077749  1  1.564553  0  0.207009  0.677813  0  4.113764  0
C  C61  1  0.98913282  0.23643003  0.42922755  1  1.565155  0  0.207057  0.678093  0  4.114009  0
C  C62  1  0.12009101  0.89486076  0.57730260  1  -0.120466  0  -0.246431  -0.522713  0  3.837961  0
C  C63  1  0.87993841  0.10512350  0.42269825  1  -0.12026  0  -0.246327  -0.522601  0  3.838036  0
C  C64  1  0.40154773  0.75105962  0.71471185  1  1.543025  0  0.207671  0.678497  0  4.109289  0
C  C65  1  0.59843621  0.24893393  0.28528442  1  1.543173  0  0.207725  0.678367  0  4.10976  0
C  C66  1  0.52179598  0.88074687  0.70636589  1  -0.067488  0  -0.248175  -0.524622  0  3.842177  0
C  C67  1  0.47819951  0.11924358  0.29363095  1  -0.067522  0  -0.248158  -0.524635  0  3.842392  0
C  C68  1  0.99907087  0.25967709  0.71930535  1  1.531185  0  0.20933  0.676169  0  4.099422  0
C  C69  1  0.00090607  0.74031543  0.28069626  1  1.531749  0  0.209381  0.676168  0  4.099407  0
C  C70  1  0.87210633  0.13296607  0.71763891  1  -0.12789  0  -0.249632  -0.532569  0  3.854317  0
C  C71  1  0.12787942  0.86702748  0.28236518  1  -0.127961  0  -0.249634  -0.53273  0  3.854343  0
C  C72  1  0.21933710  0.21526695  0.85762641  1  1.501387  0  0.207141  0.675485  0  4.118968  0
C  C73  1  0.78065116  0.78475552  0.14237646  1  1.501849  0  0.206973  0.67516  0  4.118915  0
C  C74  1  0.11173570  0.08141895  0.85973206  1  -0.10677  0  -0.243571  -0.513691  0  3.839884  0
C  C75  1  0.88826842  0.91859732  0.14027357  1  -0.107019  0  -0.243664  -0.513798  0  3.840044  0
C  C76  1  0.61413103  0.71006151  0.85812768  1  1.542143  0  0.207827  0.669989  0  4.097231  0
C  C77  1  0.38587122  0.28996303  0.14186776  1  1.542026  0  0.207867  0.669886  0  4.097178  0
C  C78  1  0.74513701  0.83590919  0.85757056  1  -0.102736  0  -0.250836  -0.539917  0  3.85635  0
C  C79  1  0.25487160  0.16411121  0.14242469  1  -0.102712  0  -0.25079  -0.539843  0  3.855972  0
C  C80  1  0.79929687  0.25426885  0.99726085  1  1.545485  0  0.20647  0.677757  0  4.101712  0
C  C81  1  0.20069943  0.74573399  0.00273773  1  1.545494  0  0.206501  0.677837  0  4.101627  0
C  C82  1  0.67605075  0.12684424  0.99284593  1  -0.058561  0  -0.249587  -0.530601  0  3.847442  0
C  C83  1  0.32395372  0.87315448  0.00715194  1  -0.058464  0  -0.249615  -0.53077  0  3.847437  0
O  O84  1  0.84088719  0.25641273  0.56905077  1  -1.152052  0  -0.311864  -0.482655  0  2.305644  0
O  O85  1  0.15911862  0.74358805  0.43095028  1  -1.152098  0  -0.31183  -0.482711  0  2.305694  0
O  O86  1  0.47536157  0.38839155  0.57084886  1  -1.138982  0  -0.341497  -0.542005  0  2.533493  0
O  O87  1  0.52464137  0.61159788  0.42915051  1  -1.139218  0  -0.34151  -0.541963  0  2.533258  0
O  O88  1  0.78582907  0.77471460  0.56373788  1  -1.133028  0  -0.322445  -0.521249  0  2.353728  0
O  O89  1  0.21418654  0.22527482  0.43626386  1  -1.133327  0  -0.322438  -0.52133  0  2.353897  0
O  O90  1  0.14906192  0.64931820  0.57525133  1  -1.1464  0  -0.333304  -0.546707  0  2.486765  0
O  O91  1  0.85094062  0.35066502  0.42475876  1  -1.146784  0  -0.333412  -0.546851  0  2.486854  0
O  O92  1  0.86268912  0.37672722  0.72023000  1  -1.140599  0  -0.339579  -0.539342  0  2.526973  0
O  O93  1  0.13729395  0.62326220  0.27977235  1  -1.140364  0  -0.339608  -0.539324  0  2.526816  0
O  O94  1  0.22830228  0.24489195  0.71882070  1  -1.116367  0  -0.31316  -0.490751  0  2.312536  0
O  O95  1  0.77167805  0.75510160  0.28118126  1  -1.116958  0  -0.313125  -0.490686  0  2.312667  0
O  O96  1  0.54253593  0.63608934  0.71162310  1  -1.147199  0  -0.335199  -0.546881  0  2.480102  0
O  O97  1  0.45743973  0.36389285  0.28837168  1  -1.147126  0  -0.335193  -0.546699  0  2.480054  0
O  O98  1  0.16955442  0.76331568  0.72171381  1  -1.135739  0  -0.32216  -0.517299  0  2.343591  0
O  O99  1  0.83043156  0.23667684  0.27828889  1  -1.135434  0  -0.322202  -0.517262  0  2.343976  0
O  O100  1  0.45066957  0.20593135  0.85544625  1  -1.097271  0  -0.324083  -0.524527  0  2.367039  0
O  O101  1  0.54930966  0.79409111  0.14455924  1  -1.097417  0  -0.324059  -0.524408  0  2.366898  0
O  O102  1  0.07440992  0.32815530  0.85962548  1  -1.13607  0  -0.32891  -0.530661  0  2.469432  0
O  O103  1  0.92558534  0.67186820  0.14037576  1  -1.136256  0  -0.328703  -0.530354  0  2.469396  0
O  O104  1  0.74946329  0.59254356  0.85945844  1  -1.134649  0  -0.343457  -0.532918  0  2.532547  0
O  O105  1  0.25055214  0.40747064  0.14053710  1  -1.134732  0  -0.343377  -0.532726  0  2.532729  0
O  O106  1  0.38594614  0.72495404  0.85749124  1  -1.137497  0  -0.309738  -0.466802  0  2.288502  0
O  O107  1  0.61407845  0.27507565  0.14250666  1  -1.137288  0  -0.309823  -0.466903  0  2.288632  0
O  O108  1  0.02523985  0.24059077  0.00246482  1  -1.135933  0  -0.315882  -0.500987  0  2.319382  0
O  O109  1  0.97474788  0.75941002  0.99753220  1  -1.136084  0  -0.315964  -0.501078  0  2.319239  0
O  O110  1  0.66408609  0.37064773  0.99412209  1  -1.139573  0  -0.337647  -0.5419  0  2.508433  0
O  O111  1  0.33589237  0.62935409  0.00588079  1  -1.139423  0  -0.337593  -0.541803  0  2.508339  0
