# generated using pymatgen
data_AgH16C16(NO2)3
_symmetry_space_group_name_H-M   'P 1'
_cell_length_a   9.56448025
_cell_length_b   9.73836348
_cell_length_c   9.91873420
_cell_angle_alpha   90.07390068
_cell_angle_beta   118.77120458
_cell_angle_gamma   92.92226818
_symmetry_Int_Tables_number   1
_chemical_formula_structural   AgH16C16(NO2)3
_chemical_formula_sum   'Ag2 H32 C32 N6 O12'
_cell_volume   808.39837938
_cell_formula_units_Z   2
loop_
 _symmetry_equiv_pos_site_id
 _symmetry_equiv_pos_as_xyz
  1  'x, y, z'
loop_
 _atom_site_type_symbol
 _atom_site_label
 _atom_site_symmetry_multiplicity
 _atom_site_fract_x
 _atom_site_fract_y
 _atom_site_fract_z
 _atom_site_occupancy
 _atom_site_pbe_bader_spin_density
 _atom_site_pbe_cm5_charge
 _atom_site_pbe_ddec_charge
 _atom_site_pbe_ddec_spin_density
 _atom_site_pbe_ddec_sum_bond_order
 _atom_site_pbe_magmom
Ag  Ag0  1  0.64351594  0.35476689  0.50369973  1  0  0.487538  0.437847  0  1.839472  0
Ag  Ag1  1  0.35648246  0.64523402  0.49629852  1  0  0.48753  0.437829  0  1.839487  0
H  H2  1  0.42977908  0.30746770  0.06607133  1  0  0.112212  0.118818  0  1.010029  0
H  H3  1  0.57022034  0.69253012  0.93392940  1  0  0.11222  0.118811  0  1.010057  0
H  H4  1  0.43062704  0.06541699  0.00545261  1  0  0.10615  0.102438  0  1.063066  0
H  H5  1  0.56937486  0.93458186  0.99455127  1  0  0.106174  0.102459  0  1.063021  0
H  H6  1  0.10482810  0.96182230  0.18024867  1  0  0.117397  0.129358  0  1.013677  0
H  H7  1  0.89517146  0.03817758  0.81975213  1  0  0.117408  0.129386  0  1.013668  0
H  H8  1  0.21115969  0.65706004  0.09844312  1  0  0.298176  0.362778  0  0.983422  0
H  H9  1  0.78883622  0.34293881  0.90155601  1  0  0.298179  0.362795  0  0.983383  0
H  H10  1  0.69320551  0.43994667  0.14485493  1  0  0.10413  0.161134  0  0.986019  0
H  H11  1  0.30679409  0.56005423  0.85514387  1  0  0.104136  0.161162  0  0.986013  0
H  H12  1  0.67228896  0.61344684  0.18202104  1  0  0.097154  0.140527  0  1.014268  0
H  H13  1  0.32771072  0.38655509  0.81797881  1  0  0.097158  0.140533  0  1.014312  0
H  H14  1  0.59933291  0.47933188  0.25775583  1  0  0.086706  0.12145  0  1.061547  0
H  H15  1  0.40066556  0.52067005  0.74224246  1  0  0.08672  0.121473  0  1.061535  0
H  H16  1  0.90168527  0.28635020  0.71548017  1  0  0.083046  0.119603  0  1.074214  0
H  H17  1  0.09831427  0.71364968  0.28451961  1  0  0.083043  0.11958  0  1.074244  0
H  H18  1  0.05872643  0.40008287  0.85125669  1  0  0.102697  0.166854  0  1.008984  0
H  H19  1  0.94127310  0.59991700  0.14874208  1  0  0.102702  0.166848  0  1.009067  0
H  H20  1  0.10490633  0.25665621  0.77322849  1  0  0.093025  0.138341  0  0.993588  0
H  H21  1  0.89509332  0.74334572  0.22676933  1  0  0.093012  0.138308  0  0.993585  0
H  H22  1  0.43994413  0.22711094  0.72438569  1  0  0.099223  0.150848  0  1.015942  0
H  H23  1  0.56005794  0.77289100  0.27561524  1  0  0.099232  0.150888  0  1.01594  0
H  H24  1  0.25191720  0.20302104  0.55781872  1  0  0.096724  0.142373  0  1.007502  0
H  H25  1  0.74808487  0.79698090  0.44218221  1  0  0.096753  0.142425  0  1.007492  0
H  H26  1  0.40257114  0.31820377  0.55588202  1  0  0.091116  0.139116  0  1.05306  0
H  H27  1  0.59743091  0.68179816  0.44411790  1  0  0.091111  0.139124  0  1.053126  0
H  H28  1  0.74121906  0.17917906  0.38817294  1  0  0.087835  0.125827  0  1.060399  0
H  H29  1  0.25878540  0.82082288  0.61183009  1  0  0.08784  0.125834  0  1.060415  0
H  H30  1  0.68267570  0.02287212  0.27736658  1  0  0.100775  0.153507  0  0.989478  0
H  H31  1  0.31732637  0.97712982  0.72263435  1  0  0.100778  0.153524  0  0.989506  0
H  H32  1  0.83999200  0.02622270  0.46938226  1  0  0.100116  0.152467  0  0.992834  0
H  H33  1  0.16001119  0.97377821  0.53061918  1  0  0.100114  0.152463  0  0.992842  0
C  C34  1  0.28034748  0.42933539  0.19720180  1  0  0.214218  0.576959  0  4.257563  0
C  C35  1  0.71964963  0.57066448  0.80279284  1  0  0.214186  0.576954  0  4.257438  0
C  C36  1  0.26541397  0.27740038  0.15595847  1  0  0.012675  -0.030831  0  3.901073  0
C  C37  1  0.73458431  0.72259847  0.84404074  1  0  0.012665  -0.030788  0  3.900962  0
C  C38  1  0.35651760  0.23272851  0.08991813  1  0  -0.077655  -0.103885  0  3.947104  0
C  C39  1  0.64348196  0.76727136  0.91008267  1  0  -0.077653  -0.1039  0  3.947126  0
C  C40  1  0.35732950  0.09450785  0.05597770  1  0  -0.066724  -0.057407  0  3.927552  0
C  C41  1  0.64267232  0.90548997  0.94402513  1  0  -0.066781  -0.057435  0  3.927581  0
C  C42  1  0.26955910  0.99428461  0.09026171  1  0  -0.018388  -0.045199  0  3.978563  0
C  C43  1  0.73044271  0.00571322  0.90974011  1  0  -0.01836  -0.045175  0  3.978657  0
C  C44  1  0.17595265  0.03633912  0.15380210  1  0  -0.071835  -0.129432  0  3.948367  0
C  C45  1  0.82404908  0.96365767  0.84619867  1  0  -0.071825  -0.129447  0  3.948465  0
C  C46  1  0.17331677  0.17592672  0.18363034  1  0  0.078732  0.035298  0  3.912733  0
C  C47  1  0.82668270  0.82407213  0.81636941  1  0  0.078701  0.03522  0  3.912756  0
C  C48  1  0.28189794  0.84486045  0.06372879  1  0  0.221262  0.566281  0  4.169335  0
C  C49  1  0.71810268  0.15513737  0.93627350  1  0  0.221264  0.566208  0  4.169483  0
C  C50  1  0.85393808  0.51006158  0.37464845  1  0  0.122813  0.217575  0  3.933082  0
C  C51  1  0.14606034  0.48993932  0.62535082  1  0  0.122826  0.217623  0  3.933043  0
C  C52  1  0.69565613  0.51150458  0.23236606  1  0  -0.236134  -0.433985  0  3.909109  0
C  C53  1  0.30434230  0.48849632  0.76763422  1  0  -0.236153  -0.43404  0  3.909164  0
C  C54  1  0.00885788  0.42166852  0.61716820  1  0  0.122842  0.226144  0  3.932421  0
C  C55  1  0.99114046  0.57833135  0.38283003  1  0  0.122877  0.226176  0  3.932395  0
C  C56  1  0.01870383  0.33664680  0.74572954  1  0  -0.245326  -0.443189  0  3.92371  0
C  C57  1  0.98129569  0.66335307  0.25426822  1  0  -0.245328  -0.443134  0  3.923768  0
C  C58  1  0.44249940  0.10487628  0.54600715  1  0  0.118057  0.210591  0  3.93949  0
C  C59  1  0.55750486  0.89512257  0.45399579  1  0  0.118068  0.210664  0  3.939497  0
C  C60  1  0.38045168  0.21980331  0.59793615  1  0  -0.247892  -0.454842  0  3.922418  0
C  C61  1  0.61955143  0.78019657  0.40206425  1  0  -0.247943  -0.454973  0  3.922504  0
C  C62  1  0.60681539  0.03307610  0.44925240  1  0  0.120387  0.212848  0  3.93244  0
C  C63  1  0.39318533  0.96692378  0.55074691  1  0  0.120417  0.212948  0  3.932375  0
C  C64  1  0.72353348  0.06754267  0.39301013  1  0  -0.240821  -0.443939  0  3.943307  0
C  C65  1  0.27646980  0.93245927  0.60699236  1  0  -0.240835  -0.444001  0  3.943423  0
N  N66  1  0.06954019  0.21405714  0.24639149  1  0  0.054339  0.510319  0  4.208782  0
N  N67  1  0.93045937  0.78594274  0.75360931  1  0  0.054336  0.510329  0  4.208827  0
N  N68  1  0.86493163  0.43462991  0.49264873  1  0  -0.321777  -0.28672  0  3.502448  0
N  N69  1  0.13506792  0.56536997  0.50735105  1  0  -0.321773  -0.28672  0  3.502454  0
N  N70  1  0.54844820  0.13534648  0.49580058  1  0  -0.320398  -0.283704  0  3.50702  0
N  N71  1  0.45155373  0.86465340  0.50420028  1  0  -0.3204  -0.283718  0  3.50696  0
O  O72  1  0.37491786  0.46442382  0.33689045  1  0  -0.329414  -0.557076  0  2.385  0
O  O73  1  0.62507945  0.53557913  0.66310429  1  0  -0.329362  -0.557053  0  2.38507  0
O  O74  1  0.20781002  0.50727872  0.08580239  1  0  -0.29202  -0.500498  0  2.237728  0
O  O75  1  0.79218586  0.49272012  0.91419371  1  0  -0.292021  -0.500472  0  2.237553  0
O  O76  1  0.36735850  0.80528354  0.01127421  1  0  -0.297446  -0.506652  0  2.140307  0
O  O77  1  0.63263960  0.19471222  0.98872592  1  0  -0.297476  -0.506647  0  2.14033  0
O  O78  1  0.19639704  0.76319987  0.10662021  1  0  -0.327496  -0.496704  0  2.377025  0
O  O79  1  0.80360357  0.23679795  0.89338107  1  0  -0.327474  -0.49668  0  2.377042  0
O  O80  1  0.04923642  0.33779933  0.25420191  1  0  -0.099998  -0.295964  0  2.010566  0
O  O81  1  0.95076307  0.66219952  0.74579885  1  0  -0.100027  -0.295995  0  2.010549  0
O  O82  1  0.00676245  0.12040279  0.28860219  1  0  -0.136043  -0.349344  0  1.946032  0
O  O83  1  0.99323578  0.87959503  0.71139800  1  0  -0.136013  -0.349317  0  1.946057  0
