# generated using pymatgen
data_CdH8C6N8O5
_symmetry_space_group_name_H-M   'P 1'
_cell_length_a   8.96665919
_cell_length_b   9.12192128
_cell_length_c   13.94538963
_cell_angle_alpha   108.38046158
_cell_angle_beta   89.99999188
_cell_angle_gamma   89.99998919
_symmetry_Int_Tables_number   1
_chemical_formula_structural   CdH8C6N8O5
_chemical_formula_sum   'Cd4 H32 C24 N32 O20'
_cell_volume   1082.44625198
_cell_formula_units_Z   4
loop_
 _symmetry_equiv_pos_site_id
 _symmetry_equiv_pos_as_xyz
  1  'x, y, z'
loop_
 _atom_site_type_symbol
 _atom_site_label
 _atom_site_symmetry_multiplicity
 _atom_site_fract_x
 _atom_site_fract_y
 _atom_site_fract_z
 _atom_site_occupancy
 _atom_site_pbe_bader_spin_density
 _atom_site_pbe_cm5_charge
 _atom_site_pbe_ddec_charge
 _atom_site_pbe_ddec_spin_density
 _atom_site_pbe_ddec_sum_bond_order
 _atom_site_pbe_magmom
Cd  Cd0  1  0.96249437  0.26987870  0.80670047  1  0  0.80068  0.96376  0  2.114935  0
Cd  Cd1  1  0.46249434  0.23012141  0.69330013  1  0  0.800673  0.963757  0  2.114935  0
Cd  Cd2  1  0.03750552  0.73012121  0.19329990  1  0  0.800673  0.963737  0  2.114946  0
Cd  Cd3  1  0.53750666  0.76987850  0.30670024  1  0  0.800691  0.963783  0  2.114914  0
H  H4  1  0.15079415  0.10335650  0.12047155  1  0  0.316109  0.283304  0  1.00208  0
H  H5  1  0.65079414  0.39664284  0.37952886  1  0  0.316124  0.283322  0  1.002065  0
H  H6  1  0.84920573  0.89664341  0.87952954  1  0  0.316104  0.283302  0  1.002117  0
H  H7  1  0.34920463  0.60335591  0.62047128  1  0  0.316101  0.283284  0  1.002117  0
H  H8  1  0.34355592  0.27045188  0.93627710  1  0  0.310312  0.331939  0  0.939064  0
H  H9  1  0.84355824  0.22955056  0.56372255  1  0  0.310282  0.331882  0  0.939187  0
H  H10  1  0.65644285  0.72955034  0.06372302  1  0  0.310289  0.331903  0  0.939162  0
H  H11  1  0.15644388  0.77045165  0.43627685  1  0  0.310315  0.331942  0  0.939062  0
H  H12  1  0.37428208  0.17954294  0.02796495  1  0  0.302041  0.302439  0  0.993147  0
H  H13  1  0.87428206  0.32045865  0.47203517  1  0  0.302069  0.302493  0  0.993038  0
H  H14  1  0.62571781  0.82045928  0.97203517  1  0  0.302037  0.302447  0  0.993112  0
H  H15  1  0.12571560  0.67954241  0.52796471  1  0  0.302036  0.302433  0  0.993142  0
H  H16  1  0.85222697  0.71374926  0.62997496  1  0  0.313837  0.2813  0  1.018546  0
H  H17  1  0.35222577  0.78625121  0.87002538  1  0  0.313847  0.281306  0  1.018579  0
H  H18  1  0.14777515  0.28625065  0.37002541  1  0  0.31382  0.281298  0  1.018538  0
H  H19  1  0.64777300  0.21374870  0.12997499  1  0  0.313824  0.281282  0  1.018568  0
H  H20  1  0.64326174  0.50915266  0.78766574  1  0  0.306157  0.320052  0  0.969211  0
H  H21  1  0.14326277  0.99084555  0.71233271  1  0  0.306141  0.320013  0  0.969249  0
H  H22  1  0.35673815  0.49084609  0.21233295  1  0  0.306175  0.320077  0  0.969167  0
H  H23  1  0.85673934  0.00915319  0.28766599  1  0  0.306142  0.320039  0  0.969215  0
H  H24  1  0.62003681  0.62000232  0.70506569  1  0  0.301699  0.303499  0  1.009063  0
H  H25  1  0.12003673  0.87999589  0.79493276  1  0  0.301694  0.30349  0  1.009072  0
H  H26  1  0.37996307  0.37999527  0.29493349  1  0  0.301686  0.303486  0  1.009059  0
H  H27  1  0.87996315  0.12000285  0.20506593  1  0  0.301696  0.303493  0  1.00907  0
H  H28  1  0.94057209  0.00078285  0.60748688  1  0  0.286662  0.382181  0  0.958947  0
H  H29  1  0.44057308  0.49921841  0.89251324  1  0  0.286688  0.382186  0  0.958956  0
H  H30  1  0.05942779  0.99921705  0.39251277  1  0  0.286686  0.382208  0  0.958926  0
H  H31  1  0.55942792  0.50078265  0.10748736  1  0  0.286664  0.382182  0  0.958945  0
H  H32  1  0.09460149  0.09439314  0.59985679  1  0  0.283198  0.373931  0  0.976858  0
H  H33  1  0.59460147  0.40560590  0.90014219  1  0  0.283218  0.373963  0  0.976811  0
H  H34  1  0.90539840  0.90560560  0.40014191  1  0  0.283197  0.373922  0  0.976865  0
H  H35  1  0.40539841  0.59439400  0.09985745  1  0  0.283212  0.373962  0  0.976823  0
C  C36  1  0.92417584  0.27123338  0.02446883  1  0  0.195082  0.148777  0  4.100385  0
C  C37  1  0.42417686  0.22876589  0.47553081  1  0  0.19511  0.148814  0  4.100352  0
C  C38  1  0.07582405  0.72876653  0.97553153  1  0  0.195111  0.148796  0  4.100404  0
C  C39  1  0.57582303  0.77123286  0.52446860  1  0  0.195079  0.14875  0  4.100317  0
C  C40  1  0.15801870  0.21957726  0.00556215  1  0  0.34651  0.554873  0  4.063572  0
C  C41  1  0.65801868  0.28042207  0.49443754  1  0  0.346546  0.554864  0  4.063695  0
C  C42  1  0.84198119  0.78042149  0.99443799  1  0  0.346531  0.554863  0  4.063643  0
C  C43  1  0.34198009  0.71957668  0.50556188  1  0  0.346548  0.554875  0  4.063551  0
C  C44  1  0.77727608  0.33752780  0.01036983  1  0  0.217317  0.541901  0  4.224578  0
C  C45  1  0.27727823  0.16247150  0.48962984  1  0  0.217309  0.541923  0  4.224617  0
C  C46  1  0.22272269  0.66247096  0.98963030  1  0  0.217356  0.542017  0  4.224481  0
C  C47  1  0.72272166  0.83752840  0.51037053  1  0  0.217305  0.541958  0  4.22458  0
C  C48  1  0.06724231  0.50627562  0.70451239  1  0  0.195259  0.150047  0  4.118174  0
C  C49  1  0.56724230  0.99372610  0.79548966  1  0  0.195297  0.150083  0  4.118172  0
C  C50  1  0.93275758  0.49372545  0.29548893  1  0  0.195252  0.150026  0  4.118132  0
C  C51  1  0.43275870  0.00627497  0.20451238  1  0  0.195256  0.150051  0  4.118133  0
C  C52  1  0.83252064  0.55430119  0.71821176  1  0  0.344149  0.546882  0  4.120023  0
C  C53  1  0.33252055  0.94569929  0.78178786  1  0  0.344139  0.546932  0  4.119987  0
C  C54  1  0.16748036  0.44569871  0.28178789  1  0  0.344177  0.546992  0  4.119911  0
C  C55  1  0.66747822  0.05430062  0.21821179  1  0  0.34417  0.546941  0  4.11998  0
C  C56  1  0.21019299  0.43277497  0.71610595  1  0  0.205162  0.532892  0  4.227616  0
C  C57  1  0.71019418  0.06722520  0.78389469  1  0  0.205156  0.532936  0  4.227664  0
C  C58  1  0.78980578  0.56722378  0.28389419  1  0  0.205163  0.532955  0  4.227633  0
C  C59  1  0.28980794  0.93277471  0.21610567  1  0  0.205181  0.532932  0  4.227533  0
N  N60  1  0.10179374  0.17182817  0.08141555  1  0  -0.276894  -0.215163  0  3.576516  0
N  N61  1  0.60179373  0.32817118  0.41858343  1  0  -0.276917  -0.215171  0  3.576529  0
N  N62  1  0.89820726  0.82817174  0.91858410  1  0  -0.27691  -0.215164  0  3.576558  0
N  N63  1  0.39820615  0.67182757  0.58141599  1  0  -0.276902  -0.215156  0  3.576584  0
N  N64  1  0.95354352  0.20469082  0.09420676  1  0  -0.218788  -0.212613  0  3.204227  0
N  N65  1  0.45354454  0.29530960  0.40579383  1  0  -0.218794  -0.212613  0  3.204229  0
N  N66  1  0.04645637  0.79531025  0.90579456  1  0  -0.218778  -0.212612  0  3.204297  0
N  N67  1  0.54645534  0.70469031  0.59420653  1  0  -0.218778  -0.212592  0  3.204194  0
N  N68  1  0.04528875  0.27990252  0.96603775  1  0  -0.36507  -0.47753  0  3.35612  0
N  N69  1  0.54529108  0.22009770  0.53396292  1  0  -0.365096  -0.477554  0  3.356171  0
N  N70  1  0.95471002  0.72009740  0.03396334  1  0  -0.365086  -0.477547  0  3.356146  0
N  N71  1  0.45470992  0.77990221  0.46603745  1  0  -0.365094  -0.477539  0  3.356054  0
N  N72  1  0.30286853  0.20791724  0.97950677  1  0  -0.572815  -0.634708  0  3.318051  0
N  N73  1  0.80286973  0.29208290  0.52049242  1  0  -0.572838  -0.634698  0  3.318102  0
N  N74  1  0.69713248  0.79208266  0.02049288  1  0  -0.572793  -0.63466  0  3.318143  0
N  N75  1  0.19713127  0.70791816  0.47950746  1  0  -0.572819  -0.634701  0  3.31807  0
N  N76  1  0.89873593  0.63553623  0.66317072  1  0  -0.277629  -0.217443  0  3.582344  0
N  N77  1  0.39873362  0.86446539  0.83682984  1  0  -0.277597  -0.217434  0  3.582331  0
N  N78  1  0.10126618  0.36446598  0.33682940  1  0  -0.277611  -0.217471  0  3.58239  0
N  N79  1  0.60126515  0.13553452  0.16317053  1  0  -0.277599  -0.217459  0  3.58239  0
N  N80  1  0.04742556  0.60355292  0.65218454  1  0  -0.223432  -0.225203  0  3.190945  0
N  N81  1  0.54742556  0.89644649  0.84781632  1  0  -0.223448  -0.225198  0  3.19097  0
N  N82  1  0.95257544  0.39644467  0.34781464  1  0  -0.223458  -0.22524  0  3.190956  0
N  N83  1  0.45257544  0.10355112  0.15218430  1  0  -0.223453  -0.225194  0  3.190919  0
N  N84  1  0.93890921  0.47235500  0.74649558  1  0  -0.372663  -0.47528  0  3.409855  0
N  N85  1  0.43891032  0.02764510  0.75350359  1  0  -0.37271  -0.475384  0  3.40992  0
N  N86  1  0.06108956  0.52764374  0.25350311  1  0  -0.372662  -0.475293  0  3.409786  0
N  N87  1  0.56109180  0.97235480  0.24649534  1  0  -0.37268  -0.475339  0  3.409899  0
N  N88  1  0.68613836  0.55609916  0.73646781  1  0  -0.58222  -0.652352  0  3.371219  0
N  N89  1  0.18613716  0.94389903  0.76352992  1  0  -0.582225  -0.652349  0  3.37122  0
N  N90  1  0.31386264  0.44389957  0.26352945  1  0  -0.582241  -0.652414  0  3.371177  0
N  N91  1  0.81386384  0.05609855  0.23646782  1  0  -0.582236  -0.652378  0  3.371185  0
O  O92  1  0.67198268  0.34070054  0.07211645  1  0  -0.308749  -0.530088  0  2.250945  0
O  O93  1  0.17198261  0.15929995  0.42788419  1  0  -0.30873  -0.530093  0  2.250953  0
O  O94  1  0.32801721  0.65930053  0.92788559  1  0  -0.308779  -0.530135  0  2.250939  0
O  O95  1  0.82801616  0.84070112  0.57211713  1  0  -0.308747  -0.530116  0  2.250957  0
O  O96  1  0.76740942  0.39017593  0.93626345  1  0  -0.309762  -0.535139  0  2.289443  0
O  O97  1  0.26741056  0.10982191  0.56373527  1  0  -0.309755  -0.535154  0  2.289479  0
O  O98  1  0.23258935  0.60982051  0.06373549  1  0  -0.309761  -0.535194  0  2.289451  0
O  O99  1  0.73259044  0.89017568  0.43626391  1  0  -0.309746  -0.535159  0  2.289486  0
O  O100  1  0.20680712  0.33248718  0.76259163  1  0  -0.318768  -0.530427  0  2.285527  0
O  O101  1  0.70680830  0.16751301  0.73741045  1  0  -0.318745  -0.530422  0  2.285551  0
O  O102  1  0.79319165  0.66751274  0.23741017  1  0  -0.318742  -0.530428  0  2.285509  0
O  O103  1  0.29319382  0.83248692  0.26259207  1  0  -0.318793  -0.53043  0  2.28549  0
O  O104  1  0.32889718  0.46505451  0.67704915  1  0  -0.308437  -0.530068  0  2.252888  0
O  O105  1  0.82889614  0.03494450  0.82295339  1  0  -0.308455  -0.530108  0  2.25291  0
O  O106  1  0.67110493  0.53494542  0.32295337  1  0  -0.308462  -0.530127  0  2.25294  0
O  O107  1  0.17110375  0.96505312  0.17704866  1  0  -0.308435  -0.530084  0  2.25287  0
O  O108  1  0.99761562  0.09871601  0.63686721  1  0  -0.58894  -0.781746  0  2.125039  0
O  O109  1  0.49761552  0.40128524  0.86313291  1  0  -0.588974  -0.781759  0  2.125037  0
O  O110  1  0.00238426  0.90128505  0.36313340  1  0  -0.588974  -0.781763  0  2.125043  0
O  O111  1  0.50238436  0.59871582  0.13686698  1  0  -0.588955  -0.781782  0  2.124927  0
