# generated using pymatgen
data_ZnPH9C12N2O3
_symmetry_space_group_name_H-M   'P 1'
_cell_length_a   8.13709179
_cell_length_b   12.34572606
_cell_length_c   12.43240000
_cell_angle_alpha   99.33162978
_cell_angle_beta   92.71407358
_cell_angle_gamma   92.70654535
_symmetry_Int_Tables_number   1
_chemical_formula_structural   ZnPH9C12N2O3
_chemical_formula_sum   'Zn4 P4 H36 C48 N8 O12'
_cell_volume   1229.11649389
_cell_formula_units_Z   4
loop_
 _symmetry_equiv_pos_site_id
 _symmetry_equiv_pos_as_xyz
  1  'x, y, z'
loop_
 _atom_site_type_symbol
 _atom_site_label
 _atom_site_symmetry_multiplicity
 _atom_site_fract_x
 _atom_site_fract_y
 _atom_site_fract_z
 _atom_site_occupancy
 _atom_site_hle17_bader_spin_density
 _atom_site_hle17_ddec_charge
 _atom_site_hle17_ddec_spin_density
 _atom_site_hle17_ddec_sum_bond_order
 _atom_site_hle17_magmom
 _atom_site_hse06_10hf_bader_spin_density
 _atom_site_hse06_10hf_ddec_charge
 _atom_site_hse06_10hf_ddec_spin_density
 _atom_site_hse06_10hf_ddec_sum_bond_order
 _atom_site_hse06_10hf_magmom
 _atom_site_hse06_bader_spin_density
 _atom_site_hse06_ddec_charge
 _atom_site_hse06_ddec_spin_density
 _atom_site_hse06_ddec_sum_bond_order
 _atom_site_hse06_magmom
 _atom_site_pbe_bader_charge
 _atom_site_pbe_bader_spin_density
 _atom_site_pbe_cm5_charge
 _atom_site_pbe_ddec_charge
 _atom_site_pbe_ddec_spin_density
 _atom_site_pbe_ddec_sum_bond_order
 _atom_site_pbe_magmom
Zn  Zn0  1  0.75024399  0.26368453  0.73662513  1  0  1.003145  0  1.930221  0  0  0.809911  0  2.388995  0  0  0.854654  0  2.340251  0  1.304119  0  0.689827  0.778819  0  2.422146  0
Zn  Zn1  1  0.24975602  0.73631577  0.26337476  1  0  1.003184  0  1.930184  0  0  0.809918  0  2.388977  0  0  0.854664  0  2.340234  0  1.304031  0  0.689829  0.778828  0  2.422129  0
Zn  Zn2  1  0.74987236  0.51909097  0.48112339  1  0  1.239578  0  1.789839  0  0  1.073419  0  2.276563  0  0  1.11684  0  2.211491  0  1.349772  0  0.705188  1.042658  0  2.321446  0
Zn  Zn3  1  0.25012648  0.48091015  0.51887740  1  0  1.239578  0  1.789823  0  0  1.073435  0  2.276514  0  0  1.116854  0  2.211445  0  1.349798  0  0.705189  1.042673  0  2.321401  0
P  P4  1  0.92917391  0.30885022  0.50798041  1  0  1.420282  0  5.028744  0  0  1.238701  0  5.537603  0  0  1.290492  0  5.497802  0  3.386248  0  0.263911  1.202596  0  5.564278  0
P  P5  1  0.57115784  0.49279084  0.69052556  1  0  1.420454  0  5.026048  0  0  1.238445  0  5.535061  0  0  1.290181  0  5.495358  0  3.380204  0  0.264731  1.202371  0  5.56169  0
P  P6  1  0.07082732  0.69115008  0.49202113  1  0  1.420286  0  5.028792  0  0  1.238703  0  5.537652  0  0  1.290494  0  5.49785  0  3.386215  0  0.263884  1.202598  0  5.564328  0
P  P7  1  0.42884347  0.50721028  0.30947531  1  0  1.420447  0  5.02599  0  0  1.238437  0  5.535006  0  0  1.290173  0  5.495302  0  3.380292  0  0.26474  1.202364  0  5.561631  0
H  H8  1  0.99328808  0.22901176  0.42800949  1  0  -0.184158  0  0.924938  0  0  -0.15292  0  1.019563  0  0  -0.157528  0  1.015404  0  -0.47919  0  0.066823  -0.149802  0  1.022541  0
H  H9  1  0.50691577  0.57379426  0.76924352  1  0  -0.183855  0  0.925032  0  0  -0.152423  0  1.019674  0  0  -0.156979  0  1.015444  0  -0.479539  0  0.066846  -0.149347  0  1.022703  0
H  H10  1  0.00671062  0.77098771  0.57199022  1  0  -0.184169  0  0.924936  0  0  -0.152942  0  1.019574  0  0  -0.15755  0  1.015415  0  -0.479173  0  0.066815  -0.149824  0  1.022552  0
H  H11  1  0.49308547  0.42620603  0.23075721  1  0  -0.183851  0  0.925021  0  0  -0.152412  0  1.01965  0  0  -0.156968  0  1.015421  0  -0.479637  0  0.066846  -0.149336  0  1.022678  0
H  H12  1  0.11653814  0.35904080  0.72535277  1  0  0.104774  0  0.967049  0  0  0.110836  0  1.029731  0  0  0.113956  0  1.027062  0  0.190544  0  0.121607  0.108478  0  1.031771  0
H  H13  1  0.38330025  0.27626239  0.64156249  1  0  0.104142  0  0.970567  0  0  0.109788  0  1.033619  0  0  0.112818  0  1.031082  0  0.172507  0  0.121349  0.107443  0  1.035609  0
H  H14  1  0.88346194  0.64096031  0.27464805  1  0  0.104767  0  0.967077  0  0  0.110835  0  1.02975  0  0  0.113955  0  1.027078  0  0.190534  0  0.121598  0.108477  0  1.031789  0
H  H15  1  0.61670215  0.72373708  0.35843734  1  0  0.104132  0  0.970531  0  0  0.109783  0  1.033588  0  0  0.112813  0  1.03105  0  0.172514  0  0.121347  0.107438  0  1.035577  0
H  H16  1  0.35557505  0.42868231  0.85720452  1  0  0.11261  0  0.955053  0  0  0.122388  0  1.015328  0  0  0.125593  0  1.014383  0  0.114898  0  0.109407  0.120016  0  1.016212  0
H  H17  1  0.14477608  0.14353921  0.57138653  1  0  0.112457  0  0.956329  0  0  0.122145  0  1.016957  0  0  0.125363  0  1.015982  0  0.112766  0  0.109422  0.119782  0  1.017856  0
H  H18  1  0.64442496  0.57131799  0.14279698  1  0  0.112624  0  0.95503  0  0  0.122433  0  1.01527  0  0  0.125645  0  1.014318  0  0.115125  0  0.109408  0.120052  0  1.016164  0
H  H19  1  0.85522393  0.85646109  0.42861416  1  0  0.112443  0  0.956328  0  0  0.122132  0  1.016953  0  0  0.12535  0  1.015978  0  0.112766  0  0.109417  0.119769  0  1.017852  0
H  H20  1  0.31335879  0.45028476  0.05976464  1  0  0.11153  0  0.938796  0  0  0.123134  0  0.997514  0  0  0.126168  0  0.995394  0  0.119354  0  0.111295  0.120833  0  0.999173  0
H  H21  1  0.18707675  0.93958809  0.54950522  1  0  0.111555  0  0.9399  0  0  0.122852  0  0.998991  0  0  0.125877  0  0.996856  0  0.116564  0  0.111263  0.1206  0  1.000616  0
H  H22  1  0.68663999  0.54971554  0.94023601  1  0  0.111545  0  0.938772  0  0  0.123149  0  0.997492  0  0  0.126183  0  0.995373  0  0.119357  0  0.111303  0.120847  0  0.999152  0
H  H23  1  0.81292449  0.06041220  0.45049551  1  0  0.111523  0  0.939906  0  0  0.122853  0  0.998967  0  0  0.12588  0  0.996829  0  0.116556  0  0.111263  0.120602  0  1.000591  0
H  H24  1  0.58930082  0.24837142  0.21413898  1  0  0.10144  0  0.966602  0  0  0.111621  0  1.029639  0  0  0.113588  0  1.029351  0  0.110566  0  0.107687  0.110178  0  1.029907  0
H  H25  1  0.91060974  0.78425123  0.75106902  1  0  0.101008  0  0.967845  0  0  0.111754  0  1.03033  0  0  0.113731  0  1.030019  0  0.101736  0  0.1076  0.110304  0  1.03061  0
H  H26  1  0.41069666  0.75162805  0.78585989  1  0  0.101424  0  0.966604  0  0  0.111604  0  1.029643  0  0  0.113571  0  1.029355  0  0.110554  0  0.107679  0.110161  0  1.029912  0
H  H27  1  0.08939150  0.21574906  0.24893171  1  0  0.10101  0  0.967834  0  0  0.111752  0  1.030326  0  0  0.113729  0  1.030015  0  0.101729  0  0.107598  0.110302  0  1.030607  0
H  H28  1  0.37423085  0.17039181  0.06709009  1  0  0.102166  0  0.9471  0  0  0.114248  0  1.001112  0  0  0.117408  0  1.000803  0  0.074405  0  0.10512  0.112002  0  1.001439  0
H  H29  1  0.12526191  0.93242728  0.82932549  1  0  0.10208  0  0.948006  0  0  0.114156  0  1.001999  0  0  0.117299  0  1.001708  0  0.07599  0  0.10524  0.111923  0  1.002311  0
H  H30  1  0.62576895  0.82960601  0.93290859  1  0  0.102188  0  0.947104  0  0  0.114285  0  1.001098  0  0  0.117445  0  1.00079  0  0.074412  0  0.105122  0.112038  0  1.001427  0
H  H31  1  0.87473939  0.06757383  0.17067537  1  0  0.102072  0  0.947977  0  0  0.11415  0  1.001969  0  0  0.117294  0  1.001675  0  0.076002  0  0.105236  0.111917  0  1.002281  0
H  H32  1  0.43403974  0.17781159  0.87158383  1  0  0.068986  0  0.943588  0  0  0.076278  0  1.008941  0  0  0.078653  0  1.00745  0  0.084273  0  0.111007  0.074555  0  1.010032  0
H  H33  1  0.06531007  0.12924801  0.82191117  1  0  0.06842  0  0.944778  0  0  0.075852  0  1.010145  0  0  0.078214  0  1.008654  0  0.078438  0  0.110867  0.074128  0  1.011245  0
H  H34  1  0.56596013  0.82218706  0.12841498  1  0  0.068991  0  0.943601  0  0  0.076286  0  1.008946  0  0  0.078661  0  1.007455  0  0.08443  0  0.11102  0.074563  0  1.010037  0
H  H35  1  0.93468994  0.87075228  0.17809032  1  0  0.068418  0  0.944798  0  0  0.075857  0  1.01016  0  0  0.078219  0  1.00867  0  0.07844  0  0.110872  0.074131  0  1.011261  0
H  H36  1  0.12585335  0.42496872  0.20939177  1  0  0.120643  0  0.970153  0  0  0.130274  0  1.029883  0  0  0.133499  0  1.028248  0  0.163424  0  0.110068  0.12784  0  1.031232  0
H  H37  1  0.37472138  0.78875900  0.57501716  1  0  0.122185  0  0.969417  0  0  0.130757  0  1.030281  0  0  0.133982  0  1.028671  0  0.150184  0  0.110062  0.128332  0  1.031615  0
H  H38  1  0.87414536  0.57503075  0.79060955  1  0  0.120672  0  0.970134  0  0  0.130278  0  1.029884  0  0  0.13352  0  1.028229  0  0.163434  0  0.110057  0.127844  0  1.031233  0
H  H39  1  0.62527986  0.21124129  0.42498196  1  0  0.122241  0  0.969364  0  0  0.130776  0  1.030271  0  0  0.134002  0  1.028658  0  0.150171  0  0.110058  0.128351  0  1.031604  0
H  H40  1  0.86152566  0.35191042  0.26611355  1  0  0.122489  0  0.96332  0  0  0.132724  0  1.020743  0  0  0.136059  0  1.019437  0  0.149204  0  0.109106  0.130229  0  1.021892  0
H  H41  1  0.63897218  0.73193131  0.64799159  1  0  0.122112  0  0.969642  0  0  0.132279  0  1.027329  0  0  0.13554  0  1.026104  0  0.131702  0  0.108486  0.129784  0  1.028476  0
H  H42  1  0.13847182  0.64808905  0.73388693  1  0  0.122511  0  0.963376  0  0  0.132725  0  1.020814  0  0  0.13606  0  1.01951  0  0.149209  0  0.109113  0.13023  0  1.021964  0
H  H43  1  0.36102906  0.26806898  0.35200833  1  0  0.122096  0  0.969662  0  0  0.132258  0  1.027357  0  0  0.13552  0  1.026133  0  0.1317  0  0.108477  0.129763  0  1.028505  0
C  C44  1  0.10651803  0.36272069  0.81327109  1  0  0.139705  0  3.653179  0  0  0.107544  0  3.908592  0  0  0.115397  0  3.924587  0  0.478706  0  0.059842  0.102529  0  3.897673  0
C  C45  1  0.39335650  0.18772738  0.63772990  1  0  0.141468  0  3.652356  0  0  0.109513  0  3.907727  0  0  0.117406  0  3.92379  0  0.495632  0  0.059705  0.104499  0  3.896793  0
C  C46  1  0.89348198  0.63727961  0.18672960  1  0  0.139736  0  3.653149  0  0  0.107585  0  3.908529  0  0  0.115438  0  3.924526  0  0.478706  0  0.059879  0.10257  0  3.897608  0
C  C47  1  0.60664604  0.81227374  0.36227101  1  0  0.141479  0  3.65236  0  0  0.109496  0  3.90776  0  0  0.11739  0  3.923824  0  0.495587  0  0.059666  0.104483  0  3.896824  0
C  C48  1  0.23868320  0.40449342  0.88815579  1  0  -0.119804  0  3.729307  0  0  -0.133901  0  3.987572  0  0  -0.141246  0  4.009502  0  -0.008272  0  -0.082667  -0.129102  0  3.972726  0
C  C49  1  0.26152890  0.11232845  0.59563097  1  0  -0.121447  0  3.730842  0  0  -0.135657  0  3.989083  0  0  -0.143037  0  4.011018  0  -0.002919  0  -0.083729  -0.13085  0  3.974233  0
C  C50  1  0.76131558  0.59550687  0.11184567  1  0  -0.119829  0  3.729287  0  0  -0.133961  0  3.987519  0  0  -0.141313  0  4.009456  0  -0.008529  0  -0.082695  -0.129153  0  3.972676  0
C  C51  1  0.73847234  0.88767184  0.40436895  1  0  -0.121419  0  3.730795  0  0  -0.135619  0  3.989056  0  0  -0.143  0  4.010991  0  -0.002912  0  -0.083708  -0.130814  0  3.974205  0
C  C52  1  0.21672891  0.41436234  0.99879226  1  0  -0.046162  0  3.681083  0  0  -0.072376  0  3.932162  0  0  -0.069852  0  3.950444  0  -0.076532  0  -0.063345  -0.073672  0  3.919612  0
C  C53  1  0.28357296  0.00091504  0.58552927  1  0  -0.045565  0  3.680275  0  0  -0.071731  0  3.930386  0  0  -0.06922  0  3.948695  0  -0.124717  0  -0.063053  -0.073058  0  3.917824  0
C  C54  1  0.78327103  0.58563713  0.00120910  1  0  -0.046161  0  3.681074  0  0  -0.072378  0  3.932168  0  0  -0.069856  0  3.950453  0  -0.076512  0  -0.063325  -0.073674  0  3.919615  0
C  C55  1  0.71642705  0.99908526  0.41447061  1  0  -0.045543  0  3.680266  0  0  -0.071756  0  3.930375  0  0  -0.069243  0  3.948683  0  -0.124725  0  -0.06307  -0.073083  0  3.917813  0
C  C56  1  0.06404182  0.37867424  0.03478425  1  0  0.0188  0  3.795379  0  0  0.034545  0  4.029975  0  0  0.031688  0  4.055113  0  -0.008056  0  -0.003472  0.036279  0  4.012984  0
C  C57  1  0.43610018  0.96464762  0.62121748  1  0  0.017712  0  3.79574  0  0  0.034914  0  4.028046  0  0  0.032081  0  4.053154  0  0.053774  0  -0.003685  0.036627  0  4.011081  0
C  C58  1  0.93595696  0.62132606  0.96521560  1  0  0.018792  0  3.795351  0  0  0.034514  0  4.029937  0  0  0.031656  0  4.055077  0  -0.008051  0  -0.003468  0.036247  0  4.012947  0
C  C59  1  0.56390106  0.03535267  0.37878245  1  0  0.017624  0  3.795844  0  0  0.03488  0  4.028105  0  0  0.032045  0  4.053212  0  0.053743  0  -0.003723  0.036593  0  4.01114  0
C  C60  1  0.93963528  0.33391879  0.95349166  1  0  0.122182  0  3.751996  0  0  0.113673  0  3.991289  0  0  0.117712  0  4.013218  0  0.461409  0  0.11507  0.111018  0  3.976494  0
C  C61  1  0.56020912  0.04649755  0.66615156  1  0  0.122642  0  3.753837  0  0  0.114108  0  3.992402  0  0  0.11813  0  4.014363  0  0.467597  0  0.115388  0.111463  0  3.977581  0
C  C62  1  0.06036356  0.66608232  0.04650832  1  0  0.122178  0  3.752076  0  0  0.113724  0  3.991288  0  0  0.117763  0  4.013214  0  0.461408  0  0.11505  0.111069  0  3.976495  0
C  C63  1  0.43979211  0.95350274  0.33384917  1  0  0.122686  0  3.753759  0  0  0.114116  0  3.992378  0  0  0.118139  0  4.014338  0  0.467602  0  0.115397  0.111471  0  3.977555  0
C  C64  1  0.78453296  0.29230473  0.98678800  1  0  0.126287  0  3.749324  0  0  0.12177  0  3.985426  0  0  0.125323  0  4.007077  0  0.500839  0  0.1167  0.119368  0  3.970864  0
C  C65  1  0.71523126  0.01306374  0.70761675  1  0  0.127443  0  3.750051  0  0  0.122439  0  3.986217  0  0  0.126037  0  4.00786  0  0.508378  0  0.117047  0.120015  0  3.971665  0
C  C66  1  0.21546452  0.70769474  0.01321168  1  0  0.12634  0  3.749377  0  0  0.121752  0  3.985444  0  0  0.125314  0  4.007095  0  0.500308  0  0.116721  0.11935  0  3.970881  0
C  C67  1  0.28476998  0.98693655  0.29238318  1  0  0.127528  0  3.75  0  0  0.122464  0  3.986258  0  0  0.126052  0  4.007895  0  0.508383  0  0.117066  0.12004  0  3.971705  0
C  C68  1  0.76056267  0.29582758  0.09987689  1  0  0.025401  0  3.800738  0  0  0.040527  0  4.032943  0  0  0.038231  0  4.057913  0  0.042487  0  -0.003478  0.041926  0  4.016106  0
C  C69  1  0.73943205  0.89925656  0.70395476  1  0  0.026223  0  3.801949  0  0  0.041351  0  4.03443  0  0  0.039049  0  4.059346  0  -0.039721  0  -0.003102  0.042737  0  4.017636  0
C  C70  1  0.23943604  0.70417189  0.90012282  1  0  0.025269  0  3.800886  0  0  0.040473  0  4.032995  0  0  0.038175  0  4.057963  0  0.042505  0  -0.003536  0.041872  0  4.016157  0
C  C71  1  0.26056919  0.10074373  0.29604517  1  0  0.026167  0  3.802015  0  0  0.041324  0  4.034492  0  0  0.039043  0  4.059381  0  -0.039721  0  -0.00309  0.04271  0  4.017698  0
C  C72  1  0.61005198  0.24926262  0.12837675  1  0  -0.053017  0  3.709619  0  0  -0.07742  0  3.959241  0  0  -0.075245  0  3.977179  0  -0.106954  0  -0.067688  -0.078657  0  3.947043  0
C  C73  1  0.88982544  0.87060923  0.75036575  1  0  -0.051837  0  3.708388  0  0  -0.076581  0  3.957851  0  0  -0.07434  0  3.975711  0  -0.073882  0  -0.067561  -0.07785  0  3.945705  0
C  C74  1  0.38994549  0.75073685  0.87162212  1  0  -0.05294  0  3.709636  0  0  -0.077371  0  3.95924  0  0  -0.075194  0  3.977178  0  -0.106978  0  -0.067688  -0.078608  0  3.947043  0
C  C75  1  0.11017587  0.12939189  0.24963511  1  0  -0.051855  0  3.708365  0  0  -0.076601  0  3.957826  0  0  -0.074366  0  3.975681  0  -0.073882  0  -0.067569  -0.07787  0  3.945681  0
C  C76  1  0.49202429  0.20571982  0.04731174  1  0  -0.132357  0  3.770081  0  0  -0.145133  0  4.02352  0  0  -0.151477  0  4.043733  0  -0.039067  0  -0.091302  -0.141001  0  4.009822  0
C  C77  1  0.00760407  0.95226625  0.79397433  1  0  -0.133171  0  3.770995  0  0  -0.14594  0  4.024747  0  0  -0.152299  0  4.044903  0  -0.028439  0  -0.091641  -0.141804  0  4.011081  0
C  C78  1  0.50797558  0.79427883  0.95268707  1  0  -0.132397  0  3.770108  0  0  -0.14519  0  4.02356  0  0  -0.151534  0  4.04377  0  -0.039025  0  -0.091293  -0.141059  0  4.009864  0
C  C79  1  0.99239587  0.04773322  0.20602703  1  0  -0.133152  0  3.770984  0  0  -0.145923  0  4.024737  0  0  -0.152283  0  4.044897  0  -0.02837  0  -0.091643  -0.141787  0  4.01107  0
C  C80  1  0.52533789  0.20933311  0.93784528  1  0  0.135634  0  3.725361  0  0  0.10465  0  3.985033  0  0  0.112021  0  4.00126  0  0.546874  0  0.050438  0.099893  0  3.973912  0
C  C81  1  0.97418130  0.06247494  0.79047351  1  0  0.13685  0  3.725075  0  0  0.105458  0  3.984577  0  0  0.112915  0  4.000806  0  0.554596  0  0.050702  0.10066  0  3.973434  0
C  C82  1  0.47466335  0.79066718  0.06215384  1  0  0.135677  0  3.72537  0  0  0.104663  0  3.985032  0  0  0.112042  0  4.001262  0  0.546716  0  0.050432  0.099905  0  3.973911  0
C  C83  1  0.02581748  0.93752535  0.20952553  1  0  0.13685  0  3.725032  0  0  0.105452  0  3.98452  0  0  0.112903  0  4.00075  0  0.554528  0  0.050701  0.100656  0  3.973377  0
C  C84  1  0.03171783  0.38631106  0.14795733  1  0  -0.090622  0  3.708227  0  0  -0.113007  0  3.958303  0  0  -0.115754  0  3.98057  0  -0.095859  0  -0.080439  -0.110994  0  3.943257  0
C  C85  1  0.46864901  0.85071765  0.61351433  1  0  -0.090534  0  3.706991  0  0  -0.112542  0  3.956853  0  0  -0.115283  0  3.979046  0  -0.115089  0  -0.080458  -0.110536  0  3.941823  0
C  C86  1  0.96828088  0.61368841  0.85204318  1  0  -0.090629  0  3.708264  0  0  -0.112989  0  3.958335  0  0  -0.115748  0  3.980591  0  -0.095835  0  -0.080428  -0.110976  0  3.943287  0
C  C87  1  0.53135346  0.14928265  0.38648483  1  0  -0.090602  0  3.707109  0  0  -0.112593  0  3.956962  0  0  -0.115334  0  3.979156  0  -0.114922  0  -0.080455  -0.110588  0  3.941932  0
C  C88  1  0.88551839  0.34587101  0.17954978  1  0  -0.106695  0  3.714943  0  0  -0.125626  0  3.964285  0  0  -0.130214  0  3.987336  0  -0.099428  0  -0.083483  -0.122433  0  3.948698  0
C  C89  1  0.61472964  0.81902841  0.65397546  1  0  -0.109229  0  3.718634  0  0  -0.128255  0  3.967588  0  0  -0.132813  0  3.990714  0  -0.023033  0  -0.084959  -0.125039  0  3.95199  0
C  C90  1  0.11447909  0.65412847  0.82044990  1  0  -0.106689  0  3.715109  0  0  -0.125625  0  3.964409  0  0  -0.130213  0  3.987465  0  -0.099489  0  -0.083473  -0.122432  0  3.948822  0
C  C91  1  0.38527160  0.18097188  0.34602447  1  0  -0.109124  0  3.71872  0  0  -0.128144  0  3.967646  0  0  -0.132708  0  3.990768  0  -0.023182  0  -0.084906  -0.124929  0  3.952048  0
N  N92  1  0.96165586  0.32841048  0.84508926  1  0  -0.331401  0  3.260306  0  0  -0.261078  0  3.526864  0  0  -0.278108  0  3.542514  0  -1.229529  0  -0.309732  -0.249632  0  3.516166  0
N  N93  1  0.53802746  0.15565831  0.67208251  1  0  -0.332448  0  3.261428  0  0  -0.262288  0  3.528104  0  0  -0.279351  0  3.543749  0  -1.235054  0  -0.310489  -0.250788  0  3.517349  0
N  N94  1  0.03834538  0.67158981  0.15491067  1  0  -0.33144  0  3.260401  0  0  -0.261139  0  3.526928  0  0  -0.27817  0  3.542581  0  -1.22953  0  -0.309754  -0.249691  0  3.516232  0
N  N95  1  0.46197371  0.84434116  0.32791728  1  0  -0.332467  0  3.261416  0  0  -0.262273  0  3.528086  0  0  -0.279334  0  3.54373  0  -1.235018  0  -0.310464  -0.250773  0  3.51733  0
N  N96  1  0.66687275  0.25043745  0.90850490  1  0  -0.320163  0  3.245045  0  0  -0.261243  0  3.508266  0  0  -0.276113  0  3.524987  0  -1.233928  0  -0.305161  -0.251184  0  3.496881  0
N  N97  1  0.83268860  0.09192468  0.74946580  1  0  -0.320937  0  3.252498  0  0  -0.260792  0  3.515836  0  0  -0.275858  0  3.532548  0  -1.236171  0  -0.306111  -0.25061  0  3.504447  0
N  N98  1  0.33312603  0.74956284  0.09149495  1  0  -0.320237  0  3.245079  0  0  -0.261234  0  3.50823  0  0  -0.276126  0  3.524967  0  -1.23336  0  -0.305151  -0.251175  0  3.496844  0
N  N99  1  0.16731264  0.90807561  0.25053493  1  0  -0.320954  0  3.252415  0  0  -0.260785  0  3.515766  0  0  -0.275841  0  3.532472  0  -1.236129  0  -0.306116  -0.250605  0  3.504378  0
O  O100  1  0.85329733  0.24248246  0.58859449  1  0  -0.842009  0  2.053841  0  0  -0.751846  0  2.355032  0  0  -0.779694  0  2.331963  0  -1.466371  0  -0.391583  -0.732028  0  2.370209  0
O  O101  1  0.64603476  0.41209653  0.75748554  1  0  -0.841827  0  2.055706  0  0  -0.752009  0  2.357855  0  0  -0.779858  0  2.334749  0  -1.463497  0  -0.391347  -0.732112  0  2.372881  0
O  O102  1  0.14670267  0.75751783  0.41140540  1  0  -0.84199  0  2.053774  0  0  -0.75182  0  2.354949  0  0  -0.779669  0  2.331883  0  -1.466368  0  -0.391571  -0.732002  0  2.370127  0
O  O103  1  0.35396518  0.58790294  0.24251421  1  0  -0.841836  0  2.055695  0  0  -0.752018  0  2.357845  0  0  -0.779869  0  2.334738  0  -1.463384  0  -0.391353  -0.732124  0  2.372875  0
O  O104  1  0.80250838  0.36479082  0.44182015  1  0  -0.866114  0  2.040408  0  0  -0.768483  0  2.335229  0  0  -0.796277  0  2.307931  0  -1.451131  0  -0.38714  -0.748743  0  2.35345  0
O  O105  1  0.69882476  0.55837756  0.63473545  1  0  -0.865168  0  2.041008  0  0  -0.766997  0  2.335333  0  0  -0.794849  0  2.308198  0  -1.444635  0  -0.386289  -0.747224  0  2.353436  0
O  O106  1  0.19749040  0.63520947  0.55818050  1  0  -0.86614  0  2.0405  0  0  -0.768514  0  2.335327  0  0  -0.796305  0  2.308027  0  -1.451157  0  -0.387144  -0.748773  0  2.35355  0
O  O107  1  0.30117525  0.44162273  0.36526524  1  0  -0.865129  0  2.040975  0  0  -0.766963  0  2.3353  0  0  -0.794814  0  2.308164  0  -1.444632  0  -0.386273  -0.747189  0  2.353402  0
O  O108  1  0.07393479  0.38596905  0.56112791  1  0  -0.862329  0  2.077546  0  0  -0.76229  0  2.38041  0  0  -0.790743  0  2.353063  0  -1.457829  0  -0.385094  -0.742046  0  2.398497  0
O  O109  1  0.42669080  0.43934706  0.61366429  1  0  -0.861584  0  2.078982  0  0  -0.761546  0  2.382149  0  0  -0.789803  0  2.35455  0  -1.458371  0  -0.384801  -0.741395  0  2.400362  0
O  O110  1  0.92606645  0.61403124  0.43887202  1  0  -0.862313  0  2.077537  0  0  -0.762264  0  2.380395  0  0  -0.790719  0  2.353048  0  -1.457817  0  -0.385072  -0.742022  0  2.39848  0
O  O111  1  0.57331051  0.56065406  0.38633657  1  0  -0.861583  0  2.078956  0  0  -0.761546  0  2.382123  0  0  -0.7898  0  2.354522  0  -1.458399  0  -0.38481  -0.741399  0  2.400345  0
