# generated using pymatgen
data_CuH14C24Br2(NO2)2
_symmetry_space_group_name_H-M   'P 1'
_cell_length_a   4.64741995
_cell_length_b   12.61838259
_cell_length_c   18.95493834
_cell_angle_alpha   90.00025792
_cell_angle_beta   89.99965907
_cell_angle_gamma   94.71734881
_symmetry_Int_Tables_number   1
_chemical_formula_structural   CuH14C24Br2(NO2)2
_chemical_formula_sum   'Cu2 H28 C48 Br4 N4 O8'
_cell_volume   1107.80756922
_cell_formula_units_Z   2
loop_
 _symmetry_equiv_pos_site_id
 _symmetry_equiv_pos_as_xyz
  1  'x, y, z'
loop_
 _atom_site_type_symbol
 _atom_site_label
 _atom_site_symmetry_multiplicity
 _atom_site_fract_x
 _atom_site_fract_y
 _atom_site_fract_z
 _atom_site_occupancy
 _atom_site_hle17_ddec_charge
 _atom_site_hle17_ddec_spin_density
 _atom_site_hle17_ddec_sum_bond_order
 _atom_site_hle17_magmom
 _atom_site_hse06_10hf_ddec_charge
 _atom_site_hse06_10hf_ddec_spin_density
 _atom_site_hse06_10hf_ddec_sum_bond_order
 _atom_site_hse06_10hf_magmom
 _atom_site_hse06_ddec_charge
 _atom_site_hse06_ddec_spin_density
 _atom_site_hse06_ddec_sum_bond_order
 _atom_site_hse06_magmom
 _atom_site_pbe_cm5_charge
 _atom_site_pbe_ddec_charge
 _atom_site_pbe_ddec_spin_density
 _atom_site_pbe_ddec_sum_bond_order
 _atom_site_pbe_magmom
Cu  Cu0  1  0.00000133  0.00000080  0.99999956  1  0.903348  0.704121  1.750898  0.515  0.881276  0.780953  2.131775  0.626  0.966341  0.84753  2.069747  0.711  0.754861  0.829388  0.733608  2.175716  0.57
Cu  Cu1  1  0.49999902  0.50000136  0.50000040  1  0.903372  0.70414  1.750867  0.515  0.881264  0.780967  2.13177  0.626  0.966356  0.847533  2.069673  0.711  0.754835  0.829334  0.733624  2.175752  0.57
H  H2  1  0.83302350  0.80348663  0.17636146  1  0.094924  0.000203  0.957747  0.0  0.103286  0.000109  1.023008  0.0  0.10673  6.1e-05  1.020375  0.0  0.098654  0.100811  0.000159  1.0249  0.0
H  H3  1  0.66696929  0.69651139  0.67636200  1  0.094885  0.000203  0.957781  0.0  0.103266  0.000109  1.023017  0.0  0.106704  6.1e-05  1.020379  0.0  0.09863  0.100787  0.000159  1.024922  0.0
H  H4  1  0.16697166  0.19651209  0.82364041  1  0.094874  0.000204  0.957828  0.0  0.103257  0.000109  1.023071  0.0  0.106692  6.1e-05  1.020446  0.0  0.098637  0.100784  0.000159  1.024968  0.0
H  H5  1  0.33303047  0.30348895  0.32363987  1  0.094943  0.000202  0.957741  0.0  0.103296  0.000109  1.023008  0.0  0.106766  6.1e-05  1.020336  0.0  0.098656  0.100816  0.000159  1.02491  0.0
H  H6  1  0.75913136  0.72921979  0.29615235  1  0.09618  -4.5e-05  0.950546  0.0  0.108184  2.8e-05  1.009301  0.0  0.110924  1.6e-05  1.008404  0.0  0.102298  0.106195  3.9e-05  1.010102  0.0
H  H7  1  0.74087012  0.77078222  0.79615247  1  0.096146  -4.5e-05  0.950474  0.0  0.108148  2.8e-05  1.009239  0.0  0.110887  1.6e-05  1.008343  0.0  0.10227  0.10616  3.9e-05  1.010041  0.0
H  H8  1  0.24086683  0.27078372  0.70385110  1  0.096135  -4.8e-05  0.950486  0.0  0.108144  2.8e-05  1.009238  0.0  0.110884  1.6e-05  1.008341  0.0  0.102265  0.106155  3.9e-05  1.010041  0.0
H  H9  1  0.25914228  0.22921660  0.20384939  1  0.096152  -5e-05  0.950438  0.0  0.108157  2.8e-05  1.009207  0.0  0.110897  1.6e-05  1.008309  0.0  0.102251  0.106169  3.9e-05  1.010009  0.0
H  H10  1  0.13612367  0.95697476  0.33716937  1  0.07777  0.000146  0.997232  0.0  0.090227  0.000159  1.062006  0.0  0.092538  9.5e-05  1.061171  0.0  0.084355  0.088555  0.000227  1.062821  0.0
H  H11  1  0.36387654  0.54302540  0.83716442  1  0.077801  0.000143  0.997254  0.0  0.090272  0.000159  1.061991  0.0  0.092577  9.5e-05  1.061158  0.0  0.084401  0.088603  0.000227  1.062807  0.0
H  H12  1  0.86386532  0.04302552  0.66283091  1  0.077705  0.000143  0.9973  0.0  0.090166  0.000159  1.062071  0.0  0.092475  9.5e-05  1.061237  0.0  0.084345  0.088495  0.000227  1.062885  0.0
H  H13  1  0.63613312  0.45697022  0.16283375  1  0.077798  0.000144  0.997197  0.0  0.09025  0.000159  1.06198  0.0  0.092561  9.5e-05  1.061144  0.0  0.08438  0.088579  0.000227  1.062796  0.0
H  H14  1  0.21767734  0.03123641  0.21694546  1  0.09649  3.6e-05  0.951762  0.0  0.106978  3.7e-05  1.012808  0.0  0.110139  2.7e-05  1.010507  0.0  0.101361  0.104648  5.2e-05  1.014584  0.0
H  H15  1  0.28230290  0.46876066  0.71694293  1  0.096496  3.4e-05  0.951737  0.0  0.107015  3.7e-05  1.012736  0.0  0.110179  2.7e-05  1.010426  0.0  0.101362  0.104684  5.3e-05  1.014513  0.0
H  H16  1  0.78231136  0.96876228  0.78305324  1  0.096521  3.5e-05  0.951738  0.0  0.107003  3.7e-05  1.012791  0.0  0.110167  2.7e-05  1.010482  0.0  0.101379  0.104674  5.3e-05  1.014569  0.0
H  H17  1  0.71768781  0.53123724  0.28305577  1  0.096533  3.3e-05  0.951711  0.0  0.107031  3.7e-05  1.01273  0.0  0.110193  2.7e-05  1.010426  0.0  0.101361  0.104699  5.2e-05  1.014505  0.0
H  H18  1  0.52706244  0.63708000  0.37578019  1  0.095942  0.000933  0.955742  0.002  0.101785  0.000808  1.024172  0.001  0.104797  0.000591  1.020074  0.001  0.122202  0.099339  0.000969  1.027362  0.001
H  H19  1  0.97294241  0.86291538  0.87577917  1  0.095978  0.000932  0.955703  0.002  0.101823  0.000808  1.024151  0.001  0.104832  0.000591  1.020054  0.001  0.122239  0.099384  0.000969  1.027335  0.001
H  H20  1  0.47293129  0.36292269  0.62421957  1  0.095967  0.00093  0.955693  0.002  0.101808  0.000808  1.024134  0.001  0.104822  0.000591  1.020037  0.001  0.122218  0.099365  0.000969  1.027326  0.001
H  H21  1  0.02707214  0.13708345  0.12421794  1  0.095911  0.000937  0.955813  0.002  0.101755  0.000808  1.024239  0.001  0.104766  0.000591  1.02014  0.001  0.122206  0.099314  0.000969  1.027422  0.001
H  H22  1  0.26766791  0.94285991  0.44486309  1  0.098096  0.000187  0.981187  0.0  0.102515  -8.3e-05  1.05829  0.0  0.106374  -0.000102  1.054357  0.0  0.095549  0.09968  -6.2e-05  1.061188  0.0
H  H23  1  0.23233377  0.55713857  0.94486312  1  0.09816  0.000186  0.981148  0.0  0.102586  -8.3e-05  1.058234  0.0  0.106445  -0.000102  1.054301  0.0  0.09557  0.099752  -6.2e-05  1.061137  0.0
H  H24  1  0.73232138  0.05714196  0.55513666  1  0.09815  0.000183  0.981176  0.0  0.102538  -8.3e-05  1.058301  0.0  0.106397  -0.000102  1.054367  0.0  0.095559  0.099702  -6.2e-05  1.061201  0.0
H  H25  1  0.76766154  0.44286095  0.05513821  1  0.098082  0.000193  0.981126  0.0  0.102549  -8.3e-05  1.058179  0.0  0.106408  -0.000102  1.054245  0.0  0.095558  0.099717  -6.2e-05  1.061088  0.0
H  H26  1  0.31616415  0.67496872  0.58515275  1  0.10286  0.000952  0.957154  0.002  0.108805  0.000754  1.025341  0.002  0.11172  0.000506  1.021881  0.001  0.121561  0.106521  0.000983  1.027975  0.002
H  H27  1  0.18382704  0.82503218  0.08515303  1  0.102856  0.00095  0.957145  0.002  0.108815  0.000754  1.02533  0.002  0.111727  0.000506  1.021865  0.001  0.121575  0.106529  0.000983  1.02796  0.002
H  H28  1  0.68382930  0.32503238  0.41484700  1  0.102892  0.000946  0.957169  0.002  0.108839  0.000754  1.025337  0.002  0.111752  0.000505  1.021877  0.001  0.121578  0.106553  0.000983  1.027965  0.002
H  H29  1  0.81616885  0.17497052  0.91484567  1  0.102836  0.000956  0.957179  0.002  0.108791  0.000754  1.025366  0.002  0.111701  0.000506  1.021901  0.001  0.121563  0.106507  0.000983  1.028  0.002
C  C30  1  0.58593846  0.97320989  0.11749333  1  0.622499  -0.006078  3.938658  -0.007  0.584628  -0.000926  4.240226  -0.002  0.62223  -0.001305  4.23283  -0.002  0.197441  0.559276  -0.00047  4.244039  -0.002
C  C31  1  0.91407117  0.52679024  0.61749142  1  0.622531  -0.006074  3.938414  -0.007  0.5846  -0.000927  4.240041  -0.002  0.622201  -0.001304  4.232652  -0.002  0.197422  0.559242  -0.000471  4.243853  -0.002
C  C32  1  0.41406777  0.02679049  0.88250748  1  0.622396  -0.006065  3.938489  -0.007  0.584519  -0.000926  4.240078  -0.002  0.622119  -0.001305  4.232686  -0.002  0.197379  0.559168  -0.00047  4.243895  -0.002
C  C33  1  0.08593104  0.47321171  0.38250728  1  0.622433  -0.00607  3.938665  -0.007  0.584577  -0.000926  4.240283  -0.002  0.622178  -0.001305  4.232893  -0.002  0.197393  0.559216  -0.000471  4.244088  -0.002
C  C34  1  0.53296840  0.92333290  0.18928778  1  -0.060789  0.013838  3.735489  0.015  -0.036588  0.006709  3.960554  0.008  -0.04588  0.004873  3.984187  0.006  -0.019417  -0.030629  0.008317  3.944767  0.009
C  C35  1  0.96703243  0.57666366  0.68928593  1  -0.060785  0.01384  3.735426  0.015  -0.03656  0.006716  3.960498  0.008  -0.045854  0.004867  3.984131  0.006  -0.019383  -0.030591  0.008316  3.944706  0.009
C  C36  1  0.46702936  0.07666822  0.81071303  1  -0.060714  0.013832  3.735373  0.015  -0.03651  0.006713  3.960445  0.008  -0.045801  0.00487  3.984076  0.006  -0.019388  -0.030553  0.008317  3.944665  0.009
C  C37  1  0.03297350  0.42333513  0.31071488  1  -0.060594  0.013818  3.735268  0.015  -0.036565  0.006701  3.960611  0.008  -0.045858  0.004875  3.984248  0.006  -0.019361  -0.030589  0.008316  3.944807  0.009
C  C38  1  0.67911059  0.83645023  0.21176717  1  -0.065703  -0.004567  3.761061  -0.003  -0.089386  -0.001063  4.011247  -0.001  -0.087767  -0.001251  4.031093  -0.001  -0.087966  -0.090226  -0.000933  3.99781  -0.001
C  C39  1  0.82089017  0.66354885  0.71176633  1  -0.065648  -0.004569  3.760946  -0.003  -0.089344  -0.001069  4.011114  -0.001  -0.087709  -0.001246  4.030969  -0.001  -0.087946  -0.090186  -0.000932  3.99768  -0.001
C  C40  1  0.32088472  0.16354929  0.78823417  1  -0.065709  -0.004572  3.7611  -0.003  -0.089421  -0.001067  4.011298  -0.001  -0.087793  -0.001247  4.031152  -0.001  -0.08798  -0.090263  -0.000932  3.997869  -0.001
C  C41  1  0.17911777  0.33644915  0.28823554  1  -0.065745  -0.004541  3.760903  -0.003  -0.089382  -0.001059  4.01118  -0.001  -0.087775  -0.001252  4.031024  -0.001  -0.08798  -0.090225  -0.000932  3.997739  -0.001
C  C42  1  0.63476292  0.79431519  0.27910157  1  -0.118048  0.00258  3.734872  0.003  -0.136191  0.000369  3.982481  0.0  -0.141132  0.000517  4.004844  0.001  -0.091461  -0.132939  0.000283  3.967267  0.0
C  C43  1  0.86524281  0.70568435  0.77910132  1  -0.118031  0.002575  3.734755  0.003  -0.136171  0.000365  3.982349  0.0  -0.141113  0.000519  4.004712  0.001  -0.091385  -0.132917  0.000284  3.967141  0.0
C  C44  1  0.36523641  0.20568277  0.72090029  1  -0.117942  0.002585  3.734725  0.003  -0.136055  0.000368  3.982338  0.0  -0.140996  0.000517  4.0047  0.001  -0.09137  -0.132803  0.000284  3.967122  0.0
C  C45  1  0.13475926  0.29431679  0.22090002  1  -0.118041  0.002567  3.734774  0.003  -0.136151  0.000372  3.982383  0.0  -0.141095  0.000515  4.004756  0.001  -0.091391  -0.132898  0.000284  3.967175  0.0
C  C46  1  0.44295527  0.83834068  0.32622459  1  0.05085  -0.003508  3.792867  -0.002  0.063781  -0.000347  4.024558  0.0  0.064866  -0.000732  4.050089  0.0  -0.011517  0.063389  -6.3e-05  4.007137  0.0
C  C47  1  0.05704734  0.66165943  0.82622256  1  0.050876  -0.003498  3.792815  -0.002  0.063812  -0.000335  4.024498  0.0  0.064897  -0.000738  4.050026  0.0  -0.011591  0.063419  -6.3e-05  4.007084  0.0
C  C48  1  0.55704033  0.16166043  0.67377569  1  0.05081  -0.003506  3.79284  -0.002  0.063663  -0.000344  4.024632  0.0  0.064749  -0.000732  4.050162  0.0  -0.011573  0.063273  -6.3e-05  4.007211  0.0
C  C49  1  0.94296104  0.33834096  0.17377667  1  0.050878  -0.003473  3.792889  -0.002  0.063743  -0.000356  4.024662  0.0  0.064829  -0.000725  4.05019  0.0  -0.011541  0.063346  -6.3e-05  4.007253  0.0
C  C50  1  0.29373570  0.92417536  0.30268374  1  -0.119024  0.003604  3.771013  0.004  -0.139235  0.000973  4.021477  0.001  -0.14383  0.000909  4.044422  0.001  -0.097515  -0.136165  0.001075  4.00581  0.001
C  C51  1  0.20626455  0.57582062  0.80267964  1  -0.119185  0.003603  3.771151  0.004  -0.13938  0.00097  4.021601  0.001  -0.143974  0.00091  4.044554  0.001  -0.097607  -0.136312  0.001075  4.005934  0.001
C  C52  1  0.70625775  0.07582574  0.69731655  1  -0.118891  0.003603  3.771068  0.004  -0.139076  0.000973  4.021535  0.001  -0.143671  0.000908  4.044481  0.001  -0.097457  -0.136004  0.001075  4.005861  0.001
C  C53  1  0.79374467  0.42417263  0.19731906  1  -0.119048  0.003588  3.771096  0.004  -0.139226  0.000978  4.021554  0.001  -0.143827  0.000906  4.044509  0.001  -0.097562  -0.136156  0.001075  4.005885  0.001
C  C54  1  0.33700773  0.96578261  0.23532348  1  -0.061067  -0.002675  3.748776  -0.001  -0.082591  0.000143  3.992866  0.001  -0.081991  -0.000322  4.01353  0.0  -0.086153  -0.082817  0.000485  3.97892  0.001
C  C55  1  0.16298971  0.53421292  0.73532091  1  -0.060983  -0.00267  3.748798  -0.001  -0.082546  0.000139  3.992878  0.001  -0.081948  -0.000318  4.013541  0.0  -0.086074  -0.08277  0.000485  3.978935  0.001
C  C56  1  0.66298758  0.03421691  0.76467627  1  -0.061153  -0.002662  3.748717  -0.001  -0.082678  0.000141  3.992808  0.001  -0.082078  -0.000319  4.013476  0.0  -0.086203  -0.082904  0.000485  3.978865  0.001
C  C57  1  0.83701794  0.46578349  0.26467884  1  -0.06114  -0.002646  3.748718  -0.001  -0.08261  0.000146  3.992855  0.001  -0.082009  -0.000322  4.013515  0.0  -0.086088  -0.082832  0.000485  3.978901  0.001
C  C58  1  0.45348314  0.69157570  0.41504502  1  0.108938  -0.014049  3.612307  -0.01  0.071212  -0.003675  3.858634  -0.003  0.080981  -0.005328  3.874357  -0.004  0.058192  0.065018  -0.00243  3.848371  -0.002
C  C59  1  0.04652351  0.80842262  0.91504449  1  0.10898  -0.014042  3.612127  -0.01  0.071218  -0.003681  3.858522  -0.003  0.080989  -0.005317  3.874243  -0.004  0.058201  0.065022  -0.00243  3.848267  -0.002
C  C60  1  0.54651476  0.30842622  0.58495526  1  0.108953  -0.01404  3.61224  -0.01  0.071188  -0.003676  3.858609  -0.003  0.080953  -0.005328  3.874335  -0.004  0.058198  0.06499  -0.00243  3.848353  -0.002
C  C61  1  0.95348472  0.19157698  0.08495421  1  0.108952  -0.01403  3.612374  -0.01  0.071248  -0.003674  3.858665  -0.003  0.081016  -0.005327  3.874387  -0.004  0.058232  0.065058  -0.00243  3.848408  -0.002
C  C62  1  0.40072927  0.79662881  0.39856086  1  0.028674  0.009341  3.743587  0.01  0.048841  0.003421  3.974709  0.004  0.044171  0.003284  3.997849  0.004  0.003378  0.051456  0.003527  3.959232  0.004
C  C63  1  0.09927774  0.70336940  0.89856152  1  0.028703  0.009343  3.743383  0.01  0.048828  0.003426  3.974577  0.004  0.044157  0.003277  3.997717  0.004  0.003351  0.051444  0.003527  3.959104  0.004
C  C64  1  0.59926877  0.20337390  0.60143837  1  0.028677  0.009342  3.74349  0.01  0.048874  0.003422  3.974614  0.004  0.0442  0.003284  3.997757  0.004  0.003424  0.051485  0.003527  3.959142  0.004
C  C65  1  0.90073250  0.29662941  0.10143876  1  0.028641  0.00932  3.743516  0.01  0.0488  0.00342  3.97467  0.004  0.04413  0.003283  3.997809  0.004  0.003366  0.051421  0.003527  3.959202  0.004
C  C66  1  0.30765012  0.86005521  0.45376194  1  -0.113787  -0.014556  3.710909  -0.009  -0.149182  -0.00504  3.960281  -0.003  -0.146007  -0.005682  3.97715  -0.003  -0.08038  -0.15096  -0.004572  3.948867  -0.003
C  C67  1  0.19235768  0.63994256  0.95376175  1  -0.113958  -0.014555  3.711001  -0.009  -0.149321  -0.005047  3.960375  -0.003  -0.14615  -0.005668  3.977252  -0.003  -0.080419  -0.151101  -0.004572  3.948968  -0.003
C  C68  1  0.69234117  0.13994588  0.54623887  1  -0.113823  -0.014549  3.710798  -0.009  -0.149167  -0.00504  3.960151  -0.003  -0.145994  -0.005683  3.977025  -0.003  -0.080385  -0.150944  -0.004572  3.948737  -0.003
C  C69  1  0.80765041  0.36005623  0.04624012  1  -0.113768  -0.014546  3.710758  -0.009  -0.14919  -0.005039  3.960085  -0.003  -0.146016  -0.005681  3.976956  -0.003  -0.08039  -0.150973  -0.004571  3.948686  -0.003
C  C70  1  0.27367537  0.81575658  0.52062996  1  0.047981  0.009722  3.731496  0.011  0.067725  0.003527  3.998618  0.004  0.065822  0.003219  4.019741  0.004  -0.014587  0.06867  0.003893  3.984298  0.005
C  C71  1  0.22632803  0.68424398  0.02062818  1  0.04809  0.009719  3.73135  0.011  0.067795  0.003528  3.998538  0.004  0.065891  0.003214  4.01966  0.004  -0.014576  0.068736  0.003893  3.984219  0.005
C  C72  1  0.72631391  0.18424530  0.47937137  1  0.047996  0.009725  3.731443  0.011  0.067702  0.003526  3.998596  0.004  0.0658  0.00322  4.019719  0.004  -0.014606  0.068649  0.003892  3.984268  0.005
C  C73  1  0.77367619  0.31575718  0.97937263  1  0.047942  0.009703  3.731326  0.011  0.067702  0.003527  3.998457  0.004  0.065797  0.003218  4.019579  0.004  -0.014587  0.068645  0.003893  3.984147  0.005
C  C74  1  0.33305277  0.71116100  0.53311833  1  0.087968  -0.014005  3.665668  -0.01  0.047435  -0.003585  3.918185  -0.003  0.057451  -0.005306  3.933335  -0.004  0.044985  0.040285  -0.002263  3.909647  -0.002
C  C75  1  0.16694819  0.78883963  0.03311641  1  0.088025  -0.013994  3.665564  -0.01  0.047485  -0.003586  3.918116  -0.003  0.05751  -0.005299  3.933256  -0.004  0.045039  0.040345  -0.002263  3.909565  -0.002
C  C76  1  0.66694254  0.28883852  0.46688195  1  0.087875  -0.013996  3.665746  -0.01  0.047391  -0.003583  3.918233  -0.003  0.057407  -0.005307  3.933384  -0.004  0.044976  0.040237  -0.002262  3.909703  -0.002
C  C77  1  0.83305401  0.21116231  0.96688281  1  0.088005  -0.013998  3.665521  -0.01  0.047453  -0.003589  3.918056  -0.003  0.057476  -0.005303  3.933203  -0.004  0.045005  0.040317  -0.002262  3.909503  -0.002
Br  Br78  1  0.15597924  0.89775600  0.59808597  1  -0.047227  0.002755  1.285628  0.002  -0.034314  0.002021  1.527593  0.002  -0.039988  0.001429  1.523015  0.001  0.065607  -0.030397  0.002702  1.530955  0.003
Br  Br79  1  0.34401640  0.60224739  0.09808588  1  -0.047281  0.002756  1.285553  0.002  -0.03435  0.002022  1.527544  0.002  -0.040021  0.001428  1.522967  0.001  0.065592  -0.030437  0.002702  1.530917  0.003
Br  Br80  1  0.84401391  0.10224351  0.40191378  1  -0.047264  0.002753  1.285557  0.002  -0.034343  0.002021  1.527536  0.002  -0.040017  0.001428  1.522958  0.001  0.065585  -0.030426  0.002702  1.530896  0.003
Br  Br81  1  0.65597102  0.39775606  0.90191651  1  -0.047248  0.002759  1.28553  0.002  -0.03435  0.002022  1.527496  0.002  -0.040018  0.001428  1.522918  0.001  0.065573  -0.030433  0.002703  1.530871  0.003
N  N82  1  0.42098222  0.65130116  0.48015309  1  -0.244147  0.071344  3.332208  0.091  -0.189227  0.049782  3.617617  0.069  -0.216789  0.041079  3.636539  0.061  -0.332763  -0.172774  0.054613  3.606522  0.072
N  N83  1  0.07902513  0.84869757  0.98015315  1  -0.244232  0.071338  3.332223  0.091  -0.189288  0.049783  3.617638  0.069  -0.216846  0.041074  3.636563  0.061  -0.332801  -0.172846  0.054614  3.60655  0.072
N  N84  1  0.57901769  0.34869997  0.51984772  1  -0.244108  0.071342  3.332131  0.091  -0.18918  0.049781  3.617524  0.069  -0.216741  0.041079  3.636448  0.061  -0.332757  -0.172728  0.054613  3.606426  0.072
N  N85  1  0.92098110  0.15130281  0.01984555  1  -0.244062  0.071333  3.332137  0.091  -0.189157  0.049784  3.617546  0.069  -0.216715  0.041077  3.636473  0.061  -0.332767  -0.172713  0.054612  3.606462  0.072
O  O86  1  0.81295009  0.94285087  0.08641309  1  -0.613199  0.09274  2.129957  0.127  -0.590906  0.057046  2.428111  0.086  -0.634951  0.0424  2.422427  0.069  -0.329128  -0.560827  0.06706  2.431273  0.096
O  O87  1  0.68705304  0.55714505  0.58641371  1  -0.613221  0.092744  2.129929  0.127  -0.590916  0.057046  2.428081  0.086  -0.634965  0.042401  2.422389  0.069  -0.329142  -0.560832  0.067056  2.431244  0.096
O  O88  1  0.18705427  0.05715108  0.91358772  1  -0.613216  0.092749  2.129871  0.127  -0.590932  0.05705  2.428025  0.086  -0.634976  0.042402  2.422342  0.069  -0.329152  -0.560854  0.06706  2.431191  0.096
O  O89  1  0.31294227  0.44285447  0.41358657  1  -0.613232  0.092739  2.129976  0.127  -0.590876  0.057047  2.428079  0.086  -0.634929  0.0424  2.422394  0.069  -0.329113  -0.560787  0.067061  2.431237  0.096
O  O90  1  0.41962256  0.03806669  0.09433927  1  -0.617866  -0.000982  1.983859  0.002  -0.598422  -0.001645  2.243282  0.001  -0.623585  -0.00275  2.232635  0.0  -0.322144  -0.580806  -0.0004  2.250035  0.002
O  O91  1  0.08039057  0.46192978  0.59433492  1  -0.617896  -0.000987  1.983642  0.002  -0.59845  -0.001645  2.24312  0.001  -0.623617  -0.00275  2.232479  0.0  -0.322153  -0.580813  -0.0004  2.249841  0.002
O  O92  1  0.58038122  0.96193208  0.90566154  1  -0.617818  -0.000992  1.983746  0.002  -0.598368  -0.001646  2.243164  0.001  -0.62353  -0.002748  2.232518  0.0  -0.322104  -0.580753  -0.0004  2.249926  0.002
O  O93  1  0.91961423  0.53807456  0.40566220  1  -0.617885  -0.000991  1.983726  0.002  -0.598445  -0.001645  2.243155  0.001  -0.623613  -0.002749  2.232513  0.0  -0.322156  -0.580825  -0.0004  2.249907  0.002
