# generated using pymatgen
data_CuH16C8N2Cl
_symmetry_space_group_name_H-M   'P 1'
_cell_length_a   7.53743716
_cell_length_b   8.72932262
_cell_length_c   14.79031247
_cell_angle_alpha   90.00043327
_cell_angle_beta   89.99978072
_cell_angle_gamma   89.99986603
_symmetry_Int_Tables_number   1
_chemical_formula_structural   CuH16C8N2Cl
_chemical_formula_sum   'Cu4 H64 C32 N8 Cl4'
_cell_volume   973.15405799
_cell_formula_units_Z   4
loop_
 _symmetry_equiv_pos_site_id
 _symmetry_equiv_pos_as_xyz
  1  'x, y, z'
loop_
 _atom_site_type_symbol
 _atom_site_label
 _atom_site_symmetry_multiplicity
 _atom_site_fract_x
 _atom_site_fract_y
 _atom_site_fract_z
 _atom_site_occupancy
 _atom_site_pbe_bader_spin_density
 _atom_site_pbe_cm5_charge
 _atom_site_pbe_ddec_charge
 _atom_site_pbe_ddec_spin_density
 _atom_site_pbe_ddec_sum_bond_order
 _atom_site_pbe_magmom
Cu  Cu0  1  0.97960031  0.83844205  0.54217410  1  0  0.498196  0.487502  0  2.425907  0
Cu  Cu1  1  0.52040064  0.16155409  0.04217815  1  0  0.49825  0.487541  0  2.425955  0
Cu  Cu2  1  0.02039935  0.33845036  0.95782162  1  0  0.498244  0.487538  0  2.425926  0
Cu  Cu3  1  0.47959803  0.66155774  0.45782437  1  0  0.498205  0.487507  0  2.425978  0
H  H4  1  0.05721168  0.92684632  0.38319409  1  0  0.090371  0.143691  0  1.038027  0
H  H5  1  0.44279689  0.07314595  0.88319677  1  0  0.090347  0.143635  0  1.037848  0
H  H6  1  0.94279158  0.42686337  0.11680288  1  0  0.09035  0.143656  0  1.038037  0
H  H7  1  0.55721278  0.57315203  0.61680383  1  0  0.090341  0.143691  0  1.038061  0
H  H8  1  0.82230047  0.97165333  0.41217392  1  0  0.083903  0.127834  0  1.077649  0
H  H9  1  0.67770294  0.02833371  0.91217961  1  0  0.083903  0.127871  0  1.077672  0
H  H10  1  0.17770399  0.47166469  0.08782258  1  0  0.08388  0.127804  0  1.077798  0
H  H11  1  0.32230419  0.52833875  0.58782620  1  0  0.083899  0.127888  0  1.07774  0
H  H12  1  0.16071701  0.07454379  0.51329208  1  0  0.085609  0.092304  0  1.06367  0
H  H13  1  0.33928378  0.92545643  0.01329629  1  0  0.08557  0.092304  0  1.063715  0
H  H14  1  0.83929397  0.57455624  0.98670650  1  0  0.085585  0.092283  0  1.063818  0
H  H15  1  0.66071683  0.42545694  0.48670337  1  0  0.085558  0.09228  0  1.063772  0
H  H16  1  0.91157006  0.28312513  0.52149856  1  0  0.087576  0.078027  0  1.004353  0
H  H17  1  0.58842044  0.71686731  0.02150636  1  0  0.087555  0.078017  0  1.004325  0
H  H18  1  0.08842842  0.78313671  0.97849421  1  0  0.087531  0.077968  0  1.004349  0
H  H19  1  0.41157941  0.21687051  0.47849979  1  0  0.087547  0.077985  0  1.004359  0
H  H20  1  0.75884717  0.13268765  0.54557764  1  0  0.102377  0.091916  0  0.983473  0
H  H21  1  0.74114977  0.86730051  0.04558110  1  0  0.102353  0.091877  0  0.983374  0
H  H22  1  0.24115835  0.63270090  0.95441850  1  0  0.102356  0.09192  0  0.983432  0
H  H23  1  0.25884967  0.36730257  0.45442439  1  0  0.102373  0.091924  0  0.983437  0
H  H24  1  0.11296382  0.36928687  0.64155783  1  0  0.088839  0.067869  0  1.016952  0
H  H25  1  0.38703334  0.63071611  0.14156332  1  0  0.088808  0.067878  0  1.016868  0
H  H26  1  0.88703709  0.86928960  0.85843803  1  0  0.088814  0.067848  0  1.016902  0
H  H27  1  0.61296409  0.13070937  0.35844109  1  0  0.08885  0.067888  0  1.01693  0
H  H28  1  0.21098413  0.18352435  0.63943498  1  0  0.105807  0.095746  0  0.974301  0
H  H29  1  0.28901437  0.81647860  0.13944150  1  0  0.105836  0.095807  0  0.974277  0
H  H30  1  0.78901727  0.68352501  0.86056071  1  0  0.105803  0.095744  0  0.974301  0
H  H31  1  0.71098521  0.31647170  0.36056308  1  0  0.105828  0.095743  0  0.974295  0
H  H32  1  0.66438472  0.22280325  0.67863936  1  0  0.10347  0.083702  0  0.988567  0
H  H33  1  0.83561253  0.77719919  0.17864358  1  0  0.103452  0.083708  0  0.988614  0
H  H34  1  0.33561658  0.72280203  0.82135314  1  0  0.103466  0.083701  0  0.988658  0
H  H35  1  0.16438583  0.27719633  0.32136285  1  0  0.103449  0.083676  0  0.988633  0
H  H36  1  0.79162674  0.39252983  0.66396921  1  0  0.089573  0.065697  0  1.01264  0
H  H37  1  0.70837062  0.60747242  0.16397290  1  0  0.089601  0.065763  0  1.012661  0
H  H38  1  0.20837675  0.89253020  0.83602609  1  0  0.089617  0.065785  0  1.012616  0
H  H39  1  0.29162952  0.10746949  0.33603005  1  0  0.089578  0.065698  0  1.012689  0
H  H40  1  0.14044633  0.14247872  0.80036800  1  0  0.097112  0.046554  0  0.996338  0
H  H41  1  0.35954430  0.85752167  0.30037592  1  0  0.097086  0.046492  0  0.996318  0
H  H42  1  0.85954590  0.64248294  0.69962548  1  0  0.097101  0.046523  0  0.996374  0
H  H43  1  0.64045517  0.35751518  0.19963020  1  0  0.097136  0.04655  0  0.996364  0
H  H44  1  0.00955788  0.45864890  0.80738763  1  0  0.279553  0.214224  0  1.029772  0
H  H45  1  0.49043932  0.54135387  0.30739183  1  0  0.279508  0.21417  0  1.0298  0
H  H46  1  0.99043879  0.95865048  0.69260729  1  0  0.279511  0.214163  0  1.029768  0
H  H47  1  0.50955437  0.04134984  0.19260947  1  0  0.279521  0.214172  0  1.02975  0
H  H48  1  0.34661934  0.34059280  0.86510455  1  0  0.078907  0.116989  0  1.078787  0
H  H49  1  0.15337344  0.65939924  0.36510790  1  0  0.078868  0.116969  0  1.078858  0
H  H50  1  0.65337633  0.84060464  0.63489457  1  0  0.078869  0.116961  0  1.078907  0
H  H51  1  0.84662125  0.15939151  0.13489393  1  0  0.078864  0.116953  0  1.078888  0
H  H52  1  0.32203960  0.45289187  0.76549503  1  0  0.088481  0.127629  0  1.011578  0
H  H53  1  0.17796324  0.54710351  0.26549580  1  0  0.088475  0.127607  0  1.011568  0
H  H54  1  0.67796506  0.95290033  0.73450595  1  0  0.088467  0.127592  0  1.011585  0
H  H55  1  0.82203176  0.04709594  0.23450485  1  0  0.088461  0.127601  0  1.01156  0
H  H56  1  0.42571702  0.27079054  0.75961702  1  0  0.088916  0.127317  0  1.013865  0
H  H57  1  0.07427923  0.72920132  0.25962017  1  0  0.088929  0.127296  0  1.013825  0
H  H58  1  0.57428150  0.77080501  0.74038177  1  0  0.088915  0.127267  0  1.013825  0
H  H59  1  0.92571660  0.22919133  0.24038198  1  0  0.088935  0.12729  0  1.013857  0
H  H60  1  0.80992973  0.16774247  0.82402547  1  0  0.09798  0.073884  0  1.026374  0
H  H61  1  0.69006640  0.83225836  0.32403022  1  0  0.097949  0.073887  0  1.026348  0
H  H62  1  0.19006774  0.66774316  0.67596947  1  0  0.09794  0.073843  0  1.026373  0
H  H63  1  0.30992915  0.33225911  0.17597646  1  0  0.097976  0.073887  0  1.026358  0
H  H64  1  0.71872207  0.35445123  0.82803131  1  0  0.103436  0.095475  0  0.985689  0
H  H65  1  0.78127403  0.64555194  0.32803436  1  0  0.103467  0.095525  0  0.985746  0
H  H66  1  0.28127357  0.85444825  0.67196314  1  0  0.103457  0.095505  0  0.985793  0
H  H67  1  0.21872070  0.14555396  0.17196944  1  0  0.103466  0.09552  0  0.985736  0
C  C68  1  0.96173373  0.97025458  0.43226193  1  0  -0.259309  -0.398295  0  3.992701  0
C  C69  1  0.53828014  0.02973844  0.93226451  1  0  -0.259328  -0.398235  0  3.992187  0
C  C70  1  0.03827604  0.47026024  0.06773997  1  0  -0.259244  -0.398112  0  3.991913  0
C  C71  1  0.46172832  0.52974639  0.56774266  1  0  -0.259233  -0.398279  0  3.992267  0
C  C72  1  0.01759282  0.05796642  0.50569126  1  0  -0.169128  -0.119877  0  4.052727  0
C  C73  1  0.48240272  0.94202682  0.00569865  1  0  -0.169053  -0.120002  0  4.052524  0
C  C74  1  0.98239964  0.55798785  0.99429711  1  0  -0.169106  -0.120019  0  4.052385  0
C  C75  1  0.51760315  0.44202428  0.49430041  1  0  -0.16915  -0.120052  0  4.052575  0
C  C76  1  0.89790364  0.16870295  0.55393509  1  0  -0.075695  -0.064224  0  3.937155  0
C  C77  1  0.60209457  0.83129104  0.05394000  1  0  -0.07562  -0.063972  0  3.936884  0
C  C78  1  0.10209913  0.66871066  0.94606122  1  0  -0.07564  -0.064093  0  3.937018  0
C  C79  1  0.39790497  0.33129272  0.44606600  1  0  -0.075642  -0.064033  0  3.937089  0
C  C80  1  0.10560725  0.25235016  0.67100928  1  0  -0.072526  -0.116867  0  3.873513  0
C  C81  1  0.39438968  0.74765090  0.17101529  1  0  -0.072569  -0.117071  0  3.873719  0
C  C82  1  0.89439264  0.75235364  0.82898537  1  0  -0.072512  -0.116872  0  3.873435  0
C  C83  1  0.60561141  0.24764381  0.32898763  1  0  -0.072546  -0.116831  0  3.873469  0
C  C84  1  0.79358501  0.27571224  0.69369853  1  0  -0.073672  -0.089535  0  3.945253  0
C  C85  1  0.70641345  0.72428924  0.19370344  1  0  -0.073788  -0.08974  0  3.945518  0
C  C86  1  0.20641482  0.77570996  0.80629690  1  0  -0.073736  -0.089743  0  3.945558  0
C  C87  1  0.29358505  0.22428822  0.30630140  1  0  -0.07367  -0.089538  0  3.945461  0
C  C88  1  0.14099421  0.25996189  0.77277791  1  0  -0.00617  0.159547  0  3.853745  0
C  C89  1  0.35900327  0.74003816  0.27278259  1  0  -0.006111  0.159749  0  3.853623  0
C  C90  1  0.85900434  0.75996416  0.72721949  1  0  -0.006134  0.159586  0  3.853729  0
C  C91  1  0.64099386  0.24003315  0.22722164  1  0  -0.006191  0.159559  0  3.853832  0
C  C92  1  0.31861143  0.33547857  0.79226364  1  0  -0.248607  -0.421018  0  3.911632  0
C  C93  1  0.18138722  0.66451713  0.29226561  1  0  -0.24858  -0.421005  0  3.91155  0
C  C94  1  0.68138558  0.83548784  0.70773545  1  0  -0.248578  -0.420944  0  3.911578  0
C  C95  1  0.81861144  0.16450809  0.20773557  1  0  -0.248573  -0.420949  0  3.911597  0
C  C96  1  0.82064553  0.28355080  0.79534344  1  0  -0.078437  -0.058946  0  3.913262  0
C  C97  1  0.67934950  0.71644966  0.29534768  1  0  -0.078413  -0.059008  0  3.913344  0
C  C98  1  0.17935295  0.78355073  0.70465068  1  0  -0.07842  -0.05896  0  3.913284  0
C  C99  1  0.32064637  0.21644960  0.20465577  1  0  -0.078466  -0.058996  0  3.913224  0
N  N100  1  0.93265246  0.18242969  0.65174573  1  0  -0.341078  -0.137882  0  3.44535  0
N  N101  1  0.56734367  0.81757127  0.15175065  1  0  -0.341049  -0.137937  0  3.445486  0
N  N102  1  0.06735028  0.68243279  0.84824928  1  0  -0.341112  -0.137847  0  3.445361  0
N  N103  1  0.43265192  0.31756935  0.34825529  1  0  -0.341074  -0.138003  0  3.445287  0
N  N104  1  0.99728364  0.34252558  0.82117112  1  0  -0.511242  -0.337971  0  3.529952  0
N  N105  1  0.50271119  0.65747750  0.32117543  1  0  -0.511177  -0.337772  0  3.529703  0
N  N106  1  0.00271336  0.84252439  0.67882462  1  0  -0.511175  -0.337752  0  3.529665  0
N  N107  1  0.49728484  0.15747561  0.17882775  1  0  -0.511227  -0.337815  0  3.5298  0
Cl  Cl108  1  0.95340618  0.59072048  0.51118098  1  0  -0.334246  -0.551325  0  1.312676  0
Cl  Cl109  1  0.54659898  0.40927412  0.01118340  1  0  -0.334262  -0.551341  0  1.312606  0
Cl  Cl110  1  0.04659680  0.09073257  0.98881835  1  0  -0.334245  -0.551329  0  1.312661  0
Cl  Cl111  1  0.45341095  0.90927592  0.48882024  1  0  -0.334224  -0.55131  0  1.312742  0
