# generated using pymatgen
data_Zn4H8C40N4Cl16O13
_symmetry_space_group_name_H-M   'P 1'
_cell_length_a   23.72250401
_cell_length_b   23.72412837
_cell_length_c   23.72241377
_cell_angle_alpha   67.15516012
_cell_angle_beta   72.19544028
_cell_angle_gamma   107.81514181
_symmetry_Int_Tables_number   1
_chemical_formula_structural   Zn4H8C40N4Cl16O13
_chemical_formula_sum   'Zn8 H16 C80 N8 Cl32 O26'
_cell_volume   10250.94715485
_cell_formula_units_Z   2
loop_
 _symmetry_equiv_pos_site_id
 _symmetry_equiv_pos_as_xyz
  1  'x, y, z'
loop_
 _atom_site_type_symbol
 _atom_site_label
 _atom_site_symmetry_multiplicity
 _atom_site_fract_x
 _atom_site_fract_y
 _atom_site_fract_z
 _atom_site_occupancy
 _atom_site_pbe_bader_charge
 _atom_site_pbe_bader_spin_density
 _atom_site_pbe_cm5_charge
 _atom_site_pbe_ddec_charge
 _atom_site_pbe_ddec_spin_density
 _atom_site_pbe_ddec_sum_bond_order
 _atom_site_pbe_magmom
Zn  Zn0  1  0.05376510  0.95356846  0.48782445  1  1.319605  0  0.677938  0.976261  0  2.343383  0
Zn  Zn1  1  0.05377235  0.10017487  0.45842008  1  1.316815  0  0.677914  0.976396  0  2.343303  0
Zn  Zn2  1  0.94623671  0.98780892  0.45356534  1  1.31957  0  0.677879  0.976088  0  2.343711  0
Zn  Zn3  1  0.94622111  0.95842809  0.60017867  1  1.316975  0  0.677859  0.976427  0  2.343465  0
Zn  Zn4  1  0.94138574  0.54156034  0.01221100  1  1.318069  0  0.677806  0.976252  0  2.343712  0
Zn  Zn5  1  0.05861539  0.51218470  0.04158829  1  1.318413  0  0.677953  0.97633  0  2.343394  0
Zn  Zn6  1  0.94139385  0.39981578  0.04640784  1  1.319563  0  0.677853  0.976195  0  2.343632  0
Zn  Zn7  1  0.05860751  0.54641986  0.89981858  1  1.319569  0  0.677826  0.97619  0  2.343538  0
H  H8  1  0.91514910  0.84152029  0.75012710  1  0.477514  0  0.290713  0.299524  0  1.001594  0
H  H9  1  0.90859856  0.80315897  0.83157468  1  0.428045  0  0.297568  0.285673  0  0.964215  0
H  H10  1  0.09158782  0.66525959  0.74989631  1  0.469976  0  0.290516  0.298999  0  1.002103  0
H  H11  1  0.13468710  0.74016162  0.66846970  1  0.431677  0  0.297562  0.285612  0  0.964493  0
H  H12  1  0.90834165  0.65846538  0.92637139  1  0.473492  0  0.290757  0.299617  0  1.001438  0
H  H13  1  0.86525761  0.69682804  0.89455715  1  0.42992  0  0.297588  0.285718  0  0.964351  0
H  H14  1  0.08484424  0.83475402  0.57366129  1  0.478708  0  0.290641  0.299365  0  1.001745  0
H  H15  1  0.09136682  0.75985003  0.60546457  1  0.425753  0  0.297558  0.285616  0  0.964511  0
H  H16  1  0.91514005  0.07366132  0.33471609  1  0.475706  0  0.290604  0.299138  0  1.001887  0
H  H17  1  0.90860900  0.10547848  0.25981105  1  0.424864  0  0.297622  0.285658  0  0.96428  0
H  H18  1  0.09161352  0.42635858  0.15852487  1  0.473829  0  0.290595  0.299099  0  1.001963  0
H  H19  1  0.13471343  0.39455393  0.19686483  1  0.429798  0  0.297565  0.285654  0  0.964327  0
H  H20  1  0.90837891  0.24990615  0.16524804  1  0.469158  0  0.290843  0.299712  0  1.00134  0
H  H21  1  0.86528376  0.16846977  0.24014200  1  0.43134  0  0.297513  0.2855  0  0.964641  0
H  H22  1  0.08485190  0.25010698  0.34152857  1  0.477624  0  0.290829  0.299742  0  1.001251  0
H  H23  1  0.09139306  0.33154517  0.30319039  1  0.428513  0  0.297577  0.285745  0  0.964207  0
C  C24  1  0.17534337  0.08764731  0.41232365  1  1.587606  0  0.223698  0.62968  0  4.160348  0
C  C25  1  0.00000138  0.13930349  0.36068809  1  1.484504  0  0.22458  0.629422  0  4.098893  0
C  C26  1  0.99999505  0.90908350  0.40912598  1  1.576181  0  0.225604  0.631625  0  4.159447  0
C  C27  1  0.82465531  0.91232355  0.58762777  1  1.58672  0  0.223746  0.629756  0  4.160963  0
C  C28  1  0.00000543  0.86071926  0.63931623  1  1.482432  0  0.225097  0.629717  0  4.099135  0
C  C29  1  0.00000169  0.09091072  0.59087589  1  1.586194  0  0.225606  0.631753  0  4.15949  0
C  C30  1  0.00003227  0.58766084  0.08768878  1  1.642402  0  0.22371  0.629512  0  4.161199  0
C  C31  1  0.99999856  0.36071029  0.13931434  1  1.481516  0  0.224648  0.629341  0  4.099312  0
C  C32  1  0.81820605  0.40909167  0.09090513  1  1.611793  0  0.225471  0.6318  0  4.159344  0
C  C33  1  0.00001501  0.41233653  0.91231951  1  1.654877  0  0.223867  0.629929  0  4.159711  0
C  C34  1  0.99997741  0.63928770  0.86071276  1  1.481115  0  0.224559  0.629086  0  4.099406  0
C  C35  1  0.18178768  0.59086055  0.90914572  1  1.614075  0  0.2257  0.63189  0  4.158473  0
C  C36  1  0.99998455  0.80465487  0.69537030  1  -0.026994  0  -0.039142  -0.249224  0  3.950103  0
C  C37  1  0.99997766  0.69534232  0.80466431  1  -0.00694  0  -0.039063  -0.248891  0  3.949797  0
C  C38  1  0.95634948  0.77729173  0.76703645  1  0.458818  0  0.080398  0.17619  0  4.049019  0
C  C39  1  0.04429056  0.72338448  0.73299548  1  0.442351  0  0.080559  0.176167  0  4.049622  0
C  C40  1  0.95566368  0.72269552  0.82094288  1  0.441052  0  0.080233  0.175707  0  4.049181  0
C  C41  1  0.04361887  0.77662214  0.67908894  1  0.444206  0  0.080636  0.176276  0  4.049548  0
C  C42  1  0.99999741  0.19535430  0.30464890  1  -0.026767  0  -0.039172  -0.249276  0  3.949707  0
C  C43  1  0.99999273  0.30465636  0.19536295  1  -0.003331  0  -0.039096  -0.249086  0  3.949957  0
C  C44  1  0.95636085  0.17908425  0.27661000  1  0.383443  0  0.08061  0.176333  0  4.049153  0
C  C45  1  0.04430497  0.32093279  0.22272926  1  0.383668  0  0.080386  0.1761  0  4.049152  0
C  C46  1  0.95568081  0.23299614  0.22338437  1  0.499038  0  0.080477  0.176113  0  4.049159  0
C  C47  1  0.04362872  0.26701978  0.27731102  1  0.518295  0  0.080316  0.175917  0  4.049237  0
C  C48  1  0.00003315  0.62573351  0.12574694  1  0.012011  0  -0.016538  -0.117259  0  3.920471  0
C  C49  1  0.98672330  0.68224593  0.10498470  1  0.082086  0  0.013447  0.072276  0  4.032922  0
C  C50  1  0.98615956  0.71745322  0.14075205  1  0.179132  0  0.014218  0.049968  0  4.006079  0
C  C51  1  0.99999788  0.69725015  0.19728811  1  0.113906  0  -0.003946  0.047743  0  4.085175  0
C  C52  1  0.01384952  0.64073133  0.21749275  1  0.196875  0  0.014465  0.050368  0  4.005288  0
C  C53  1  0.01332916  0.60497971  0.18227119  1  0.114025  0  0.013476  0.072554  0  4.033666  0
C  C54  1  0.99997890  0.73292604  0.23297392  1  -0.208478  0  -0.039028  -0.067911  0  4.124337  0
C  C55  1  0.99998898  0.76376997  0.26378316  1  0.003791  0  -0.040979  -0.066854  0  4.12327  0
C  C56  1  0.99999375  0.79945285  0.29945690  1  0.246698  0  -0.003979  0.045615  0  4.086317  0
C  C57  1  0.94044450  0.80000125  0.33522223  1  0.090875  0  0.015382  0.051444  0  4.004865  0
C  C58  1  0.94043568  0.83508072  0.37113150  1  0.132501  0  0.014414  0.073872  0  4.032997  0
C  C59  1  0.99998931  0.87100011  0.37104020  1  0.100942  0  -0.018748  -0.121219  0  3.920082  0
C  C60  1  0.05954557  0.87109448  0.33511640  1  0.130822  0  0.014254  0.073572  0  4.033469  0
C  C61  1  0.05953984  0.83520504  0.30002890  1  0.090474  0  0.015311  0.051462  0  4.005463  0
C  C62  1  0.00001540  0.37426144  0.87425686  1  -0.001992  0  -0.016347  -0.117213  0  3.920204  0
C  C63  1  0.01332234  0.40831710  0.80443142  1  0.106865  0  0.013286  0.072218  0  4.033277  0
C  C64  1  0.01385747  0.37309225  0.76868345  1  0.204077  0  0.014323  0.05019  0  4.00583  0
C  C65  1  0.00000275  0.30271879  0.80273723  1  0.087492  0  -0.003995  0.047505  0  4.085545  0
C  C66  1  0.98615721  0.26868093  0.87311625  1  0.204023  0  0.014567  0.050517  0  4.005595  0
C  C67  1  0.98670275  0.30443888  0.90833147  1  0.106429  0  0.013322  0.072142  0  4.034293  0
C  C68  1  0.99999756  0.26704005  0.76706046  1  -0.209677  0  -0.038996  -0.067708  0  4.124352  0
C  C69  1  0.99999424  0.23621586  0.73622753  1  0.004377  0  -0.040888  -0.06689  0  4.122838  0
C  C70  1  0.99999756  0.20054365  0.70054419  1  0.175823  0  -0.003949  0.045848  0  4.086354  0
C  C71  1  0.05954535  0.22432463  0.64044895  1  0.12854  0  0.015332  0.051311  0  4.005012  0
C  C72  1  0.05955365  0.18843715  0.60535177  1  0.098247  0  0.014283  0.073704  0  4.033324  0
C  C73  1  0.99999570  0.12899218  0.62896193  1  0.162506  0  -0.018573  -0.121166  0  3.920297  0
C  C74  1  0.94043801  0.10536445  0.68840981  1  0.097802  0  0.014414  0.074039  0  4.032896  0
C  C75  1  0.94044797  0.14045376  0.72430699  1  0.128527  0  0.015182  0.05107  0  4.005129  0
C  C76  1  0.74203504  0.37100828  0.12898587  1  0.094516  0  -0.018699  -0.121493  0  3.920193  0
C  C77  1  0.70621191  0.39463742  0.16491477  1  0.177805  0  0.01428  0.073862  0  4.033186  0
C  C78  1  0.63522549  0.35954833  0.19998988  1  0.039581  0  0.015174  0.05119  0  4.005432  0
C  C79  1  0.59890559  0.29944626  0.20054168  1  0.189435  0  -0.003874  0.045652  0  4.086626  0
C  C80  1  0.63522672  0.27567841  0.16475855  1  0.111209  0  0.015173  0.051131  0  4.005429  0
C  C81  1  0.70621156  0.31156553  0.12886621  1  0.124199  0  0.014443  0.074015  0  4.03318  0
C  C82  1  0.52754580  0.26376777  0.23620995  1  -0.009235  0  -0.040971  -0.066786  0  4.123452  0
C  C83  1  0.46589233  0.23295973  0.26700573  1  -0.141837  0  -0.039144  -0.068123  0  4.125144  0
C  C84  1  0.39453471  0.19728451  0.30268808  1  0.073256  0  -0.00384  0.0481  0  4.085488  0
C  C85  1  0.35819278  0.23131417  0.28250388  1  0.203766  0  0.014684  0.050664  0  4.00502  0
C  C86  1  0.28722077  0.19555309  0.31772116  1  0.023229  0  0.013295  0.072099  0  4.034105  0
C  C87  1  0.25147449  0.12573258  0.37423238  1  0.146116  0  -0.0164  -0.117188  0  3.92032  0
C  C88  1  0.28725391  0.09168546  0.39497001  1  0.066902  0  0.013392  0.07239  0  4.033447  0
C  C89  1  0.35822530  0.12691814  0.35920246  1  0.222105  0  0.014124  0.04958  0  4.006378  0
C  C90  1  0.25795943  0.62894304  0.87104994  1  0.094129  0  -0.018728  -0.121004  0  3.919777  0
C  C91  1  0.29379556  0.66487412  0.89467179  1  0.176514  0  0.014329  0.073721  0  4.033364  0
C  C92  1  0.36478349  0.69997086  0.85956751  1  0.040907  0  0.015313  0.051258  0  4.005126  0
C  C93  1  0.40109269  0.70053382  0.79946020  1  0.189956  0  -0.003946  0.045512  0  4.086346  0
C  C94  1  0.36476026  0.66474995  0.77569125  1  0.110986  0  0.015142  0.051183  0  4.005417  0
C  C95  1  0.29377438  0.62883935  0.81159270  1  0.124392  0  0.014509  0.073992  0  4.032738  0
C  C96  1  0.47245731  0.73621810  0.76376838  1  -0.008897  0  -0.040919  -0.06663  0  4.123861  0
C  C97  1  0.53409974  0.76702438  0.73294208  1  -0.141865  0  -0.039064  -0.068045  0  4.125196  0
C  C98  1  0.60546557  0.80270261  0.69726786  1  0.072728  0  -0.004038  0.047718  0  4.084725  0
C  C99  1  0.64180561  0.78250689  0.73130355  1  0.203441  0  0.01466  0.050717  0  4.00534  0
C  C100  1  0.71277937  0.81773305  0.69553404  1  0.022356  0  0.013364  0.072094  0  4.033755  0
C  C101  1  0.74851954  0.87423882  0.62571138  1  0.14664  0  -0.016537  -0.117201  0  3.920595  0
C  C102  1  0.71274334  0.89498997  0.59166350  1  0.066362  0  0.013383  0.072405  0  4.033815  0
C  C103  1  0.64177346  0.85922271  0.62689562  1  0.220911  0  0.01432  0.050024  0  4.006317  0
N  N104  1  0.91121787  0.79979126  0.78942802  1  -1.225557  0  -0.610635  -0.616266  0  3.335999  0
N  N105  1  0.08916986  0.70064414  0.71060340  1  -1.22571  0  -0.610477  -0.615711  0  3.337228  0
N  N106  1  0.91076961  0.70019386  0.88857308  1  -1.227359  0  -0.610649  -0.616276  0  3.336225  0
N  N107  1  0.08874740  0.79936510  0.61146618  1  -1.225763  0  -0.610695  -0.61619  0  3.337085  0
N  N108  1  0.91122454  0.11146418  0.29933973  1  -1.222862  0  -0.610643  -0.615938  0  3.336664  0
N  N109  1  0.08919421  0.38855622  0.20024363  1  -1.227565  0  -0.610412  -0.615785  0  3.336654  0
N  N110  1  0.91079825  0.21061446  0.20063066  1  -1.225716  0  -0.610817  -0.616374  0  3.336544  0
N  N111  1  0.08876359  0.28940540  0.29981325  1  -1.226221  0  -0.610767  -0.61652  0  3.336103  0
Cl  Cl112  1  0.97366220  0.71075756  0.03396907  1  -0.158441  0  0.008782  -0.036054  0  1.562414  0
Cl  Cl113  1  0.02640714  0.53398424  0.21078501  1  -0.159145  0  0.008884  -0.035974  0  1.562494  0
Cl  Cl114  1  0.03063165  0.61655912  0.28588131  1  -0.158409  0  0.008941  -0.040454  0  1.537874  0
Cl  Cl115  1  0.96931216  0.78578475  0.11661870  1  -0.158444  0  0.009124  -0.04017  0  1.538058  0
Cl  Cl116  1  0.86860475  0.75682000  0.33417532  1  -0.157157  0  0.009629  -0.039708  0  1.53768  0
Cl  Cl117  1  0.13133967  0.83411941  0.25687786  1  -0.156542  0  0.009794  -0.039532  0  1.538406  0
Cl  Cl118  1  0.13369354  0.91730498  0.33134954  1  -0.157141  0  0.008112  -0.034817  0  1.548918  0
Cl  Cl119  1  0.86628613  0.83130116  0.41734796  1  -0.157754  0  0.008107  -0.034835  0  1.548729  0
Cl  Cl120  1  0.02640391  0.49239365  0.76283899  1  -0.160499  0  0.008819  -0.035996  0  1.562421  0
Cl  Cl121  1  0.97362594  0.26286980  0.99240103  1  -0.160619  0  0.008897  -0.035841  0  1.563032  0
Cl  Cl122  1  0.96932880  0.18350519  0.91409813  1  -0.160224  0  0.008921  -0.040446  0  1.537828  0
Cl  Cl123  1  0.03067902  0.41405457  0.68350467  1  -0.160882  0  0.008989  -0.040372  0  1.538014  0
Cl  Cl124  1  0.13136945  0.29719450  0.61182532  1  -0.158659  0  0.009617  -0.039696  0  1.537941  0
Cl  Cl125  1  0.86860029  0.11182090  0.79716420  1  -0.158429  0  0.00963  -0.039643  0  1.537665  0
Cl  Cl126  1  0.86628167  0.03501485  0.71631387  1  -0.156497  0  0.008121  -0.034855  0  1.548702  0
Cl  Cl127  1  0.13370995  0.21635580  0.53500704  1  -0.156237  0  0.00817  -0.03473  0  1.548828  0
Cl  Cl128  1  0.74864284  0.46497694  0.16872764  1  -0.156162  0  0.008224  -0.034724  0  1.549113  0
Cl  Cl129  1  0.74864804  0.28365421  0.08262742  1  -0.15161  0  0.008175  -0.034745  0  1.548791  0
Cl  Cl130  1  0.59099802  0.20283211  0.16575450  1  -0.156996  0  0.0097  -0.039562  0  1.537839  0
Cl  Cl131  1  0.59098917  0.38818623  0.24315959  1  -0.157346  0  0.009759  -0.039492  0  1.538306  0
Cl  Cl132  1  0.40237720  0.31649001  0.21413985  1  -0.161053  0  0.008959  -0.040444  0  1.537399  0
Cl  Cl133  1  0.40245189  0.08596284  0.38333998  1  -0.157973  0  0.009006  -0.04023  0  1.537764  0
Cl  Cl134  1  0.24478290  0.00760312  0.46596785  1  -0.157616  0  0.008783  -0.036062  0  1.562314  0
Cl  Cl135  1  0.24470579  0.23710463  0.28921960  1  -0.155328  0  0.008878  -0.035895  0  1.562724  0
Cl  Cl136  1  0.25138017  0.66866581  0.96503457  1  -0.155863  0  0.008195  -0.034744  0  1.548913  0
Cl  Cl137  1  0.25131713  0.58260180  0.78368416  1  -0.151533  0  0.008107  -0.034862  0  1.548798  0
Cl  Cl138  1  0.40897233  0.66577523  0.70282522  1  -0.156817  0  0.009695  -0.039595  0  1.538008  0
Cl  Cl139  1  0.40903586  0.74314582  0.88820422  1  -0.157599  0  0.009659  -0.039611  0  1.538076  0
Cl  Cl140  1  0.59762429  0.71414799  0.81646970  1  -0.160463  0  0.008958  -0.040442  0  1.537752  0
Cl  Cl141  1  0.59754613  0.88336025  0.58594378  1  -0.157026  0  0.008973  -0.040348  0  1.538203  0
Cl  Cl142  1  0.75521711  0.96599278  0.50759027  1  -0.157065  0  0.008868  -0.03601  0  1.562399  0
Cl  Cl143  1  0.75529710  0.78924138  0.73709679  1  -0.154915  0  0.008837  -0.035991  0  1.562744  0
O  O144  1  0.00000141  0.99998926  0.49999536  1  -1.229465  0  -0.580138  -1.033209  0  2.5591  0
O  O145  1  0.14682790  0.03027957  0.41628469  1  -1.159784  0  -0.311079  -0.543451  0  2.340665  0
O  O146  1  0.04734356  0.15513175  0.37691594  1  -1.181049  0  -0.317153  -0.556011  0  2.371422  0
O  O147  1  0.97999175  0.95412338  0.39294583  1  -1.150894  0  -0.311574  -0.541361  0  2.323852  0
O  O148  1  0.14683709  0.11651559  0.43688503  1  -1.159018  0  -0.31134  -0.543632  0  2.339524  0
O  O149  1  0.01999687  0.89292813  0.45415196  1  -1.151647  0  -0.311223  -0.540977  0  2.325606  0
O  O150  1  0.95267230  0.07574038  0.39217474  1  -1.183534  0  -0.317361  -0.55597  0  2.371457  0
O  O151  1  0.85316185  0.91628351  0.53025241  1  -1.159286  0  -0.311069  -0.543407  0  2.34075  0
O  O152  1  0.95266655  0.87694783  0.65514615  1  -1.179715  0  -0.317531  -0.556211  0  2.371114  0
O  O153  1  0.85316321  0.93689239  0.61649419  1  -1.158847  0  -0.311378  -0.543849  0  2.34053  0
O  O154  1  0.04735248  0.89223135  0.57576845  1  -1.183561  0  -0.317465  -0.556148  0  2.372156  0
O  O155  1  0.02003271  0.12707480  0.52584273  1  -1.155824  0  -0.311227  -0.541134  0  2.325533  0
O  O156  1  0.97996012  0.02586163  0.62706371  1  -1.154481  0  -0.311519  -0.541482  0  2.324155  0
O  O157  1  0.00000389  0.49999924  0.00000496  1  -1.232578  0  -0.579983  -1.033048  0  2.559159  0
O  O158  1  0.94660107  0.56308550  0.08374314  1  -1.154937  0  -0.311294  -0.543671  0  2.340193  0
O  O159  1  0.03204042  0.42425897  0.12310832  1  -1.180607  0  -0.317396  -0.556158  0  2.371555  0
O  O160  1  0.84707637  0.37292340  0.10704367  1  -1.15218  0  -0.311316  -0.541295  0  2.325181  0
O  O161  1  0.05344428  0.58370581  0.06313836  1  -1.155114  0  -0.311124  -0.543361  0  2.340867  0
O  O162  1  0.84707000  0.47413374  0.04589693  1  -1.169451  0  -0.311473  -0.541342  0  2.324488  0
O  O163  1  0.96795326  0.34487679  0.10779209  1  -1.181526  0  -0.317185  -0.555827  0  2.371537  0
O  O164  1  0.94658397  0.38346378  0.96969170  1  -1.161171  0  -0.3113  -0.5436  0  2.339807  0
O  O165  1  0.03204811  0.60779865  0.84487040  1  -1.181662  0  -0.317168  -0.555685  0  2.371627  0
O  O166  1  0.05342803  0.46970696  0.88346824  1  -1.161416  0  -0.311275  -0.543673  0  2.340128  0
O  O167  1  0.96789966  0.62303675  0.92428249  1  -1.179889  0  -0.317279  -0.556071  0  2.371499  0
O  O168  1  0.15292493  0.54584322  0.97417265  1  -1.170341  0  -0.311361  -0.541291  0  2.325331  0
O  O169  1  0.15291938  0.60703072  0.87296313  1  -1.153887  0  -0.311641  -0.541585  0  2.323556  0
