# generated using pymatgen
data_NiH27C40N5O7
_symmetry_space_group_name_H-M   'P 1'
_cell_length_a   10.19608750
_cell_length_b   11.52255757
_cell_length_c   16.97211507
_cell_angle_alpha   82.70261522
_cell_angle_beta   73.07961757
_cell_angle_gamma   66.21566166
_symmetry_Int_Tables_number   1
_chemical_formula_structural   NiH27C40N5O7
_chemical_formula_sum   'Ni2 H54 C80 N10 O14'
_cell_volume   1745.52756854
_cell_formula_units_Z   2
loop_
 _symmetry_equiv_pos_site_id
 _symmetry_equiv_pos_as_xyz
  1  'x, y, z'
loop_
 _atom_site_type_symbol
 _atom_site_label
 _atom_site_symmetry_multiplicity
 _atom_site_fract_x
 _atom_site_fract_y
 _atom_site_fract_z
 _atom_site_occupancy
 _atom_site_pbe_bader_charge
 _atom_site_pbe_bader_spin_density
 _atom_site_pbe_cm5_charge
 _atom_site_pbe_ddec_charge
 _atom_site_pbe_ddec_spin_density
 _atom_site_pbe_ddec_sum_bond_order
 _atom_site_pbe_magmom
Ni  Ni0  1  0.54508138  0.10692653  0.14690491  1  1.053694  0.005845  0.614674  0.670887  0.009262  2.547668  0.01
Ni  Ni1  1  0.45490912  0.89306408  0.85308852  1  1.053414  0.005831  0.614553  0.670538  0.009212  2.548397  0.01
H  H2  1  0.51671431  0.64439516  0.70464769  1  0.660808  9.7e-05  0.303586  0.376555  7.4e-05  0.968325  0.0
H  H3  1  0.48328132  0.35559556  0.29534252  1  0.660866  9.7e-05  0.303576  0.376416  7.4e-05  0.968491  0.0
H  H4  1  0.48699801  0.95230287  0.07513635  1  0.609634  0.000224  0.280447  0.357792  2.5e-05  0.99477  0.0
H  H5  1  0.51298135  0.04775084  0.92488950  1  0.609616  0.000223  0.28047  0.357841  2.5e-05  0.99462  0.0
H  H6  1  0.63830905  0.92925404  0.00780502  1  0.617668  2e-06  0.281541  0.370112  -0.000119  0.975961  0.0
H  H7  1  0.36167283  0.07081166  0.99222844  1  0.618512  2e-06  0.281511  0.370225  -0.000119  0.975837  0.0
H  H8  1  0.13237988  0.27856072  0.28100138  1  0.11646  0.000162  0.108858  0.115447  0.000178  1.03386  0.0
H  H9  1  0.86760413  0.72142566  0.71900344  1  0.116178  0.000161  0.108827  0.115333  0.000177  1.033869  0.0
H  H10  1  0.00958662  0.09678835  0.12435191  1  0.086428  0.000155  0.107023  0.112206  0.000153  1.011581  0.0
H  H11  1  0.99039764  0.90319500  0.87565720  1  0.086289  0.000154  0.106994  0.112088  0.000152  1.011591  0.0
H  H12  1  0.78082755  0.09017395  0.98500733  1  0.16562  -0.000403  0.148335  0.117407  -0.000251  0.974729  0.0
H  H13  1  0.21917723  0.90982238  0.01500691  1  0.165897  -0.000404  0.148377  0.117451  -0.000251  0.974587  0.0
H  H14  1  0.68085970  0.30861327  0.33479580  1  0.142142  -4e-05  0.106086  0.104263  -2.8e-05  1.058033  0.0
H  H15  1  0.31912157  0.69139554  0.66519324  1  0.142145  -4e-05  0.106099  0.104225  -2.8e-05  1.058  0.0
H  H16  1  0.78697945  0.17459148  0.64246397  1  0.066688  -1.3e-05  0.098859  0.098081  -7e-06  1.029111  0.0
H  H17  1  0.21301397  0.82542814  0.35753764  1  0.066601  -1.3e-05  0.098902  0.098113  -7e-06  1.029066  0.0
H  H18  1  0.36606561  0.16496551  0.32352461  1  0.221835  -0.000484  0.138423  0.11608  -0.000317  1.065298  0.0
H  H19  1  0.63394220  0.83503636  0.67646988  1  0.221838  -0.000484  0.138401  0.116006  -0.000317  1.06536  0.0
H  H20  1  0.99997888  0.47994450  0.34226065  1  0.106057  1e-06  0.111987  0.125543  -3e-06  0.983464  0.0
H  H21  1  0.00002036  0.52004046  0.65773111  1  0.107963  1e-06  0.11196  0.125523  -3e-06  0.983686  0.0
H  H22  1  0.61364205  0.41368214  0.57194141  1  0.102657  -7e-06  0.109806  0.076476  -6e-06  1.056227  0.0
H  H23  1  0.38635591  0.58631210  0.42805525  1  0.102689  -7e-06  0.109828  0.076508  -6e-06  1.056169  0.0
H  H24  1  0.12361043  0.12835348  0.39989798  1  0.100705  -9e-06  0.105844  0.112634  -8e-06  1.023762  0.0
H  H25  1  0.87639392  0.87163140  0.60009529  1  0.100775  -9e-06  0.105811  0.112533  -8e-06  1.023651  0.0
H  H26  1  0.72569971  0.78396390  0.15161694  1  0.14089  -8.2e-05  0.111716  0.14156  -3e-05  0.996314  0.0
H  H27  1  0.27430980  0.21603391  0.84838403  1  0.141014  -8.3e-05  0.111729  0.141662  -3e-05  0.996135  0.0
H  H28  1  0.90048467  0.61417512  0.46858738  1  0.091872  2e-06  0.110709  0.111208  2e-06  1.004053  0.0
H  H29  1  0.09951278  0.38580682  0.53140901  1  0.091873  2e-06  0.110694  0.111177  2e-06  1.004041  0.0
H  H30  1  0.45322363  0.90311992  0.52806379  1  0.093827  -7e-06  0.106651  0.116652  -3e-06  1.001518  0.0
H  H31  1  0.54677792  0.09688660  0.47193322  1  0.09379  -7e-06  0.106663  0.116703  -3e-06  1.001601  0.0
H  H32  1  0.26838525  0.38439025  0.12886562  1  0.12316  -5.6e-05  0.108098  0.127137  -1.9e-05  1.004506  0.0
H  H33  1  0.73162126  0.61562072  0.87113791  1  0.123113  -5.6e-05  0.108157  0.127183  -1.9e-05  1.004429  0.0
H  H34  1  0.26764110  0.97552559  0.66107946  1  0.069838  -4e-06  0.100658  0.101885  -2e-06  1.030322  0.0
H  H35  1  0.73235667  0.02448479  0.33891615  1  0.070088  -4e-06  0.100677  0.101915  -2e-06  1.03033  0.0
H  H36  1  0.60304561  0.24371698  0.77588537  1  0.124452  -2e-06  0.105786  0.115144  5e-06  1.031274  0.0
H  H37  1  0.39695418  0.75629309  0.22411758  1  0.124512  -2e-06  0.105784  0.115174  5e-06  1.031295  0.0
H  H38  1  0.93885030  0.20325801  0.53208808  1  0.085433  0.0  0.098674  0.097363  1e-06  1.045523  0.0
H  H39  1  0.06115222  0.79673556  0.46790137  1  0.085754  0.0  0.098673  0.09732  1e-06  1.045657  0.0
H  H40  1  0.13889012  0.12374922  0.75272628  1  0.078317  -1e-06  0.100886  0.102074  4e-06  1.038123  0.0
H  H41  1  0.86111298  0.87625153  0.24727262  1  0.078318  -1e-06  0.100893  0.102091  4e-06  1.038091  0.0
H  H42  1  0.45850177  0.72640182  0.44596949  1  0.106855  -0.00019  0.104323  0.11326  -0.000124  1.040198  0.0
H  H43  1  0.54150531  0.27359734  0.55402177  1  0.106662  -0.000191  0.104333  0.113273  -0.000124  1.039963  0.0
H  H44  1  0.95487076  0.19255979  0.88578154  1  0.071253  -1e-05  0.109366  0.115819  -0.0  0.991961  0.0
H  H45  1  0.04514060  0.80742947  0.11421969  1  0.07128  -1e-05  0.109386  0.115841  0.0  0.992005  0.0
H  H46  1  0.49584673  0.47058316  0.83248192  1  0.08947  -0.000216  0.106983  0.121902  -0.000134  1.005615  0.0
H  H47  1  0.50415399  0.52941352  0.16752413  1  0.089426  -0.000216  0.106949  0.121819  -0.000133  1.005558  0.0
H  H48  1  0.24034622  0.61196151  0.90620888  1  0.054034  1.3e-05  0.094532  0.093242  8e-06  1.025079  0.0
H  H49  1  0.75964976  0.38804584  0.09379136  1  0.053965  1.3e-05  0.09465  0.093385  8e-06  1.025221  0.0
H  H50  1  0.62537145  0.53957793  0.35512131  1  0.067793  3e-06  0.097404  0.096566  3e-06  1.046625  0.0
H  H51  1  0.37463245  0.46040778  0.64487492  1  0.067816  3e-06  0.097414  0.096569  3e-06  1.046874  0.0
H  H52  1  0.12830840  0.57023422  0.05166206  1  0.0692  1e-06  0.096885  0.095554  2e-06  1.005331  0.0
H  H53  1  0.87169296  0.42977016  0.94834101  1  0.069144  1e-06  0.096865  0.095505  2e-06  1.00534  0.0
H  H54  1  0.76285441  0.56690410  0.21285138  1  0.026505  3e-06  0.098682  0.100301  3e-06  1.007534  0.0
H  H55  1  0.23715292  0.43309209  0.78714298  1  0.026442  3e-06  0.098667  0.100294  3e-06  1.007469  0.0
C  C56  1  0.04676458  0.25811327  0.26626882  1  -0.061936  0.000773  -0.074732  -0.130125  0.00066  3.913985  0.0
C  C57  1  0.95321903  0.74188070  0.73373556  1  -0.061832  0.000773  -0.074669  -0.129827  0.000659  3.914015  0.0
C  C58  1  0.08643228  0.18225652  0.19809421  1  -0.03386  0.002836  -0.017206  -0.033162  0.002348  3.980914  0.002
C  C59  1  0.91354691  0.81773352  0.80191412  1  -0.033359  0.002828  -0.017097  -0.033131  0.002342  3.980564  0.002
C  C60  1  0.97853834  0.15557007  0.17735963  1  -0.02355  0.00138  -0.069689  -0.093086  0.00114  3.920539  0.001
C  C61  1  0.02146307  0.84441636  0.82264228  1  -0.024053  0.00138  -0.069674  -0.092997  0.001139  3.920344  0.001
C  C62  1  0.90105855  0.30185987  0.31664546  1  -0.026342  5.2e-05  -0.006108  0.035986  -8e-06  3.99636  0.0
C  C63  1  0.09892017  0.69814290  0.68335266  1  -0.026306  5.2e-05  -0.006194  0.035692  -8e-06  3.996397  0.0
C  C64  1  0.83082722  0.20476874  0.22490130  1  -0.017162  -0.001682  -0.018739  -0.042368  -0.00139  3.999447  -0.002
C  C65  1  0.16917389  0.79523872  0.77509571  1  -0.017311  -0.001682  -0.018778  -0.042388  -0.001389  3.999463  -0.002
C  C66  1  0.24643234  0.12582775  0.14992779  1  1.578233  -0.000114  0.219466  0.575623  0.000407  4.175367  -0.001
C  C67  1  0.75355731  0.87415901  0.85009020  1  1.578054  -0.000113  0.219727  0.575693  0.000406  4.175594  -0.001
C  C68  1  0.71063748  0.18480622  0.20182694  1  1.536662  0.001309  0.209095  0.558643  0.001364  4.18292  0.001
C  C69  1  0.28936591  0.81518550  0.79816131  1  1.53665  0.001311  0.209158  0.558766  0.001367  4.182452  0.001
C  C70  1  0.85607042  0.37694776  0.39135072  1  0.54484  5.5e-05  0.124555  0.205759  3.9e-05  3.991981  0.0
C  C71  1  0.14390900  0.62305119  0.60864814  1  0.544723  5.5e-05  0.12448  0.205711  3.9e-05  3.992146  0.0
C  C72  1  0.08894923  0.09687385  0.60738667  1  -0.038473  -0.000235  -0.004889  0.066227  -0.000193  3.985256  0.0
C  C73  1  0.91104822  0.90313268  0.39261043  1  -0.038424  -0.000234  -0.00492  0.066121  -0.000192  3.985281  0.0
C  C74  1  0.68168722  0.17458734  0.98571136  1  1.024758  -2.1e-05  0.169071  0.144522  -0.000151  3.900295  0.0
C  C75  1  0.31832176  0.82542261  0.01429360  1  1.024245  -1.9e-05  0.169057  0.144589  -0.00015  3.900415  0.0
C  C76  1  0.79389813  0.27440452  0.29540292  1  -0.033662  0.001183  -0.071784  -0.113833  0.000948  3.908211  0.001
C  C77  1  0.20609066  0.72559633  0.70459483  1  -0.033374  0.001183  -0.071682  -0.11366  0.000948  3.907799  0.001
C  C78  1  0.82509215  0.18037202  0.69499733  1  -0.063693  -9.4e-05  -0.088459  -0.111165  -7.7e-05  3.963619  0.0
C  C79  1  0.17490602  0.81963710  0.30500595  1  -0.063814  -9.4e-05  -0.088461  -0.111191  -7.7e-05  3.963865  0.0
C  C80  1  0.30026713  0.01314340  0.45575893  1  0.262536  -0.000222  0.090858  0.162602  -0.000229  4.020549  0.0
C  C81  1  0.69974155  0.98685659  0.54423495  1  0.262777  -0.000223  0.090835  0.162692  -0.000229  4.020146  0.0
C  C82  1  0.45804413  0.32084611  0.02274623  1  0.331668  -0.001674  0.092987  0.151081  -0.001726  4.005021  -0.001
C  C83  1  0.54195935  0.67917154  0.97725619  1  0.333521  -0.001667  0.093013  0.151198  -0.001722  4.005331  -0.001
C  C84  1  0.57411198  0.87524977  0.26509556  1  0.358196  -0.000698  0.090834  0.14014  -0.000834  4.015223  0.0
C  C85  1  0.42589545  0.12474146  0.73490443  1  0.358219  -0.0007  0.090807  0.140145  -0.000837  4.015917  0.0
C  C86  1  0.50045169  0.85755882  0.34785461  1  0.261924  -0.001313  0.091306  0.089218  -0.001089  4.012171  -0.001
C  C87  1  0.49954760  0.14243903  0.65214630  1  0.261997  -0.001314  0.091259  0.08898  -0.00109  4.011821  -0.001
C  C88  1  0.76747403  0.22259142  0.83916687  1  0.28737  -0.000297  0.097535  0.180105  -0.000285  4.012573  0.0
C  C89  1  0.23252901  0.77740239  0.16083958  1  0.287163  -0.000297  0.09756  0.180161  -0.000285  4.012342  0.0
C  C90  1  0.42517249  0.06294289  0.31567619  1  0.977012  -0.000667  0.159447  0.127644  -0.000884  3.867857  0.0
C  C91  1  0.57483508  0.93705006  0.68432778  1  0.977232  -0.00066  0.15952  0.127831  -0.000877  3.86831  0.0
C  C92  1  0.75058133  0.52200628  0.52987762  1  -0.016555  -1e-06  -0.020099  -0.102903  3e-06  3.993506  0.0
C  C93  1  0.24941327  0.47798439  0.47011394  1  -0.01638  -1e-06  -0.020171  -0.102978  3e-06  3.993582  0.0
C  C94  1  0.52098275  0.34576628  0.93943232  1  0.334765  -0.001528  0.098292  0.100212  -0.001302  3.976059  -0.001
C  C95  1  0.47903176  0.65423629  0.06056749  1  0.334979  -0.001527  0.098324  0.100053  -0.001301  3.97568  -0.001
C  C96  1  0.97806607  0.14276603  0.68682332  1  -0.024597  6.7e-05  -0.010092  0.056027  4.6e-05  3.993149  0.0
C  C97  1  0.02193736  0.85723859  0.31317350  1  -0.024584  6.7e-05  -0.010101  0.056057  4.6e-05  3.99315  0.0
C  C98  1  0.91551621  0.46654253  0.39470323  1  -0.021457  -4.8e-05  -0.075365  -0.153643  -4.2e-05  3.925866  0.0
C  C99  1  0.08447517  0.53345264  0.60529446  1  -0.023325  -4.8e-05  -0.075321  -0.153677  -4.2e-05  3.9263  0.0
C  C100  1  0.69877575  0.43010043  0.52127532  1  0.535946  -6e-06  0.047597  0.079084  -8e-06  3.979745  0.0
C  C101  1  0.30121360  0.56989480  0.47872094  1  0.536351  -6e-06  0.047592  0.079031  -8e-06  3.979792  0.0
C  C102  1  0.15478208  0.09593840  0.45741767  1  0.004556  -0.000191  -0.084752  -0.141716  -0.000147  3.976286  0.0
C  C103  1  0.84522026  0.90405305  0.54257726  1  0.004338  -0.00019  -0.084711  -0.141558  -0.000147  3.976182  0.0
C  C104  1  0.67274729  0.77038092  0.21569261  1  0.031088  -0.000326  -0.086294  -0.144754  -0.000281  3.958133  0.0
C  C105  1  0.32726678  0.22961624  0.78430057  1  0.031554  -0.000326  -0.086266  -0.144821  -0.000281  3.957761  0.0
C  C106  1  0.86111356  0.54076596  0.46436514  1  -0.058757  3.2e-05  -0.059018  -0.03542  2.5e-05  3.944948  0.0
C  C107  1  0.13888453  0.45922358  0.53563063  1  -0.058897  3.2e-05  -0.058973  -0.035374  2.5e-05  3.945017  0.0
C  C108  1  0.68850829  0.59801908  0.60617323  1  1.521216  1.7e-05  0.228912  0.584121  1.9e-05  4.137965  0.0
C  C109  1  0.31149408  0.40197268  0.39381401  1  1.520906  1.7e-05  0.229005  0.584265  1.9e-05  4.137961  0.0
C  C110  1  0.34015480  0.96872286  0.52941273  1  -0.063362  -0.000222  -0.089188  -0.16045  -0.000183  3.99526  0.0
C  C111  1  0.65984645  0.03128005  0.47057984  1  -0.063243  -0.000221  -0.089162  -0.160572  -0.000183  3.995434  0.0
C  C112  1  0.31602204  0.40229696  0.06463939  1  -0.016317  -0.000354  -0.090885  -0.1481  -0.000318  3.968031  0.0
C  C113  1  0.68398531  0.59771177  0.93537241  1  -0.016108  -0.000354  -0.09094  -0.148138  -0.000318  3.967972  0.0
C  C114  1  0.23517272  0.01078698  0.60417189  1  0.018082  5.3e-05  -0.086086  -0.106545  4.1e-05  3.958922  0.0
C  C115  1  0.76482678  0.98921961  0.39582368  1  0.017559  5.3e-05  -0.086138  -0.106502  4.1e-05  3.959087  0.0
C  C116  1  0.72028525  0.21985157  0.77006377  1  -0.027039  -4.1e-05  -0.088672  -0.151946  -5e-05  3.96125  0.0
C  C117  1  0.27971932  0.78015453  0.22994336  1  -0.026826  -4.1e-05  -0.088634  -0.151916  -5e-05  3.961248  0.0
C  C118  1  0.05094498  0.13732284  0.53240703  1  -0.038423  5.4e-05  -0.087229  -0.110759  3.9e-05  3.962783  0.0
C  C119  1  0.94905519  0.86267328  0.46758972  1  -0.038787  5.4e-05  -0.087207  -0.110726  3.9e-05  3.962922  0.0
C  C120  1  0.02209302  0.14919282  0.75676662  1  0.009611  -4.8e-05  -0.084427  -0.102915  -2.7e-05  3.966916  0.0
C  C121  1  0.97791096  0.85080614  0.24322989  1  0.009362  -4.8e-05  -0.084445  -0.102978  -2.7e-05  3.967015  0.0
C  C122  1  0.51814889  0.73778495  0.38270818  1  -0.02372  -0.000162  -0.101509  -0.178713  -0.000151  4.018308  0.0
C  C123  1  0.48184535  0.26222615  0.61729327  1  -0.0237  -0.000162  -0.101438  -0.178516  -0.000151  4.018075  0.0
C  C124  1  0.91833732  0.18876056  0.83217920  1  -0.003242  7.5e-05  -0.089263  -0.166657  7.4e-05  3.997091  0.0
C  C125  1  0.08167145  0.81123447  0.16782031  1  -0.003058  7.5e-05  -0.089287  -0.166676  7.4e-05  3.997386  0.0
C  C126  1  0.44578068  0.45053476  0.89592546  1  0.012922  -0.000191  -0.092475  -0.158463  -0.000174  3.99846  0.0
C  C127  1  0.55423847  0.54946205  0.10407573  1  0.012562  -0.00019  -0.092517  -0.158438  -0.000174  3.998365  0.0
C  C128  1  0.30338378  0.52944777  0.93803712  1  0.001699  -3.2e-05  -0.098836  -0.082612  -1.5e-05  4.026966  0.0
C  C129  1  0.69662685  0.47054507  0.06196929  1  0.002174  -3.2e-05  -0.098892  -0.082604  -1.5e-05  4.027413  0.0
C  C130  1  0.61261644  0.63473832  0.33173181  1  0.009889  -4.7e-05  -0.099437  -0.085061  -3.6e-05  4.032075  0.0
C  C131  1  0.38738016  0.36527022  0.66826235  1  0.010041  -4.6e-05  -0.099525  -0.085165  -3.6e-05  4.032834  0.0
C  C132  1  0.23980231  0.50566612  0.02084780  1  -0.087672  0.00011  -0.102322  -0.100607  0.000107  4.052125  0.0
C  C133  1  0.76019796  0.49433134  0.97916240  1  -0.088071  0.000111  -0.102325  -0.100637  0.000107  4.052229  0.0
C  C134  1  0.69005310  0.65059318  0.25029609  1  -0.093471  3.8e-05  -0.098755  -0.099032  3.8e-05  4.032857  0.0
C  C135  1  0.30995166  0.34940889  0.74969360  1  -0.094244  3.9e-05  -0.098739  -0.099007  3.8e-05  4.032619  0.0
N  N136  1  0.52365629  0.00527721  0.24769327  1  -1.179188  -0.023505  -0.351937  -0.294072  -0.019504  3.56882  -0.017
N  N137  1  0.47635183  0.99472835  0.75230328  1  -1.179733  -0.023492  -0.351902  -0.293915  -0.019493  3.569095  -0.017
N  N138  1  0.74836957  0.35927222  0.45433375  1  -1.217492  -4.8e-05  -0.322252  -0.316024  -3.8e-05  3.319456  0.0
N  N139  1  0.25160993  0.64071539  0.54566467  1  -1.217553  -4.8e-05  -0.322218  -0.31588  -3.8e-05  3.319429  0.0
N  N140  1  0.40707238  0.97866140  0.37807440  1  -1.23519  -0.001471  -0.226204  -0.057373  -0.001129  3.758992  -0.001
N  N141  1  0.59294051  0.02131547  0.62192858  1  -1.234718  -0.001468  -0.226225  -0.057494  -0.001127  3.758977  -0.001
N  N142  1  0.66353212  0.25072345  0.91791978  1  -1.247342  -0.00112  -0.221121  -0.056362  -0.000847  3.744916  -0.001
N  N143  1  0.33646563  0.74928678  0.08207937  1  -1.246785  -0.001118  -0.221192  -0.056411  -0.000846  3.744603  -0.001
N  N144  1  0.56192525  0.21173049  0.04886382  1  -1.177495  -0.023967  -0.352812  -0.305431  -0.019944  3.605672  -0.016
N  N145  1  0.43807819  0.78828037  0.95114260  1  -1.179305  -0.023957  -0.352757  -0.305392  -0.019934  3.605776  -0.016
O  O146  1  0.74752468  0.09363778  0.15296826  1  -1.09639  0.032746  -0.294247  -0.496177  0.025813  2.255902  0.027
O  O147  1  0.25254205  0.90634056  0.84701735  1  -1.096147  0.032687  -0.29433  -0.49622  0.025769  2.256085  0.027
O  O148  1  0.33063867  0.16896936  0.16930850  1  -1.117796  0.044546  -0.29483  -0.503827  0.034714  2.477626  0.038
O  O149  1  0.66932742  0.83105382  0.83070099  1  -1.117703  0.044442  -0.29506  -0.503939  0.034641  2.478195  0.038
O  O150  1  0.57165233  0.57945524  0.65722763  1  -1.181219  0.000276  -0.33477  -0.502384  0.000214  2.326894  0.0
O  O151  1  0.42835411  0.42053632  0.34276425  1  -1.18137  0.000275  -0.334743  -0.502231  0.000213  2.327047  0.0
O  O152  1  0.57542919  0.25705894  0.23052337  1  -1.184383  -0.010209  -0.305015  -0.550662  -0.008784  2.269369  -0.009
O  O153  1  0.42457473  0.74292687  0.76947050  1  -1.184443  -0.010147  -0.304973  -0.550582  -0.008732  2.269088  -0.009
O  O154  1  0.59581206  0.91952803  0.06728810  1  -1.234114  -0.020466  -0.590817  -0.76375  -0.01703  2.028202  -0.017
O  O155  1  0.40416052  0.08054260  0.93274129  1  -1.23483  -0.020386  -0.590818  -0.763961  -0.016965  2.027728  -0.017
O  O156  1  0.28712626  0.04169466  0.09700952  1  -1.18976  0.000508  -0.307105  -0.557295  0.000262  2.246087  0.0
O  O157  1  0.71289901  0.95826509  0.90301729  1  -1.189568  0.000506  -0.307186  -0.557234  0.00026  2.246046  0.0
O  O158  1  0.74176246  0.67061056  0.61917589  1  -1.152617  -9.3e-05  -0.28943  -0.502855  -7.7e-05  2.186621  0.0
O  O159  1  0.25822696  0.32939171  0.38081046  1  -1.152537  -9.3e-05  -0.289443  -0.502859  -7.7e-05  2.186612  0.0
