# generated using pymatgen
data_CdH42C38(NO2)4
_symmetry_space_group_name_H-M   'P 1'
_cell_length_a   13.65935469
_cell_length_b   15.08630508
_cell_length_c   19.29873069
_cell_angle_alpha   90.00007613
_cell_angle_beta   90.00006071
_cell_angle_gamma   89.99990104
_symmetry_Int_Tables_number   1
_chemical_formula_structural   CdH42C38(NO2)4
_chemical_formula_sum   'Cd4 H168 C152 N16 O32'
_cell_volume   3976.87383880
_cell_formula_units_Z   4
loop_
 _symmetry_equiv_pos_site_id
 _symmetry_equiv_pos_as_xyz
  1  'x, y, z'
loop_
 _atom_site_type_symbol
 _atom_site_label
 _atom_site_symmetry_multiplicity
 _atom_site_fract_x
 _atom_site_fract_y
 _atom_site_fract_z
 _atom_site_occupancy
 _atom_site_pbe_bader_charge
 _atom_site_pbe_bader_spin_density
 _atom_site_pbe_cm5_charge
 _atom_site_pbe_ddec_charge
 _atom_site_pbe_ddec_spin_density
 _atom_site_pbe_ddec_sum_bond_order
 _atom_site_pbe_magmom
Cd  Cd0  1  0.79994231  0.36153326  0.03616400  1  1.202665  0  0.763208  0.808019  0  2.135733  0
Cd  Cd1  1  0.70005703  0.63846704  0.53616332  1  1.202656  0  0.763229  0.808039  0  2.135667  0
Cd  Cd2  1  0.20005730  0.86153260  0.46383569  1  1.202683  0  0.763221  0.80802  0  2.135669  0
Cd  Cd3  1  0.29994302  0.13846855  0.96383663  1  1.202662  0  0.763231  0.808021  0  2.135708  0
H  H4  1  0.75870006  0.46395141  0.89560295  1  0.654482  0  0.294631  0.347508  0  0.999907  0
H  H5  1  0.74129982  0.53604817  0.39560481  1  0.654373  0  0.294642  0.347476  0  0.999906  0
H  H6  1  0.24130084  0.96395273  0.60439526  1  0.654512  0  0.294664  0.347542  0  0.999808  0
H  H7  1  0.25869821  0.03604847  0.10439506  1  0.65442  0  0.294664  0.347541  0  0.99984  0
H  H8  1  0.96065593  0.28063222  0.36493383  1  0.621068  0  0.275911  0.280833  0  1.089744  0
H  H9  1  0.53934389  0.71936731  0.86493414  1  0.621072  0  0.275907  0.280841  0  1.089741  0
H  H10  1  0.03934309  0.78063192  0.13506630  1  0.621062  0  0.275906  0.280822  0  1.089758  0
H  H11  1  0.46065746  0.21936801  0.63506589  1  0.621063  0  0.275902  0.280818  0  1.089766  0
H  H12  1  0.58349653  0.28091738  0.94550089  1  0.08327  0  0.111337  0.075259  0  1.022237  0
H  H13  1  0.91650415  0.71908296  0.44549996  1  0.083265  0  0.111332  0.075236  0  1.022248  0
H  H14  1  0.41650471  0.78091701  0.55450024  1  0.083261  0  0.11133  0.075234  0  1.022239  0
H  H15  1  0.08349572  0.21908345  0.05450010  1  0.083222  0  0.111318  0.075231  0  1.022256  0
H  H16  1  0.73832368  0.32152689  0.89557489  1  0.086721  0  0.106141  0.058185  0  1.010273  0
H  H17  1  0.76167692  0.67847203  0.39557484  1  0.086728  0  0.106132  0.05815  0  1.010305  0
H  H18  1  0.26167748  0.82152817  0.60442370  1  0.086741  0  0.106135  0.058152  0  1.010283  0
H  H19  1  0.23832303  0.17847303  0.10442467  1  0.086722  0  0.106145  0.058156  0  1.010263  0
H  H20  1  0.42339965  0.37870083  0.09365418  1  0.037068  0  0.105448  0.097839  0  0.956362  0
H  H21  1  0.07660230  0.62129837  0.59365494  1  0.0374  0  0.105477  0.097858  0  0.956377  0
H  H22  1  0.57660211  0.87870147  0.40634605  1  0.037051  0  0.105483  0.09788  0  0.956382  0
H  H23  1  0.92339704  0.12129946  0.90634499  1  0.037381  0  0.105467  0.097852  0  0.956393  0
H  H24  1  0.83749108  0.42002027  0.30310803  1  0.098746  0  0.107701  0.120226  0  1.044758  0
H  H25  1  0.66250866  0.57997915  0.80310622  1  0.098883  0  0.10769  0.120192  0  1.044854  0
H  H26  1  0.16250695  0.92002054  0.19689276  1  0.098857  0  0.107704  0.1202  0  1.044845  0
H  H27  1  0.33749223  0.07997882  0.69689263  1  0.098863  0  0.107695  0.12019  0  1.04486  0
H  H28  1  0.50863920  0.45427726  0.88799561  1  0.022932  0  0.093675  0.1012  0  0.992855  0
H  H29  1  0.99136066  0.54572297  0.38799612  1  0.022946  0  0.093681  0.101229  0  0.99283  0
H  H30  1  0.49136098  0.95427754  0.61200466  1  0.022926  0  0.093674  0.101204  0  0.992806  0
H  H31  1  0.00863881  0.04572434  0.11200377  1  0.02297  0  0.093659  0.10121  0  0.992763  0
H  H32  1  0.45058532  0.34949288  0.89450270  1  0.036657  0  0.090107  0.09513  0  1.009944  0
H  H33  1  0.04941636  0.65050815  0.39450350  1  0.036691  0  0.090101  0.095141  0  1.00996  0
H  H34  1  0.54941726  0.84949238  0.60549746  1  0.036676  0  0.090129  0.095202  0  1.009971  0
H  H35  1  0.95058291  0.15050870  0.10549753  1  0.036661  0  0.090115  0.095171  0  1.009979  0
H  H36  1  0.61858281  0.44638515  0.76441136  1  0.09446  0  0.106897  0.120519  0  1.035203  0
H  H37  1  0.88141759  0.55361554  0.26441179  1  0.094464  0  0.106894  0.120532  0  1.035285  0
H  H38  1  0.38141665  0.94638448  0.73558891  1  0.09447  0  0.106891  0.120546  0  1.035216  0
H  H39  1  0.11858186  0.05361496  0.23558811  1  0.094456  0  0.106908  0.120558  0  1.035227  0
H  H40  1  0.37423835  0.44490869  0.98271008  1  0.045642  0  0.093744  0.060675  0  0.994745  0
H  H41  1  0.12576200  0.55508984  0.48271032  1  0.04564  0  0.093752  0.060687  0  0.994732  0
H  H42  1  0.62576331  0.94490925  0.51728967  1  0.045617  0  0.093732  0.060662  0  0.994736  0
H  H43  1  0.87423745  0.05509234  0.01728957  1  0.045637  0  0.093745  0.060672  0  0.994716  0
H  H44  1  0.82557092  0.44798859  0.17565873  1  0.13574  0  0.115218  0.094993  0  1.022085  0
H  H45  1  0.67443009  0.55201062  0.67565741  1  0.135751  0  0.115209  0.095015  0  1.022081  0
H  H46  1  0.17442779  0.94798906  0.32434210  1  0.135754  0  0.115223  0.095047  0  1.022047  0
H  H47  1  0.32557232  0.05201053  0.82434193  1  0.135746  0  0.115221  0.095029  0  1.022046  0
H  H48  1  0.56778490  0.97457350  0.77335883  1  0.102512  0  0.105319  0.111567  0  1.027681  0
H  H49  1  0.93221259  0.02542654  0.27335875  1  0.102512  0  0.10533  0.111589  0  1.027638  0
H  H50  1  0.43221451  0.47457374  0.72664094  1  0.102509  0  0.105334  0.111598  0  1.027667  0
H  H51  1  0.06778618  0.52542767  0.22664111  1  0.102502  0  0.105352  0.111614  0  1.02754  0
H  H52  1  0.69798910  0.03464355  0.11042671  1  0.070031  0  0.103354  0.106387  0  1.036795  0
H  H53  1  0.80201034  0.96535688  0.61042799  1  0.070077  0  0.103355  0.106371  0  1.036836  0
H  H54  1  0.30201112  0.53464393  0.38957264  1  0.07005  0  0.103342  0.10636  0  1.036753  0
H  H55  1  0.19798908  0.46535643  0.88957385  1  0.070018  0  0.103346  0.106326  0  1.036807  0
H  H56  1  0.74253935  0.18457284  0.07163928  1  0.139157  0  0.102997  0.111319  0  1.056645  0
H  H57  1  0.75746004  0.81542818  0.57163830  1  0.139158  0  0.102972  0.111282  0  1.056694  0
H  H58  1  0.25746205  0.68457335  0.42835919  1  0.139168  0  0.10301  0.111323  0  1.056662  0
H  H59  1  0.24253894  0.31542707  0.92836027  1  0.139153  0  0.102985  0.111291  0  1.056695  0
H  H60  1  0.59140982  0.36279887  0.11194041  1  0.06531  0  0.105202  0.089174  0  0.975035  0
H  H61  1  0.90859256  0.63720421  0.61194092  1  0.065245  0  0.105205  0.089174  0  0.975054  0
H  H62  1  0.40859271  0.86279643  0.38805928  1  0.065251  0  0.105207  0.089171  0  0.975047  0
H  H63  1  0.09140676  0.13720592  0.88805903  1  0.065271  0  0.105208  0.089181  0  0.975049  0
H  H64  1  0.58574708  0.26659833  0.05872546  1  0.059597  0  0.105197  0.091399  0  1.00768  0
H  H65  1  0.91425741  0.73340399  0.55872555  1  0.059542  0  0.105199  0.091388  0  1.007688  0
H  H66  1  0.41425783  0.76659664  0.44127465  1  0.059552  0  0.105189  0.09139  0  1.00768  0
H  H67  1  0.08574246  0.23340447  0.94127501  1  0.059527  0  0.105201  0.091396  0  1.007669  0
H  H68  1  0.67512318  0.18300529  0.90505365  1  0.133298  0  0.105836  0.128241  0  1.062835  0
H  H69  1  0.82487744  0.81699564  0.40505328  1  0.133309  0  0.105845  0.128255  0  1.062835  0
H  H70  1  0.32487752  0.68300447  0.59494738  1  0.133327  0  0.105843  0.128261  0  1.06281  0
H  H71  1  0.17512371  0.31699406  0.09494793  1  0.133324  0  0.105824  0.12825  0  1.062808  0
H  H72  1  0.48540169  0.52554254  0.06902727  1  0.021352  0  0.090749  0.087726  0  0.990726  0
H  H73  1  0.01459803  0.47445793  0.56902887  1  0.021318  0  0.09077  0.087747  0  0.990689  0
H  H74  1  0.51459928  0.02554233  0.43097207  1  0.021333  0  0.090761  0.087719  0  0.99071  0
H  H75  1  0.98540064  0.97445930  0.93097143  1  0.021302  0  0.090747  0.087707  0  0.990711  0
H  H76  1  0.49929612  0.56466422  0.98268324  1  0.056383  0  0.097517  0.107233  0  1.001101  0
H  H77  1  0.00070130  0.43533563  0.48268327  1  0.056403  0  0.09752  0.107253  0  1.001104  0
H  H78  1  0.50070334  0.06466399  0.51731663  1  0.056395  0  0.097521  0.107208  0  1.001115  0
H  H79  1  0.99929670  0.93533561  0.01731650  1  0.056408  0  0.097531  0.107238  0  1.001089  0
H  H80  1  0.52383118  0.08541870  0.68218967  1  0.093155  0  0.108231  0.114743  0  1.013051  0
H  H81  1  0.97616764  0.91458185  0.18219106  1  0.09321  0  0.108225  0.114692  0  1.013147  0
H  H82  1  0.47616823  0.58541736  0.81781023  1  0.093158  0  0.108252  0.11474  0  1.013093  0
H  H83  1  0.02383113  0.41458155  0.31780921  1  0.093187  0  0.108197  0.114647  0  1.013172  0
H  H84  1  0.74577109  0.10892762  0.32268373  1  0.092095  0  0.106119  0.117936  0  1.043979  0
H  H85  1  0.75422647  0.89106985  0.82268438  1  0.092072  0  0.106134  0.117947  0  1.043986  0
H  H86  1  0.25422752  0.60892771  0.17731570  1  0.09209  0  0.106115  0.11792  0  1.043979  0
H  H87  1  0.24577383  0.39107162  0.67731686  1  0.092114  0  0.106122  0.117941  0  1.043997  0
H  H88  1  0.81490463  0.19551078  0.38294165  1  0.02746  0  0.096052  0.034831  0  1.001077  0
H  H89  1  0.68509449  0.80448746  0.88294113  1  0.027526  0  0.096067  0.03482  0  1.001055  0
H  H90  1  0.18509456  0.69551088  0.11705839  1  0.027466  0  0.096052  0.034835  0  1.001054  0
H  H91  1  0.31490597  0.30448968  0.61705899  1  0.027461  0  0.096037  0.034793  0  1.001077  0
H  H92  1  0.65697125  0.51248763  0.97305933  1  0.098941  0  0.107503  0.088506  0  1.035693  0
H  H93  1  0.84302800  0.48751540  0.47306173  1  0.09901  0  0.107509  0.088491  0  1.035755  0
H  H94  1  0.34302977  0.01248567  0.52693945  1  0.098985  0  0.107524  0.088532  0  1.035699  0
H  H95  1  0.15697063  0.98751606  0.02693809  1  0.099036  0  0.107517  0.088511  0  1.035767  0
H  H96  1  0.65628607  0.50070597  0.06440940  1  0.041557  0  0.101365  0.079076  0  0.990025  0
H  H97  1  0.84371404  0.49929769  0.56441231  1  0.041484  0  0.101379  0.079112  0  0.989986  0
H  H98  1  0.34371495  0.00070405  0.43558992  1  0.041553  0  0.101369  0.079071  0  0.989984  0
H  H99  1  0.15628532  0.99929771  0.93558750  1  0.041507  0  0.101381  0.079138  0  0.989957  0
H  H100  1  0.53967057  0.38520711  0.65790118  1  0.082001  0  0.113701  0.083827  0  1.011037  0
H  H101  1  0.96032894  0.61479339  0.15790122  1  0.082009  0  0.1137  0.083845  0  1.011012  0
H  H102  1  0.46032754  0.88520650  0.84209902  1  0.08201  0  0.11371  0.083899  0  1.011011  0
H  H103  1  0.03967113  0.11479378  0.34209822  1  0.082015  0  0.113696  0.083822  0  1.011068  0
H  H104  1  0.66781395  0.97178234  0.99088198  1  0.041968  0  0.101087  0.10227  0  0.992126  0
H  H105  1  0.83218534  0.02821873  0.49088287  1  0.041928  0  0.101082  0.102259  0  0.992181  0
H  H106  1  0.33218547  0.47178103  0.50911727  1  0.041936  0  0.101086  0.102266  0  0.992174  0
H  H107  1  0.16781490  0.52821934  0.00911803  1  0.041941  0  0.101079  0.102245  0  0.992191  0
H  H108  1  0.60110300  0.07451364  0.98382818  1  0.080446  0  0.104799  0.119664  0  0.981062  0
H  H109  1  0.89889700  0.92548808  0.48382797  1  0.080287  0  0.104793  0.119667  0  0.981019  0
H  H110  1  0.39889716  0.57451191  0.51617274  1  0.080293  0  0.104789  0.119663  0  0.981048  0
H  H111  1  0.10110395  0.42548848  0.01617282  1  0.080319  0  0.104788  0.119668  0  0.981034  0
H  H112  1  0.72953512  0.07120522  0.96340305  1  0.084469  0  0.097697  0.102333  0  1.031498  0
H  H113  1  0.77046485  0.92879580  0.46340327  1  0.084445  0  0.097703  0.102349  0  1.03147  0
H  H114  1  0.27046432  0.57120505  0.53659631  1  0.08446  0  0.097708  0.102346  0  1.031482  0
H  H115  1  0.22953682  0.42879537  0.03659650  1  0.084453  0  0.097725  0.102363  0  1.031533  0
H  H116  1  0.73963663  0.38404807  0.39828936  1  0.053844  0  0.112066  0.071776  0  0.986185  0
H  H117  1  0.76036471  0.61595152  0.89828922  1  0.053831  0  0.112059  0.071742  0  0.986208  0
H  H118  1  0.26036220  0.88404935  0.10171035  1  0.053817  0  0.112056  0.071745  0  0.986186  0
H  H119  1  0.23963685  0.11595317  0.60171071  1  0.053865  0  0.112088  0.071791  0  0.986161  0
H  H120  1  0.80013374  0.36279175  0.51065065  1  0.046317  0  0.090664  0.095042  0  1.023505  0
H  H121  1  0.69986629  0.63720718  0.01065052  1  0.046291  0  0.090667  0.095094  0  1.023486  0
H  H122  1  0.19986515  0.86279246  0.98934901  1  0.046271  0  0.090663  0.095046  0  1.02352  0
H  H123  1  0.30013447  0.13720939  0.48934998  1  0.046322  0  0.090675  0.095042  0  1.023532  0
H  H124  1  0.79615708  0.24654593  0.50505592  1  0.007563  0  0.08691  0.086154  0  0.990507  0
H  H125  1  0.70384293  0.75345299  0.00505643  1  0.007581  0  0.086918  0.086156  0  0.990519  0
H  H126  1  0.20384203  0.74654664  0.99494362  1  0.007562  0  0.086909  0.086148  0  0.990515  0
H  H127  1  0.29615834  0.25345522  0.49494419  1  0.007576  0  0.086915  0.086127  0  0.990561  0
H  H128  1  0.66231767  0.31509304  0.58442434  1  0.035676  0  0.09229  0.064927  0  1.00505  0
H  H129  1  0.83768247  0.68490536  0.08442436  1  0.035668  0  0.092276  0.064887  0  1.005059  0
H  H130  1  0.33768205  0.81509340  0.91557527  1  0.035659  0  0.09229  0.064907  0  1.005014  0
H  H131  1  0.16231893  0.18490766  0.41557567  1  0.035683  0  0.092278  0.064936  0  1.005027  0
H  H132  1  0.51802964  0.37626447  0.52724802  1  0.049279  0  0.102982  0.094901  0  0.968245  0
H  H133  1  0.98196968  0.62373448  0.02724808  1  0.049292  0  0.102969  0.0949  0  0.968193  0
H  H134  1  0.48196849  0.87626604  0.97275166  1  0.049356  0  0.102962  0.094858  0  0.968209  0
H  H135  1  0.01803110  0.12373645  0.47275241  1  0.049309  0  0.102978  0.094886  0  0.968188  0
H  H136  1  0.64897015  0.16210392  0.54013792  1  -0.002729  0  0.081195  0.075156  0  1.000895  0
H  H137  1  0.85102846  0.83789572  0.04013914  1  -0.002783  0  0.081191  0.075166  0  1.000856  0
H  H138  1  0.35103058  0.66210368  0.95986153  1  -0.002751  0  0.081202  0.075175  0  1.000857  0
H  H139  1  0.14896973  0.33789746  0.45986208  1  -0.002746  0  0.081228  0.075183  0  1.000812  0
H  H140  1  0.53266372  0.21272409  0.53117151  1  0.081641  0  0.088861  0.093523  0  1.045401  0
H  H141  1  0.96733414  0.78727753  0.03117225  1  0.081677  0  0.088861  0.093509  0  1.045398  0
H  H142  1  0.46733545  0.71272501  0.96882851  1  0.081636  0  0.088856  0.093524  0  1.045387  0
H  H143  1  0.03266414  0.28727681  0.46882840  1  0.081644  0  0.088853  0.093505  0  1.04538  0
H  H144  1  0.49300206  0.32650602  0.41393742  1  0.01242  0  0.096799  0.071947  0  0.98546  0
H  H145  1  0.00699818  0.67349968  0.91393973  1  0.012185  0  0.096837  0.072046  0  0.985416  0
H  H146  1  0.50699761  0.82650755  0.08606224  1  0.012451  0  0.096778  0.071915  0  0.985414  0
H  H147  1  0.99300326  0.17349482  0.58606284  1  0.012235  0  0.096772  0.071928  0  0.985414  0
H  H148  1  0.57604542  0.41134447  0.38763110  1  0.065645  0  0.099049  0.083211  0  1.000307  0
H  H149  1  0.92396177  0.58865974  0.88763053  1  0.065669  0  0.099046  0.083216  0  1.000424  0
H  H150  1  0.42395336  0.91134485  0.11236864  1  0.065635  0  0.099053  0.083221  0  1.000271  0
H  H151  1  0.07604643  0.08865769  0.61236936  1  0.065669  0  0.099046  0.083238  0  1.000343  0
H  H152  1  0.66937294  0.15111172  0.41914188  1  0.02402  0  0.094689  0.065359  0  1.007768  0
H  H153  1  0.83062551  0.84888857  0.91914307  1  0.023994  0  0.094715  0.065364  0  1.007727  0
H  H154  1  0.33062780  0.65111219  0.08085759  1  0.024033  0  0.094689  0.065386  0  1.007752  0
H  H155  1  0.16937341  0.34889030  0.58085814  1  0.023974  0  0.094681  0.065336  0  1.007719  0
H  H156  1  0.54348702  0.17575734  0.41254090  1  0.034124  0  0.096706  0.070731  0  0.988139  0
H  H157  1  0.95651068  0.82424426  0.91254215  1  0.03417  0  0.096713  0.070748  0  0.988156  0
H  H158  1  0.45651367  0.67575829  0.08745860  1  0.034129  0  0.096695  0.070716  0  0.988141  0
H  H159  1  0.04348755  0.32424421  0.58745903  1  0.034131  0  0.096693  0.07071  0  0.988184  0
H  H160  1  0.65981311  0.85395695  0.22977694  1  0.095403  0  0.113122  0.124448  0  0.962134  0
H  H161  1  0.84018798  0.14604168  0.72977792  1  0.095357  0  0.113105  0.124428  0  0.962151  0
H  H162  1  0.34018944  0.35395807  0.27022275  1  0.0954  0  0.113111  0.124431  0  0.962154  0
H  H163  1  0.15981279  0.64604209  0.77022203  1  0.095393  0  0.113097  0.124442  0  0.962159  0
H  H164  1  0.74333600  0.89968772  0.16778795  1  0.06086  0  0.095891  0.093948  0  1.008878  0
H  H165  1  0.75666500  0.10031214  0.66778829  1  0.060872  0  0.095889  0.093936  0  1.008856  0
H  H166  1  0.25666646  0.39968708  0.33221231  1  0.060882  0  0.095893  0.09395  0  1.008894  0
H  H167  1  0.24333659  0.60031384  0.83221265  1  0.060833  0  0.095905  0.093967  0  1.008836  0
H  H168  1  0.61431670  0.92564115  0.16307827  1  0.055842  0  0.098548  0.095276  0  1.007879  0
H  H169  1  0.88568282  0.07435737  0.66308025  1  0.056253  0  0.098562  0.09531  0  1.007853  0
H  H170  1  0.38568425  0.42564297  0.33692045  1  0.056223  0  0.098547  0.095277  0  1.007888  0
H  H171  1  0.11431808  0.57435862  0.83692015  1  0.05582  0  0.098558  0.095304  0  1.007889  0
C  C172  1  0.59690046  0.35208720  0.93853726  1  0.245672  0  -0.005357  0.033617  0  3.75415  0
C  C173  1  0.90310021  0.64791312  0.43853729  1  0.245659  0  -0.005342  0.033687  0  3.754112  0
C  C174  1  0.40310138  0.85208687  0.56146291  1  0.245357  0  -0.005338  0.033677  0  3.754034  0
C  C175  1  0.09689907  0.14791426  0.06146270  1  0.245663  0  -0.005355  0.03359  0  3.754036  0
C  C176  1  0.67351310  0.36039397  0.87986660  1  0.493258  0  0.000541  0.12714  0  3.888505  0
C  C177  1  0.82648748  0.63960427  0.37986656  1  0.493285  0  0.000553  0.127197  0  3.888595  0
C  C178  1  0.32648872  0.86039517  0.62013358  1  0.493289  0  0.000497  0.127163  0  3.888601  0
C  C179  1  0.17351255  0.13960473  0.12013394  1  0.493291  0  0.00054  0.127249  0  3.888544  0
C  C180  1  0.80005239  0.28239680  0.29465402  1  0.077356  0  0.015937  0.061829  0  3.882891  0
C  C181  1  0.69994660  0.71760261  0.79465341  1  0.077229  0  0.015928  0.061754  0  3.882928  0
C  C182  1  0.19994663  0.78239703  0.20534663  1  0.077258  0  0.015918  0.061764  0  3.88295  0
C  C183  1  0.30005403  0.21760235  0.70534713  1  0.077237  0  0.015945  0.061768  0  3.88294  0
C  C184  1  0.45988453  0.35423950  0.04656819  1  -0.013937  0  -0.086347  -0.158066  0  3.821839  0
C  C185  1  0.04011736  0.64576028  0.54656842  1  -0.014295  0  -0.086353  -0.158031  0  3.821832  0
C  C186  1  0.54011729  0.85423961  0.45343150  1  -0.013957  0  -0.086353  -0.158059  0  3.821889  0
C  C187  1  0.95988121  0.14576073  0.95343153  1  -0.014271  0  -0.086385  -0.158077  0  3.821873  0
C  C188  1  0.76721477  0.23590423  0.17485388  1  0.47615  0  0.098985  0.180294  0  4.003767  0
C  C189  1  0.73278403  0.76409432  0.67485334  1  0.476201  0  0.098999  0.180314  0  4.003791  0
C  C190  1  0.23278507  0.73590461  0.32514621  1  0.476165  0  0.099016  0.180369  0  4.003707  0
C  C191  1  0.26721577  0.26409564  0.82514673  1  0.47615  0  0.098991  0.180325  0  4.003758  0
C  C192  1  0.63130319  0.32024959  0.81424825  1  -0.033033  0  0.01015  0.061969  0  3.868567  0
C  C193  1  0.86869656  0.67974920  0.31424829  1  -0.032953  0  0.010113  0.061806  0  3.868706  0
C  C194  1  0.36869651  0.82025018  0.68575188  1  -0.032948  0  0.010141  0.061914  0  3.868652  0
C  C195  1  0.13130266  0.17974851  0.18575174  1  -0.03296  0  0.010152  0.061863  0  3.868656  0
C  C196  1  0.81723539  0.36614027  0.26836530  1  -0.095958  0  -0.089467  -0.175159  0  3.967576  0
C  C197  1  0.68276429  0.63385844  0.76836407  1  -0.096306  0  -0.089422  -0.175002  0  3.967593  0
C  C198  1  0.18276274  0.86614123  0.23163440  1  -0.096092  0  -0.089405  -0.174974  0  3.967453  0
C  C199  1  0.31723722  0.13385886  0.73163535  1  -0.096089  0  -0.089424  -0.175021  0  3.96757  0
C  C200  1  0.49795283  0.39653420  0.92208798  1  -0.044061  0  -0.165886  -0.227153  0  3.863365  0
C  C201  1  0.00204816  0.60346621  0.42208818  1  -0.044099  0  -0.165885  -0.227205  0  3.86335  0
C  C202  1  0.50204892  0.89653440  0.57791224  1  -0.043799  0  -0.16594  -0.227332  0  3.863423  0
C  C203  1  0.99795120  0.10346729  0.07791177  1  -0.044095  0  -0.165875  -0.227242  0  3.863355  0
C  C204  1  0.61483031  0.22704652  0.80647049  1  -0.06001  0  -0.003275  0.019278  0  3.966554  0
C  C205  1  0.88517016  0.77295358  0.30647011  1  -0.060034  0  -0.003274  0.019299  0  3.966647  0
C  C206  1  0.38517030  0.72704577  0.69353007  1  -0.060029  0  -0.003278  0.01928  0  3.966572  0
C  C207  1  0.11482888  0.27295359  0.19352949  1  -0.060022  0  -0.003293  0.019328  0  3.966599  0
C  C208  1  0.77047928  0.21440068  0.24746952  1  -0.038015  0  -0.000502  0.02314  0  3.971049  0
C  C209  1  0.72951964  0.78559932  0.74746901  1  -0.037911  0  -0.000516  0.023117  0  3.971085  0
C  C210  1  0.22952060  0.71440028  0.25253054  1  -0.037925  0  -0.0005  0.023122  0  3.971076  0
C  C211  1  0.27048086  0.28559919  0.75253161  1  -0.038418  0  -0.000523  0.023112  0  3.971112  0
C  C212  1  0.60528430  0.37560440  0.76009808  1  0.002073  0  -0.095075  -0.185452  0  3.975455  0
C  C213  1  0.89471610  0.62439495  0.26009807  1  0.002014  0  -0.095102  -0.185475  0  3.975573  0
C  C214  1  0.39471530  0.87560438  0.73990263  1  0.002024  0  -0.095102  -0.185532  0  3.975574  0
C  C215  1  0.10528322  0.12439506  0.23990189  1  0.002011  0  -0.095158  -0.18557  0  3.975585  0
C  C216  1  0.57155153  0.19799565  0.74256418  1  0.473338  0  0.101801  0.17608  0  4.019978  0
C  C217  1  0.92844884  0.80200434  0.24256387  1  0.473239  0  0.101831  0.176138  0  4.019977  0
C  C218  1  0.42844840  0.69799494  0.75743687  1  0.473323  0  0.101801  0.176095  0  4.019983  0
C  C219  1  0.07154867  0.30200453  0.25743680  1  0.473263  0  0.101741  0.176009  0  4.020051  0
C  C220  1  0.45156779  0.42764861  0.99041423  1  0.015012  0  -0.083807  0.026496  0  3.841463  0
C  C221  1  0.04843183  0.57235060  0.49041495  1  0.015013  0  -0.083819  0.026467  0  3.841349  0
C  C222  1  0.54843317  0.92764862  0.50958550  1  0.01501  0  -0.083769  0.026539  0  3.841453  0
C  C223  1  0.95156759  0.07235097  0.00958496  1  0.015008  0  -0.083773  0.026578  0  3.84138  0
C  C224  1  0.40388267  0.27295521  0.02245358  1  1.529861  0  0.192944  0.58201  0  4.155131  0
C  C225  1  0.09611771  0.72704387  0.52245239  1  1.529986  0  0.192956  0.581994  0  4.155139  0
C  C226  1  0.59611783  0.77295594  0.47754706  1  1.529977  0  0.192959  0.582013  0  4.1551  0
C  C227  1  0.90387997  0.22704578  0.97754713  1  1.529825  0  0.193002  0.582101  0  4.155086  0
C  C228  1  0.81041142  0.38245037  0.19701449  1  0.467359  0  0.044066  0.096788  0  3.970642  0
C  C229  1  0.68958815  0.61754888  0.69701274  1  0.467448  0  0.044044  0.096726  0  3.970671  0
C  C230  1  0.18958741  0.88245078  0.30298626  1  0.467337  0  0.044014  0.096658  0  3.970592  0
C  C231  1  0.31041267  0.11754877  0.80298615  1  0.467315  0  0.044046  0.096738  0  3.970557  0
C  C232  1  0.57908939  0.04524522  0.78161123  1  -0.104722  0  -0.091619  -0.165348  0  3.990347  0
C  C233  1  0.92091104  0.95475550  0.28161314  1  -0.104746  0  -0.091626  -0.165301  0  3.990323  0
C  C234  1  0.42091010  0.54524446  0.71838758  1  -0.104722  0  -0.091652  -0.16539  0  3.990249  0
C  C235  1  0.07908912  0.45475495  0.21838820  1  -0.104746  0  -0.091649  -0.165358  0  3.990321  0
C  C236  1  0.71749366  0.08469691  0.14860335  1  -0.057129  0  -0.101075  -0.186169  0  3.993094  0
C  C237  1  0.78250437  0.91530358  0.64860405  1  -0.057138  0  -0.101047  -0.186126  0  3.993135  0
C  C238  1  0.28250573  0.58469659  0.35139554  1  -0.057117  0  -0.101063  -0.186134  0  3.993106  0
C  C239  1  0.21749441  0.41530370  0.85139619  1  -0.057111  0  -0.101051  -0.186081  0  3.993053  0
C  C240  1  0.74169749  0.16899783  0.12685379  1  -0.074327  0  -0.092481  -0.151512  0  4.00085  0
C  C241  1  0.75830271  0.83100196  0.62685282  1  -0.074332  0  -0.092466  -0.151487  0  4.000813  0
C  C242  1  0.25830321  0.66899693  0.37314571  1  -0.074309  0  -0.092485  -0.151511  0  4.000883  0
C  C243  1  0.24169770  0.33100274  0.87314629  1  -0.074317  0  -0.092483  -0.151514  0  4.000864  0
C  C244  1  0.57000396  0.33785238  0.06066189  1  0.243794  0  -0.073109  -0.086537  0  3.850821  0
C  C245  1  0.92999761  0.66214863  0.56066243  1  0.244214  0  -0.073148  -0.086597  0  3.850856  0
C  C246  1  0.42999862  0.83785131  0.43933778  1  0.244203  0  -0.07313  -0.086598  0  3.850844  0
C  C247  1  0.07000093  0.16214979  0.93933754  1  0.244394  0  -0.073175  -0.086684  0  3.85087  0
C  C248  1  0.63881837  0.16267492  0.85751061  1  -0.008008  0  -0.112471  -0.274869  0  3.952822  0
C  C249  1  0.86118144  0.83732328  0.35750976  1  -0.008025  0  -0.112426  -0.274806  0  3.952747  0
C  C250  1  0.36118236  0.66267611  0.64249040  1  -0.008021  0  -0.112447  -0.274857  0  3.952846  0
C  C251  1  0.13881747  0.33732250  0.14249095  1  -0.008027  0  -0.112385  -0.274823  0  3.952735  0
C  C252  1  0.51008146  0.50721791  0.01671036  1  -0.063299  0  -0.165671  -0.199431  0  3.872931  0
C  C253  1  0.98991711  0.49278235  0.51671129  1  -0.063268  0  -0.165653  -0.199407  0  3.872803  0
C  C254  1  0.48991882  0.00721717  0.48328948  1  -0.063283  0  -0.165641  -0.199316  0  3.872957  0
C  C255  1  0.01008226  0.99278269  0.98328850  1  -0.063249  0  -0.165665  -0.199375  0  3.872915  0
C  C256  1  0.55590958  0.10601156  0.73139241  1  0.010318  0  -0.088574  -0.15332  0  4.000641  0
C  C257  1  0.94408858  0.89398840  0.23139375  1  0.010417  0  -0.088634  -0.153395  0  4.000847  0
C  C258  1  0.44408980  0.60601152  0.76860751  1  0.010334  0  -0.088604  -0.153356  0  4.000744  0
C  C259  1  0.05590950  0.39398864  0.26860649  1  0.010378  0  -0.088495  -0.153206  0  4.000822  0
C  C260  1  0.74470217  0.12778905  0.26831488  1  0.019437  0  -0.101147  -0.244363  0  3.957841  0
C  C261  1  0.75529604  0.87221032  0.76831500  1  0.019431  0  -0.101204  -0.244411  0  3.957899  0
C  C262  1  0.25529788  0.62778990  0.23168509  1  0.019452  0  -0.101156  -0.244343  0  3.957839  0
C  C263  1  0.24470429  0.37221085  0.73168571  1  0.019975  0  -0.101179  -0.244444  0  3.957932  0
C  C264  1  0.81559492  0.26734148  0.37155804  1  0.485619  0  -0.000973  0.132987  0  3.910663  0
C  C265  1  0.68440564  0.73265674  0.87155692  1  0.48554  0  -0.000984  0.133057  0  3.910553  0
C  C266  1  0.18440486  0.76734226  0.12844259  1  0.485629  0  -0.000976  0.132986  0  3.910624  0
C  C267  1  0.31559422  0.23265832  0.62844312  1  0.485632  0  -0.000964  0.133074  0  3.910552  0
C  C268  1  0.71730559  0.06409882  0.22022256  1  0.478865  0  0.084542  0.25727  0  4.069874  0
C  C269  1  0.78269402  0.93589980  0.72022327  1  0.47885  0  0.084565  0.257287  0  4.069841  0
C  C270  1  0.28269385  0.56409904  0.27977579  1  0.478816  0  0.084555  0.257237  0  4.06989  0
C  C271  1  0.21730766  0.43590113  0.77977698  1  0.478839  0  0.084566  0.2573  0  4.069801  0
C  C272  1  0.61909469  0.48097681  0.01635752  1  0.237763  0  -0.083738  -0.080346  0  3.862818  0
C  C273  1  0.88090461  0.51902544  0.51635995  1  0.237784  0  -0.083753  -0.080379  0  3.862914  0
C  C274  1  0.38090615  0.98097524  0.48364179  1  0.237768  0  -0.083793  -0.080446  0  3.862858  0
C  C275  1  0.11909493  0.01902595  0.98363988  1  0.237781  0  -0.083765  -0.08046  0  3.862851  0
C  C276  1  0.56130564  0.34102534  0.70010083  1  0.499072  0  0.044593  0.088048  0  4.009892  0
C  C277  1  0.93869467  0.65897524  0.20010090  1  0.499077  0  0.044669  0.08811  0  4.009821  0
C  C278  1  0.43869256  0.84102469  0.79989984  1  0.499063  0  0.044653  0.08802  0  4.009743  0
C  C279  1  0.06130531  0.15897485  0.29989910  1  0.499054  0  0.044689  0.088158  0  4.009835  0
C  C280  1  0.61914182  0.07385397  0.84565744  1  0.468336  0  0.088334  0.26797  0  4.050182  0
C  C281  1  0.88085651  0.92614553  0.34565774  1  0.468315  0  0.088351  0.267943  0  4.049957  0
C  C282  1  0.38085615  0.57385383  0.65434244  1  0.46835  0  0.088369  0.268015  0  4.050047  0
C  C283  1  0.11914370  0.42614547  0.15434358  1  0.468363  0  0.088344  0.267967  0  4.050116  0
C  C284  1  0.66038108  0.03379187  0.96168372  1  0.34846  0  -0.139268  -0.18069  0  3.89398  0
C  C285  1  0.83961889  0.96620981  0.46168403  1  0.348971  0  -0.139284  -0.180761  0  3.894049  0
C  C286  1  0.33961770  0.53379093  0.53831612  1  0.348939  0  -0.139298  -0.180753  0  3.894044  0
C  C287  1  0.16038271  0.46620949  0.03831681  1  0.348655  0  -0.13929  -0.180722  0  3.894118  0
C  C288  1  0.73611092  0.31397924  0.41385978  1  0.322019  0  0.000399  0.055349  0  3.815199  0
C  C289  1  0.76388971  0.68601971  0.91385971  1  0.322102  0  0.000407  0.05538  0  3.815069  0
C  C290  1  0.26388804  0.81397983  0.08613986  1  0.322032  0  0.000412  0.055436  0  3.815031  0
C  C291  1  0.23611098  0.18602134  0.58613977  1  0.322004  0  0.000407  0.055389  0  3.815063  0
C  C292  1  0.75499109  0.30743561  0.49267170  1  -0.045554  0  -0.168649  -0.228616  0  3.877894  0
C  C293  1  0.74500820  0.69256348  0.99267162  1  -0.045568  0  -0.168636  -0.228672  0  3.87789  0
C  C294  1  0.24500788  0.80743609  0.00732742  1  -0.045975  0  -0.168649  -0.228642  0  3.877886  0
C  C295  1  0.25499248  0.19256561  0.50732838  1  -0.045617  0  -0.168682  -0.228597  0  3.877895  0
C  C296  1  0.65488902  0.30482805  0.52851081  1  0.021645  0  -0.089478  0.018455  0  3.847859  0
C  C297  1  0.84510956  0.69517091  0.02851084  1  0.021364  0  -0.089514  0.018439  0  3.847764  0
C  C298  1  0.34510997  0.80482851  0.97148879  1  0.021786  0  -0.089502  0.018446  0  3.847704  0
C  C299  1  0.15489036  0.19517332  0.47148920  1  0.021664  0  -0.089525  0.018326  0  3.847829  0
C  C300  1  0.58689524  0.37729115  0.49748857  1  -0.037129  0  -0.08807  -0.167752  0  3.808449  0
C  C301  1  0.91310406  0.62270728  0.99748855  1  -0.036963  0  -0.088064  -0.167717  0  3.808279  0
C  C302  1  0.41310287  0.87729335  0.00251062  1  -0.036519  0  -0.088016  -0.167643  0  3.808355  0
C  C303  1  0.08689675  0.12270966  0.50251138  1  -0.037069  0  -0.088044  -0.167644  0  3.808336  0
C  C304  1  0.60856114  0.21454354  0.51256203  1  -0.066836  0  -0.174703  -0.219853  0  3.901311  0
C  C305  1  0.89143669  0.78545671  0.01256219  1  -0.066783  0  -0.17469  -0.219832  0  3.901193  0
C  C306  1  0.39143876  0.71454329  0.98743903  1  -0.066773  0  -0.174701  -0.219863  0  3.901237  0
C  C307  1  0.10856086  0.28545790  0.48743846  1  -0.066835  0  -0.174679  -0.219789  0  3.901114  0
C  C308  1  0.62969074  0.46966762  0.50833080  1  1.52454  0  0.201575  0.597239  0  4.128166  0
C  C309  1  0.87031075  0.53033329  0.00833120  1  1.524522  0  0.201564  0.597245  0  4.128182  0
C  C310  1  0.37030722  0.96966807  0.99166793  1  1.524475  0  0.201584  0.597224  0  4.128264  0
C  C311  1  0.12969168  0.03033312  0.49166867  1  1.524541  0  0.201629  0.597298  0  4.128075  0
C  C312  1  0.56782402  0.35234662  0.42046587  1  0.291415  0  -0.074598  -0.077124  0  3.908287  0
C  C313  1  0.93217662  0.64765632  0.92046537  1  0.291732  0  -0.074599  -0.077259  0  3.908463  0
C  C314  1  0.43217486  0.85234760  0.07953330  1  0.291049  0  -0.074557  -0.077075  0  3.90809  0
C  C315  1  0.06782561  0.14765488  0.57953407  1  0.291558  0  -0.074644  -0.077307  0  3.908444  0
C  C316  1  0.61350716  0.20050226  0.43288113  1  0.250085  0  -0.075712  -0.055246  0  3.916513  0
C  C317  1  0.88649058  0.79949672  0.93288023  1  0.250083  0  -0.075747  -0.055313  0  3.916537  0
C  C318  1  0.38649202  0.70050329  0.06711943  1  0.250072  0  -0.075721  -0.055285  0  3.916585  0
C  C319  1  0.11350843  0.29949918  0.56711936  1  0.250085  0  -0.075709  -0.055222  0  3.916407  0
C  C320  1  0.67632406  0.91221439  0.19802670  1  0.347304  0  -0.134959  -0.173075  0  3.916198  0
C  C321  1  0.82367625  0.08778420  0.69802813  1  0.34698  0  -0.134947  -0.173093  0  3.916157  0
C  C322  1  0.32367691  0.41221558  0.30197253  1  0.34694  0  -0.134939  -0.173086  0  3.916209  0
C  C323  1  0.17632536  0.58778529  0.80197229  1  0.347398  0  -0.134955  -0.173177  0  3.916215  0
N  N324  1  0.63243874  0.38318678  0.00815848  1  -0.988573  0  -0.340214  -0.151497  0  3.391051  0
N  N325  1  0.86756201  0.61681480  0.50815945  1  -0.988869  0  -0.340251  -0.151532  0  3.391041  0
N  N326  1  0.36756301  0.88318524  0.49184071  1  -0.988831  0  -0.34021  -0.151392  0  3.390851  0
N  N327  1  0.13243661  0.11681596  0.99184047  1  -0.989068  0  -0.340247  -0.15141  0  3.390851  0
N  N328  1  0.78809707  0.31966559  0.15121766  1  -1.246919  0  -0.335404  -0.294102  0  3.513696  0
N  N329  1  0.71190170  0.68033424  0.65121599  1  -1.246921  0  -0.335394  -0.294134  0  3.513766  0
N  N330  1  0.21190261  0.81966604  0.34878251  1  -1.246934  0  -0.335426  -0.294183  0  3.513774  0
N  N331  1  0.28809900  0.18033425  0.84878297  1  -1.246937  0  -0.33543  -0.294164  0  3.513658  0
N  N332  1  0.54440594  0.25527141  0.69136187  1  -1.231258  0  -0.310873  -0.279314  0  3.426587  0
N  N333  1  0.95559436  0.74472915  0.19136152  1  -1.231276  0  -0.310907  -0.279344  0  3.426578  0
N  N334  1  0.45559316  0.75527009  0.80863924  1  -1.231277  0  -0.310896  -0.279298  0  3.426378  0
N  N335  1  0.04440546  0.24472947  0.30863909  1  -1.231295  0  -0.310905  -0.279339  0  3.426564  0
N  N336  1  0.63642834  0.28372007  0.39634562  1  -0.983124  0  -0.351162  -0.20148  0  3.386437  0
N  N337  1  0.86357154  0.71627951  0.89634565  1  -0.983126  0  -0.351144  -0.201366  0  3.386521  0
N  N338  1  0.36357068  0.78372186  0.10365503  1  -0.983102  0  -0.35114  -0.201483  0  3.386438  0
N  N339  1  0.13642983  0.21628067  0.60365489  1  -0.983133  0  -0.351089  -0.20137  0  3.386452  0
O  O340  1  0.70125956  0.44980615  0.86634245  1  -1.178632  0  -0.406142  -0.516362  0  2.297623  0
O  O341  1  0.79873880  0.55019338  0.36634126  1  -1.178565  0  -0.406142  -0.516311  0  2.297633  0
O  O342  1  0.29874136  0.94980676  0.63365730  1  -1.178656  0  -0.406152  -0.516382  0  2.297578  0
O  O343  1  0.20125993  0.05019382  0.13365811  1  -1.178566  0  -0.406153  -0.516393  0  2.297618  0
O  O344  1  0.31027283  0.27571076  0.02726475  1  -1.184172  0  -0.337182  -0.576981  0  2.217746  0
O  O345  1  0.18972975  0.72428765  0.52726466  1  -1.184142  0  -0.337213  -0.576985  0  2.217714  0
O  O346  1  0.68972986  0.77571200  0.47273486  1  -1.184135  0  -0.33722  -0.576993  0  2.217727  0
O  O347  1  0.81026866  0.22428904  0.97273486  1  -1.184203  0  -0.337212  -0.577012  0  2.217748  0
O  O348  1  0.90548422  0.30527583  0.39444924  1  -1.145282  0  -0.407916  -0.508529  0  2.315313  0
O  O349  1  0.59451638  0.69472309  0.89444853  1  -1.145282  0  -0.407927  -0.50859  0  2.315271  0
O  O350  1  0.09451549  0.80527539  0.10555092  1  -1.145269  0  -0.407929  -0.508559  0  2.315321  0
O  O351  1  0.40548429  0.19472448  0.60555096  1  -1.145263  0  -0.407906  -0.508554  0  2.315281  0
O  O352  1  0.44873332  0.20790031  0.99506831  1  -1.158919  0  -0.329322  -0.538519  0  2.177762  0
O  O353  1  0.05126998  0.79209957  0.49506615  1  -1.15912  0  -0.329299  -0.538508  0  2.177753  0
O  O354  1  0.55127026  0.70790030  0.50493275  1  -1.159111  0  -0.329301  -0.538516  0  2.177746  0
O  O355  1  0.94872683  0.29210060  0.00493451  1  -1.158917  0  -0.329305  -0.538549  0  2.177801  0
O  O356  1  0.63637553  0.00747989  0.89229364  1  -1.07197  0  -0.189778  -0.170833  0  2.555112  0
O  O357  1  0.86362361  0.99252101  0.39229451  1  -1.072238  0  -0.189778  -0.17078  0  2.555106  0
O  O358  1  0.36362330  0.50747903  0.60770565  1  -1.072284  0  -0.189771  -0.170792  0  2.555099  0
O  O359  1  0.13637721  0.49251886  0.10770687  1  -1.071946  0  -0.189783  -0.170821  0  2.555277  0
O  O360  1  0.69098431  0.98329610  0.24604130  1  -1.071401  0  -0.190276  -0.165609  0  2.561695  0
O  O361  1  0.80901387  0.01670389  0.74604212  1  -1.071427  0  -0.190295  -0.165579  0  2.561629  0
O  O362  1  0.30901433  0.48329591  0.25395800  1  -1.071442  0  -0.190289  -0.165549  0  2.561621  0
O  O363  1  0.19098640  0.51670355  0.75395822  1  -1.071417  0  -0.190276  -0.165501  0  2.561595  0
O  O364  1  0.64260791  0.49571778  0.57054165  1  -1.163763  0  -0.334956  -0.562523  0  2.175586  0
O  O365  1  0.85739074  0.50427926  0.07054097  1  -1.163741  0  -0.334935  -0.562496  0  2.175638  0
O  O366  1  0.35739219  0.99571947  0.92945712  1  -1.163829  0  -0.334958  -0.562542  0  2.175622  0
O  O367  1  0.14260808  0.00428228  0.42945887  1  -1.163758  0  -0.334982  -0.562527  0  2.175626  0
O  O368  1  0.65096252  0.51909716  0.45653106  1  -1.191803  0  -0.331177  -0.573143  0  2.233711  0
O  O369  1  0.84904037  0.48090385  0.95652721  1  -1.191822  0  -0.331192  -0.57321  0  2.233561  0
O  O370  1  0.34903334  0.01909854  0.04346777  1  -1.191721  0  -0.331226  -0.573178  0  2.233728  0
O  O371  1  0.15096342  0.98090322  0.54346947  1  -1.191811  0  -0.331191  -0.573194  0  2.233625  0
