# generated using pymatgen
data_ZnH15C15(NO)7
_symmetry_space_group_name_H-M   'P 1'
_cell_length_a   10.02306862
_cell_length_b   10.29163152
_cell_length_c   11.01594622
_cell_angle_alpha   69.79714995
_cell_angle_beta   78.18194565
_cell_angle_gamma   65.84695878
_symmetry_Int_Tables_number   1
_chemical_formula_structural   ZnH15C15(NO)7
_chemical_formula_sum   'Zn2 H30 C30 N14 O14'
_cell_volume   970.38566556
_cell_formula_units_Z   2
loop_
 _symmetry_equiv_pos_site_id
 _symmetry_equiv_pos_as_xyz
  1  'x, y, z'
loop_
 _atom_site_type_symbol
 _atom_site_label
 _atom_site_symmetry_multiplicity
 _atom_site_fract_x
 _atom_site_fract_y
 _atom_site_fract_z
 _atom_site_occupancy
 _atom_site_hle17_bader_spin_density
 _atom_site_hle17_ddec_charge
 _atom_site_hle17_ddec_spin_density
 _atom_site_hle17_ddec_sum_bond_order
 _atom_site_hle17_magmom
 _atom_site_hse06_10hf_bader_spin_density
 _atom_site_hse06_10hf_ddec_charge
 _atom_site_hse06_10hf_ddec_spin_density
 _atom_site_hse06_10hf_ddec_sum_bond_order
 _atom_site_hse06_10hf_magmom
 _atom_site_hse06_bader_spin_density
 _atom_site_hse06_ddec_charge
 _atom_site_hse06_ddec_spin_density
 _atom_site_hse06_ddec_sum_bond_order
 _atom_site_hse06_magmom
 _atom_site_pbe_bader_spin_density
 _atom_site_pbe_cm5_charge
 _atom_site_pbe_ddec_charge
 _atom_site_pbe_ddec_spin_density
 _atom_site_pbe_ddec_sum_bond_order
 _atom_site_pbe_magmom
Zn  Zn0  1  0.41800445  0.95714075  0.28047287  1  0  1.041453  0  1.781368  0  0  0.859667  0  2.231094  0  0  0.909668  0  2.176833  0  0  0.681011  0.822291  0  2.269786  0
Zn  Zn1  1  0.58198888  0.04286431  0.71953050  1  0  1.041489  0  1.781287  0  0  0.859731  0  2.231  0  0  0.90973  0  2.176737  0  0  0.681044  0.822356  0  2.269699  0
H  H2  1  0.57421318  0.80756495  0.50556109  1  0  0.425457  0  0.883064  0  0  0.393729  0  0.948768  0  0  0.404425  0  0.933326  0  0  0.284716  0.386024  0  0.959874  0
H  H3  1  0.42579311  0.19243553  0.49443613  1  0  0.425463  0  0.883049  0  0  0.393722  0  0.948793  0  0  0.404419  0  0.933349  0  0  0.28468  0.386014  0  0.959902  0
H  H4  1  0.55686834  0.71494191  0.42509195  1  0  0.403797  0  0.89468  0  0  0.379025  0  0.958551  0  0  0.388627  0  0.944435  0  0  0.288642  0.37207  0  0.96879  0
H  H5  1  0.44313303  0.28506084  0.57490719  1  0  0.403808  0  0.894693  0  0  0.379057  0  0.958507  0  0  0.388658  0  0.944393  0  0  0.288657  0.372097  0  0.968746  0
H  H6  1  0.24964125  0.14425054  0.76843007  1  0  0.102604  0  0.951945  0  0  0.115956  0  1.016725  0  0  0.116981  0  1.016746  0  0  0.113702  0.115057  0  1.016831  0
H  H7  1  0.75036133  0.85574340  0.23156522  1  0  0.102576  0  0.952017  0  0  0.115871  0  1.016857  0  0  0.116891  0  1.01688  0  0  0.1137  0.114972  0  1.016963  0
H  H8  1  0.08078444  0.29344292  0.78163164  1  0  0.08849  0  0.91377  0  0  0.101365  0  0.977915  0  0  0.102922  0  0.975973  0  0  0.115389  0.100209  0  0.979077  0
H  H9  1  0.91922355  0.70656202  0.21835666  1  0  0.088481  0  0.913708  0  0  0.101372  0  0.977844  0  0  0.102925  0  0.975906  0  0  0.11537  0.100219  0  0.979002  0
H  H10  1  0.95519203  0.10865235  0.88061912  1  0  0.091192  0  0.937619  0  0  0.105417  0  1.001824  0  0  0.106224  0  1.002358  0  0  0.100471  0.104815  0  1.001401  0
H  H11  1  0.04480405  0.89135380  0.11938075  1  0  0.091176  0  0.937661  0  0  0.105403  0  1.001841  0  0  0.10621  0  1.002375  0  0  0.100473  0.104802  0  1.001416  0
H  H12  1  0.11742341  0.96441641  0.84792571  1  0  0.084736  0  0.946804  0  0  0.097261  0  1.017913  0  0  0.097782  0  1.018815  0  0  0.097166  0.096814  0  1.017237  0
H  H13  1  0.88257682  0.03558420  0.15206882  1  0  0.084714  0  0.946772  0  0  0.097248  0  1.017859  0  0  0.097768  0  1.018762  0  0  0.097175  0.096802  0  1.017189  0
H  H14  1  0.90261579  0.10806004  0.68768631  1  0  0.085629  0  0.932558  0  0  0.099356  0  0.999077  0  0  0.099484  0  0.999787  0  0  0.116309  0.098957  0  0.998713  0
H  H15  1  0.09738060  0.89193947  0.31231464  1  0  0.085631  0  0.932517  0  0  0.099315  0  0.999119  0  0  0.099444  0  0.999824  0  0  0.116293  0.098913  0  0.998752  0
H  H16  1  0.98449606  0.24338616  0.62664812  1  0  0.088011  0  0.900668  0  0  0.108414  0  0.953115  0  0  0.108885  0  0.952781  0  0  0.123528  0.107808  0  0.953634  0
H  H17  1  0.01549205  0.75661684  0.37335039  1  0  0.087926  0  0.900675  0  0  0.108386  0  0.953108  0  0  0.108835  0  0.952798  0  0  0.12354  0.107776  0  0.953632  0
H  H18  1  0.05518767  0.21174037  0.22729757  1  0  0.092457  0  0.940103  0  0  0.098175  0  1.006305  0  0  0.101031  0  1.002537  0  0  0.131735  0.096083  0  1.008888  0
H  H19  1  0.94481265  0.78826577  0.77269616  1  0  0.092475  0  0.940093  0  0  0.098135  0  1.006365  0  0  0.10099  0  1.0026  0  0  0.131725  0.096046  0  1.008946  0
H  H20  1  0.38147336  0.98609176  0.98395505  1  0  0.126873  0  0.959521  0  0  0.133113  0  1.026989  0  0  0.136802  0  1.021946  0  0  0.143255  0.130138  0  1.031085  0
H  H21  1  0.61853162  0.01390101  0.01604202  1  0  0.126879  0  0.959612  0  0  0.133112  0  1.027084  0  0  0.136803  0  1.022042  0  0  0.143261  0.13014  0  1.031174  0
H  H22  1  0.27479986  0.73876386  0.51872928  1  0  0.114415  0  0.929038  0  0  0.125615  0  0.984257  0  0  0.127866  0  0.981983  0  0  0.14178  0.123799  0  0.986153  0
H  H23  1  0.72520909  0.26123090  0.48128198  1  0  0.114482  0  0.928944  0  0  0.125653  0  0.98419  0  0  0.127902  0  0.981916  0  0  0.141765  0.123828  0  0.986097  0
H  H24  1  0.19299631  0.19217125  0.44689780  1  0  0.126958  0  0.914433  0  0  0.137913  0  0.971683  0  0  0.141068  0  0.967532  0  0  0.152573  0.135493  0  0.974791  0
H  H25  1  0.80699184  0.80783516  0.55309239  1  0  0.126972  0  0.914568  0  0  0.138004  0  0.97172  0  0  0.141158  0  0.967569  0  0  0.152591  0.135581  0  0.974836  0
H  H26  1  0.45069703  0.41760544  0.33641646  1  0  0.115725  0  0.941332  0  0  0.12225  0  1.007857  0  0  0.126926  0  1.003168  0  0  0.113128  0.118755  0  1.011521  0
H  H27  1  0.54930287  0.58238406  0.66358608  1  0  0.115735  0  0.94125  0  0  0.122281  0  1.007735  0  0  0.126961  0  1.003039  0  0  0.113144  0.118784  0  1.011407  0
H  H28  1  0.68186286  0.65214128  0.02735251  1  0  0.129532  0  0.939306  0  0  0.13161  0  1.009156  0  0  0.13594  0  1.005569  0  0  0.115711  0.128456  0  1.01171  0
H  H29  1  0.31812256  0.34787163  0.97265247  1  0  0.129486  0  0.939335  0  0  0.131591  0  1.009147  0  0  0.135904  0  1.005577  0  0  0.11574  0.128437  0  1.011701  0
H  H30  1  0.68332264  0.23499283  0.02164416  1  0  0.12091  0  0.947327  0  0  0.123747  0  1.020128  0  0  0.128379  0  1.015271  0  0  0.116022  0.120311  0  1.023733  0
H  H31  1  0.31668087  0.76500992  0.97835100  1  0  0.120885  0  0.947359  0  0  0.1237  0  1.020176  0  0  0.12833  0  1.015325  0  0  0.116004  0.120263  0  1.02378  0
C  C32  1  0.14181003  0.17367302  0.82163087  1  0  -0.020403  0  3.607326  0  0  -0.097856  0  3.867065  0  0  -0.094243  0  3.877601  0  0  -0.0538  -0.09981  0  3.859279  0
C  C33  1  0.85819314  0.82633087  0.17836217  1  0  -0.020456  0  3.607491  0  0  -0.097937  0  3.867257  0  0  -0.094316  0  3.877775  0  0  -0.053893  -0.099893  0  3.859484  0
C  C34  1  0.05452527  0.08465887  0.81484613  1  0  -0.145201  0  3.650138  0  0  -0.190871  0  3.921835  0  0  -0.192739  0  3.935001  0  0  -0.16199  -0.189203  0  3.912188  0
C  C35  1  0.94547450  0.91534283  0.18515087  1  0  -0.145126  0  3.650096  0  0  -0.190736  0  3.921767  0  0  -0.192607  0  3.934923  0  0  -0.161959  -0.189077  0  3.912123  0
C  C36  1  0.00521148  0.12570039  0.67939809  1  0  0.002977  0  3.595954  0  0  -0.072216  0  3.852786  0  0  -0.067736  0  3.863503  0  0  -0.039194  -0.074769  0  3.845228  0
C  C37  1  0.99478422  0.87430139  0.32059865  1  0  0.003027  0  3.595748  0  0  -0.072214  0  3.852747  0  0  -0.067719  0  3.863462  0  0  -0.039235  -0.074759  0  3.845178  0
C  C38  1  0.11457190  0.17557668  0.14359961  1  0  0.210043  0  3.719755  0  0  0.157921  0  4.016068  0  0  0.169977  0  4.028001  0  0  0.142366  0.150049  0  4.007445  0
C  C39  1  0.88542848  0.82442949  0.85639137  1  0  0.21011  0  3.719893  0  0  0.158028  0  4.016218  0  0  0.170083  0  4.028147  0  0  0.142406  0.150156  0  4.007594  0
C  C40  1  0.28237902  0.05921088  0.02282533  1  0  0.184212  0  3.607615  0  0  0.105426  0  3.871518  0  0  0.120717  0  3.881034  0  0  0.16251  0.095638  0  3.865185  0
C  C41  1  0.71761810  0.94078639  0.97717801  1  0  0.184177  0  3.607706  0  0  0.105365  0  3.871568  0  0  0.120648  0  3.881091  0  0  0.162461  0.095579  0  3.865237  0
C  C42  1  0.22905305  0.85063870  0.52839102  1  0  0.190616  0  3.709304  0  0  0.136163  0  4.004153  0  0  0.147236  0  4.017421  0  0  0.144875  0.128713  0  3.995184  0
C  C43  1  0.77095396  0.14935952  0.47160950  1  0  0.190526  0  3.709444  0  0  0.136081  0  4.004271  0  0  0.147159  0  4.017533  0  0  0.144884  0.128638  0  3.995304  0
C  C44  1  0.18998220  0.08125895  0.48842365  1  0  0.187741  0  3.604579  0  0  0.108446  0  3.8684  0  0  0.12334  0  3.879252  0  0  0.169885  0.099259  0  3.86035  0
C  C45  1  0.81001171  0.91874508  0.51157177  1  0  0.187708  0  3.604701  0  0  0.108423  0  3.868481  0  0  0.123316  0  3.87934  0  0  0.169915  0.099234  0  3.860435  0
C  C46  1  0.56435355  0.30918712  0.18804305  1  0  -0.072679  0  3.756917  0  0  -0.048951  0  4.001619  0  0  -0.060347  0  4.026028  0  0  -0.018285  -0.041955  0  3.985699  0
C  C47  1  0.43564946  0.69080784  0.81196003  1  0  -0.072596  0  3.756949  0  0  -0.048883  0  4.001631  0  0  -0.060278  0  4.02604  0  0  -0.018276  -0.041884  0  3.985708  0
C  C48  1  0.52159520  0.42190288  0.24712752  1  0  -0.033969  0  3.662676  0  0  -0.080171  0  3.920735  0  0  -0.075532  0  3.93857  0  0  -0.062079  -0.083015  0  3.909411  0
C  C49  1  0.47840417  0.57808768  0.75288024  1  0  -0.03398  0  3.662711  0  0  -0.080175  0  3.920758  0  0  -0.075534  0  3.938596  0  0  -0.062024  -0.083018  0  3.909433  0
C  C50  1  0.56216269  0.54590932  0.19010049  1  0  -0.050395  0  3.726774  0  0  -0.023068  0  3.960856  0  0  -0.033763  0  3.984104  0  0  -0.011469  -0.016472  0  3.945607  0
C  C51  1  0.43783448  0.45408459  0.80990751  1  0  -0.050474  0  3.726857  0  0  -0.023193  0  3.960948  0  0  -0.033887  0  3.984192  0  0  -0.011561  -0.016594  0  3.945702  0
C  C52  1  0.65135850  0.55538289  0.07450626  1  0  -0.065066  0  3.640773  0  0  -0.101503  0  3.88888  0  0  -0.096434  0  3.904491  0  0  -0.059979  -0.103795  0  3.877611  0
C  C53  1  0.34863420  0.44462108  0.92549756  1  0  -0.065045  0  3.640617  0  0  -0.101479  0  3.888663  0  0  -0.0964  0  3.904288  0  0  -0.060076  -0.103777  0  3.877398  0
C  C54  1  0.69552192  0.44069858  0.01779749  1  0  0.057495  0  3.71063  0  0  0.056428  0  3.967252  0  0  0.050743  0  3.990409  0  0  0.078419  0.059552  0  3.951643  0
C  C55  1  0.30447355  0.55931197  0.98220476  1  0  0.057532  0  3.710581  0  0  0.056509  0  3.967081  0  0  0.050833  0  3.990255  0  0  0.0785  0.059636  0  3.951473  0
C  C56  1  0.65205505  0.31895547  0.07135972  1  0  -0.075477  0  3.685788  0  0  -0.118305  0  3.949796  0  0  -0.112892  0  3.965402  0  0  -0.065844  -0.12074  0  3.938806  0
C  C57  1  0.34794291  0.68104847  0.92863779  1  0  -0.075443  0  3.686025  0  0  -0.118243  0  3.949968  0  0  -0.112838  0  3.965592  0  0  -0.065851  -0.120676  0  3.938965  0
C  C58  1  0.50681183  0.18542069  0.24604622  1  0  0.655805  0  3.896761  0  0  0.602195  0  4.189257  0  0  0.636717  0  4.182919  0  0  0.207641  0.578669  0  4.192734  0
C  C59  1  0.49319792  0.81456974  0.75395534  1  0  0.655709  0  3.896578  0  0  0.602087  0  4.189102  0  0  0.636608  0  4.182768  0  0  0.207638  0.578561  0  4.192576  0
C  C60  1  0.50306396  0.66850404  0.25380542  1  0  0.640029  0  3.921862  0  0  0.592736  0  4.207629  0  0  0.626912  0  4.201282  0  0  0.202117  0.569356  0  4.211143  0
C  C61  1  0.49693453  0.33148869  0.74620635  1  0  0.639971  0  3.921759  0  0  0.592717  0  4.207503  0  0  0.626892  0  4.201158  0  0  0.202048  0.569335  0  4.211017  0
N  N62  1  0.16418926  0.15001720  0.95562142  1  0  0.044901  0  3.539825  0  0  0.170087  0  3.724059  0  0  0.159346  0  3.748589  0  0  -0.13369  0.175777  0  3.709869  0
N  N63  1  0.83582105  0.84997768  0.04437595  1  0  0.044853  0  3.539987  0  0  0.170148  0  3.724092  0  0  0.159426  0  3.748584  0  0  -0.133626  0.175838  0  3.709899  0
N  N64  1  0.05511058  0.22457025  0.03162925  1  0  -0.274241  0  2.84222  0  0  -0.277131  0  3.110317  0  0  -0.286581  0  3.125814  0  0  -0.227901  -0.270759  0  3.099963  0
N  N65  1  0.94489368  0.77543365  0.96836089  1  0  -0.274167  0  2.84239  0  0  -0.277085  0  3.110437  0  0  -0.28654  0  3.125937  0  0  -0.227863  -0.270711  0  3.100083  0
N  N66  1  0.25461483  0.07290386  0.14308400  1  0  -0.432056  0  3.216184  0  0  -0.359697  0  3.517241  0  0  -0.382557  0  3.529594  0  0  -0.347652  -0.343916  0  3.507989  0
N  N67  1  0.74538365  0.92709564  0.85691479  1  0  -0.43209  0  3.216151  0  0  -0.359728  0  3.517198  0  0  -0.382589  0  3.529556  0  0  -0.347645  -0.343945  0  3.507949  0
N  N68  1  0.11012544  0.03781965  0.59704266  1  0  0.039407  0  3.54371  0  0  0.158473  0  3.737487  0  0  0.147097  0  3.763285  0  0  -0.131503  0.16513  0  3.721202  0
N  N69  1  0.88987386  0.96218312  0.40295772  1  0  0.03952  0  3.543603  0  0  0.158414  0  3.73761  0  0  0.147038  0  3.763402  0  0  -0.13151  0.165089  0  3.721288  0
N  N70  1  0.13344530  0.89070706  0.62391753  1  0  -0.272314  0  2.852301  0  0  -0.271578  0  3.122609  0  0  -0.28057  0  3.138088  0  0  -0.219836  -0.265647  0  3.112527  0
N  N71  1  0.86656193  0.10929335  0.37608318  1  0  -0.272349  0  2.852535  0  0  -0.271541  0  3.122845  0  0  -0.280533  0  3.138322  0  0  -0.219803  -0.265611  0  3.112754  0
N  N72  1  0.26686979  0.96483162  0.44222010  1  0  -0.413268  0  3.25157  0  0  -0.337527  0  3.557675  0  0  -0.359578  0  3.568163  0  0  -0.340715  -0.322015  0  3.549053  0
N  N73  1  0.73312653  0.03517125  0.55777711  1  0  -0.413288  0  3.251552  0  0  -0.33753  0  3.557611  0  0  -0.359584  0  3.568102  0  0  -0.34075  -0.322021  0  3.548991  0
N  N74  1  0.78244781  0.45382117  0.89252875  1  0  0.501325  0  3.930017  0  0  0.522484  0  4.241789  0  0  0.544111  0  4.24952  0  0  0.054999  0.507988  0  4.236791  0
N  N75  1  0.21754677  0.54618607  0.10747466  1  0  0.501234  0  3.930083  0  0  0.522351  0  4.241881  0  0  0.543975  0  4.249614  0  0  0.055006  0.507854  0  4.236879  0
O  O76  1  0.42609284  0.18061867  0.35039959  1  0  -0.637322  0  2.015823  0  0  -0.580575  0  2.246191  0  0  -0.605919  0  2.236173  0  0  -0.31381  -0.562297  0  2.252057  0
O  O77  1  0.57392664  0.81935829  0.64960633  1  0  -0.637209  0  2.015734  0  0  -0.580503  0  2.246133  0  0  -0.60584  0  2.236104  0  0  -0.313826  -0.562227  0  2.252  0
O  O78  1  0.53816674  0.09019262  0.18397823  1  0  -0.631376  0  2.042152  0  0  -0.557426  0  2.298193  0  0  -0.586747  0  2.287248  0  0  -0.315307  -0.536067  0  2.305953  0
O  O79  1  0.46183290  0.90980692  0.81601492  1  0  -0.631433  0  2.042004  0  0  -0.557494  0  2.298078  0  0  -0.586807  0  2.287129  0  0  -0.31534  -0.536135  0  2.305842  0
O  O80  1  0.50913943  0.79565706  0.18436106  1  0  -0.640785  0  2.027389  0  0  -0.572166  0  2.286602  0  0  -0.601743  0  2.275651  0  0  -0.3234  -0.550424  0  2.294125  0
O  O81  1  0.49085751  0.20434014  0.81564960  1  0  -0.640657  0  2.027392  0  0  -0.572128  0  2.286706  0  0  -0.6017  0  2.275751  0  0  -0.323351  -0.550394  0  2.294248  0
O  O82  1  0.45273422  0.63945584  0.37054145  1  0  -0.622905  0  1.929502  0  0  -0.576396  0  2.145515  0  0  -0.59922  0  2.134901  0  0  -0.32546  -0.559767  0  2.151881  0
O  O83  1  0.54727382  0.36053011  0.62946903  1  0  -0.622929  0  1.929272  0  0  -0.576419  0  2.14527  0  0  -0.599243  0  2.134655  0  0  -0.325451  -0.559785  0  2.151631  0
O  O84  1  0.83472043  0.55260527  0.85245944  1  0  -0.357842  0  1.750891  0  0  -0.348041  0  1.96604  0  0  -0.359104  0  1.961363  0  0  -0.130551  -0.340504  0  1.968937  0
O  O85  1  0.16527891  0.44739752  0.14753911  1  0  -0.357704  0  1.750865  0  0  -0.347923  0  1.96605  0  0  -0.358986  0  1.96137  0  0  -0.130508  -0.340388  0  1.968947  0
O  O86  1  0.79644973  0.36653499  0.83184972  1  0  -0.37406  0  1.782404  0  0  -0.35117  0  2.001257  0  0  -0.364344  0  1.997117  0  0  -0.127623  -0.342305  0  2.004143  0
O  O87  1  0.20354263  0.63346673  0.16815848  1  0  -0.374107  0  1.782582  0  0  -0.351176  0  2.001408  0  0  -0.364353  0  1.99727  0  0  -0.127653  -0.342312  0  2.00429  0
O  O88  1  0.58926797  0.79689170  0.41643538  1  0  -0.83344  0  1.87912  0  0  -0.778289  0  2.069179  0  0  -0.799122  0  2.037286  0  0  -0.587833  -0.763719  0  2.091923  0
O  O89  1  0.41073304  0.20311218  0.58356257  1  0  -0.833481  0  1.879163  0  0  -0.778353  0  2.069171  0  0  -0.799185  0  2.03728  0  0  -0.587844  -0.763773  0  2.091934  0
