# generated using pymatgen
data_Zn4H12C20O13F
_symmetry_space_group_name_H-M   'P 1'
_cell_length_a   18.54721468
_cell_length_b   18.57220662
_cell_length_c   18.59868172
_cell_angle_alpha   119.76596301
_cell_angle_beta   90.55648453
_cell_angle_gamma   119.43927257
_symmetry_Int_Tables_number   1
_chemical_formula_structural   Zn4H12C20O13F
_chemical_formula_sum   'Zn8 H24 C40 O26 F2'
_cell_volume   4562.26551562
_cell_formula_units_Z   2
loop_
 _symmetry_equiv_pos_site_id
 _symmetry_equiv_pos_as_xyz
  1  'x, y, z'
loop_
 _atom_site_type_symbol
 _atom_site_label
 _atom_site_symmetry_multiplicity
 _atom_site_fract_x
 _atom_site_fract_y
 _atom_site_fract_z
 _atom_site_occupancy
 _atom_site_pbe_bader_charge
 _atom_site_pbe_bader_spin_density
 _atom_site_pbe_cm5_charge
 _atom_site_pbe_ddec_charge
 _atom_site_pbe_ddec_spin_density
 _atom_site_pbe_ddec_sum_bond_order
 _atom_site_pbe_magmom
Zn  Zn0  1  0.54207728  0.08795511  0.95539931  1  1.307243  0  0.665378  0.95855  0  2.383979  0
Zn  Zn1  1  0.54217234  0.08522318  0.12618281  1  1.294012  0  0.665441  0.959962  0  2.379746  0
Zn  Zn2  1  0.53940754  0.91235855  0.95237447  1  1.3075  0  0.670271  0.962003  0  2.388446  0
Zn  Zn3  1  0.36840376  0.91606601  0.95382562  1  1.31586  0  0.665332  0.960894  0  2.37434  0
Zn  Zn4  1  0.95934087  0.91314264  0.54535297  1  1.310274  0  0.665006  0.957449  0  2.387359  0
Zn  Zn5  1  0.96089256  0.08600378  0.54534886  1  1.309368  0  0.664164  0.957167  0  2.389017  0
Zn  Zn6  1  0.95908492  0.91363833  0.37292560  1  1.310393  0  0.666711  0.959968  0  2.383201  0
Zn  Zn7  1  0.13309544  0.08282628  0.54516645  1  1.297645  0  0.669706  0.964455  0  2.366499  0
H  H8  1  0.27777909  0.95305407  0.61047582  1  0.066412  0  0.100473  0.086283  0  0.990825  0
H  H9  1  0.78509306  0.87866912  0.19062160  1  0.110546  0  0.121469  0.14026  0  0.966811  0
H  H10  1  0.22378131  0.83298861  0.67797803  1  0.072539  0  0.100421  0.086111  0  0.990734  0
H  H11  1  0.77603315  0.04223459  0.34900292  1  0.079946  0  0.116619  0.134301  0  0.978539  0
H  H12  1  0.72664024  0.06488770  0.25671037  1  0.117199  0  0.118684  0.15848  0  0.982765  0
H  H13  1  0.79266450  0.59383611  0.18890291  1  0.095308  0  0.112489  0.110236  0  0.976323  0
H  H14  1  0.70727276  0.40806959  0.09518829  1  0.094498  0  0.112764  0.111344  0  0.976  0
H  H15  1  0.22231364  0.04636012  0.89013860  1  0.057162  0  0.10052  0.086421  0  0.990572  0
H  H16  1  0.40427775  0.12467176  0.77961081  1  0.081132  0  0.100892  0.090801  0  0.990143  0
H  H17  1  0.80248686  0.89663724  0.70997851  1  0.08638  0  0.113048  0.111597  0  0.975814  0
H  H18  1  0.77993529  0.04366958  0.69633952  1  0.081801  0  0.1123  0.130089  0  0.985167  0
H  H19  1  0.72153945  0.06883801  0.80256616  1  0.082871  0  0.112341  0.130613  0  0.987216  0
H  H20  1  0.69730723  0.88636635  0.79090091  1  0.10484  0  0.113215  0.111698  0  0.975574  0
H  H21  1  0.80156570  0.58173898  0.34787960  1  0.078106  0  0.112447  0.130421  0  0.985729  0
H  H22  1  0.69745602  0.41717877  0.26460955  1  0.050971  0  0.112397  0.130445  0  0.984754  0
H  H23  1  0.09587327  0.87483527  0.72099796  1  0.084646  0  0.100431  0.090206  0  0.990794  0
H  H24  1  0.27631668  0.16645659  0.82263992  1  0.071933  0  0.100979  0.086829  0  0.990032  0
H  H25  1  0.15625230  0.41586427  0.71668529  1  0.091849  0  0.118222  0.157599  0  0.984343  0
H  H26  1  0.40423248  0.59689799  0.80009535  1  0.130416  0  0.121189  0.139638  0  0.967899  0
H  H27  1  0.23022215  0.58090938  0.78083164  1  0.074697  0  0.116499  0.133871  0  0.979243  0
H  H28  1  0.31381878  0.10104838  0.40442222  1  0.091496  0  0.113516  0.111858  0  0.97452  0
H  H29  1  0.15348878  0.95665046  0.23574658  1  0.09504  0  0.111734  0.129587  0  0.985803  0
H  H30  1  0.40571611  0.11174709  0.31049781  1  0.071811  0  0.11324  0.11192  0  0.975294  0
H  H31  1  0.23511078  0.93232932  0.15200636  1  0.087916  0  0.112164  0.13041  0  0.984964  0
C  C32  1  0.36273417  0.99689861  0.13549650  1  1.539767  0  0.217964  0.6387  0  4.193139  0
C  C33  1  0.69815028  0.00822347  0.81145341  1  0.002834  0  -0.086096  -0.224802  0  3.875937  0
C  C34  1  0.28189115  0.44827091  0.72331243  1  0.433839  0  0.118544  0.339786  0  4.041042  0
C  C35  1  0.63855004  0.00273365  0.86359248  1  1.526007  0  0.218411  0.640822  0  4.189996  0
C  C36  1  0.19361684  0.38318400  0.69587994  1  0.006147  0  -0.106394  -0.372223  0  3.863724  0
C  C37  1  0.33297039  0.55794890  0.77768699  1  -0.029338  0  -0.069903  -0.128306  0  3.968047  0
C  C38  1  0.30040802  0.61408985  0.80138821  1  -0.00908  0  -0.077703  -0.188629  0  3.867222  0
C  C39  1  0.28034057  0.05486321  0.33359658  1  0.032504  0  -0.064873  -0.018355  0  3.968605  0
C  C40  1  0.19182025  0.00251651  0.30505122  1  -0.088975  0  -0.086413  -0.224504  0  3.872062  0
C  C41  1  0.33473005  0.05563904  0.27795392  1  -0.009769  0  -0.065808  -0.0212  0  3.970551  0
C  C42  1  0.30475731  0.99171670  0.18937392  1  -0.033853  0  -0.0857  -0.222742  0  3.873449  0
C  C43  1  0.16462969  0.93016824  0.73445149  1  -0.066433  0  -0.078171  -0.06945  0  3.646129  0
C  C44  1  0.76548178  0.93041706  0.22353782  1  -0.085955  0  -0.070272  -0.129015  0  3.97151  0
C  C45  1  0.79553818  0.99151288  0.31200762  1  0.079637  0  -0.079278  -0.191482  0  3.871146  0
C  C46  1  0.70806629  0.92700334  0.16656406  1  0.381467  0  0.117284  0.337717  0  4.044752  0
C  C47  1  0.63289104  0.27453165  0.13567884  1  1.537514  0  0.217186  0.638358  0  4.191725  0
C  C48  1  0.69329020  0.99857796  0.18889815  1  0.142653  0  -0.106466  -0.372567  0  3.863395  0
C  C49  1  0.77745794  0.55543336  0.22162139  1  0.035895  0  -0.066355  -0.020227  0  3.972501  0
C  C50  1  0.81231716  0.61388409  0.31019310  1  -0.11144  0  -0.085898  -0.222541  0  3.873191  0
C  C51  1  0.72221222  0.44565628  0.16617548  1  -0.069686  0  -0.065954  -0.02102  0  3.971366  0
C  C52  1  0.68717731  0.38610590  0.19504532  1  0.014476  0  -0.085082  -0.221754  0  3.870656  0
C  C53  1  0.14065578  0.27200418  0.63963184  1  1.624099  0  0.217512  0.66885  0  4.181444  0
C  C54  1  0.23382708  0.02561445  0.82733946  1  0.018972  0  -0.070208  -0.059814  0  3.623434  0
C  C55  1  0.86711191  0.72551610  0.36365346  1  1.598361  0  0.217737  0.638589  0  4.192474  0
C  C56  1  0.86181753  0.99635740  0.63535688  1  1.551908  0  0.2178  0.638747  0  4.193318  0
C  C57  1  0.13924669  0.00211021  0.36422691  1  1.546038  0  0.218529  0.640482  0  4.186318  0
C  C58  1  0.85797300  0.99456297  0.36565591  1  1.557616  0  0.219691  0.637703  0  4.187452  0
C  C59  1  0.35853761  0.72615359  0.85764887  1  1.573611  0  0.220546  0.638038  0  4.185789  0
C  C60  1  0.13874542  0.99624417  0.64076245  1  1.542018  0  0.226275  0.607476  0  4.176283  0
C  C61  1  0.63602170  0.99694912  0.13197240  1  1.546162  0  0.217712  0.670784  0  4.182848  0
C  C62  1  0.36164599  0.00347088  0.85985993  1  1.515016  0  0.22665  0.608456  0  4.175199  0
C  C63  1  0.23467749  0.90695650  0.70935974  1  -0.005985  0  -0.069908  -0.060051  0  3.623334  0
C  C64  1  0.26633320  0.97387674  0.67329925  1  -0.052454  0  -0.071156  -0.061089  0  3.626152  0
C  C65  1  0.26549017  0.09253542  0.79127565  1  -0.066608  0  -0.070239  -0.060496  0  3.622576  0
C  C66  1  0.19505871  0.99620719  0.69792681  1  0.017343  0  -0.008066  -0.033722  0  3.652426  0
C  C67  1  0.33553982  0.06933272  0.76617602  1  -0.038892  0  -0.077865  -0.068565  0  3.645959  0
C  C68  1  0.30515050  0.00333983  0.80271691  1  0.022243  0  -0.009199  -0.035616  0  3.65336  0
C  C69  1  0.77838735  0.94366474  0.72333474  1  0.057858  0  -0.065999  -0.021006  0  3.973387  0
C  C70  1  0.80251081  0.99655881  0.68774946  1  -0.085477  0  -0.085195  -0.221816  0  3.875376  0
C  C71  1  0.72194414  0.94324346  0.77685908  1  -0.087294  0  -0.065527  -0.0192  0  3.971513  0
O  O72  1  0.49770904  0.00013550  0.99683161  1  -1.202079  0  -0.571189  -1.030578  0  2.531311  0
O  O73  1  0.05582369  0.94461030  0.32544880  1  -1.176712  0  -0.32243  -0.553638  0  2.293446  0
O  O74  1  0.88402948  0.05948498  0.44861849  1  -1.16048  0  -0.316781  -0.544819  0  2.290505  0
O  O75  1  0.32279321  0.93708912  0.05222780  1  -1.155608  0  -0.321796  -0.553207  0  2.29482  0
O  O76  1  0.17900690  0.05598909  0.61770590  1  -1.161925  0  -0.32016  -0.55288  0  2.314369  0
O  O77  1  0.88047807  0.93403503  0.32561958  1  -1.172257  0  -0.316688  -0.548581  0  2.316229  0
O  O78  1  0.05564303  0.93734751  0.61966757  1  -1.157957  0  -0.317339  -0.548482  0  2.326184  0
O  O79  1  0.88502300  0.93631189  0.61592182  1  -1.159275  0  -0.319031  -0.554443  0  2.316756  0
O  O80  1  0.17948063  0.05695871  0.44686699  1  -1.173125  0  -0.317918  -0.553471  0  2.313845  0
O  O81  1  0.05730430  0.22980563  0.61813334  1  -1.164606  0  -0.324953  -0.555982  0  2.280927  0
O  O82  1  0.88783698  0.76885337  0.32388577  1  -1.157886  0  -0.320371  -0.555779  0  2.318461  0
O  O83  1  0.61345516  0.23235505  0.05276428  1  -1.182747  0  -0.318952  -0.554328  0  2.318617  0
O  O84  1  0.61861392  0.06630177  0.88741294  1  -1.162341  0  -0.321112  -0.551606  0  2.295306  0
O  O85  1  0.61010851  0.22976440  0.17432089  1  -1.149872  0  -0.321143  -0.551502  0  2.295799  0
O  O86  1  0.44138507  0.76839663  0.88003641  1  -1.153197  0  -0.315781  -0.546558  0  2.32073  0
O  O87  1  0.62015711  0.06414103  0.17286672  1  -1.158292  0  -0.323453  -0.555466  0  2.275944  0
O  O88  1  0.32146068  0.94394640  0.88316166  1  -1.170592  0  -0.320955  -0.55396  0  2.315842  0
O  O89  1  0.60808136  0.93182828  0.04905774  1  -1.170609  0  -0.318342  -0.55207  0  2.329357  0
O  O90  1  0.44474689  0.06223093  0.88075243  1  -1.147977  0  -0.317098  -0.549449  0  2.324262  0
O  O91  1  0.31908297  0.77021015  0.87834083  1  -1.168361  0  -0.317129  -0.546841  0  2.286725  0
O  O92  1  0.44581318  0.05889059  0.17486587  1  -1.167619  0  -0.318468  -0.553204  0  2.318958  0
O  O93  1  0.61188739  0.93655871  0.88027801  1  -1.172305  0  -0.319985  -0.556282  0  2.321662  0
O  O94  1  0.00348332  0.99902443  0.50197965  1  -1.204353  0  -0.570937  -1.029508  0  2.529291  0
O  O95  1  0.17931956  0.22728078  0.61725763  1  -1.145393  0  -0.317772  -0.551928  0  2.321856  0
O  O96  1  0.88899074  0.76911900  0.44695506  1  -1.175722  0  -0.320729  -0.551316  0  2.298016  0
O  O97  1  0.88495004  0.05842239  0.61409625  1  -1.167878  0  -0.321219  -0.5512  0  2.299347  0
F  F98  1  0.33369210  0.41422548  0.70091053  1  -0.61657  0  -0.092729  -0.133972  0  1.322913  0
F  F99  1  0.66946733  0.84174629  0.08353720  1  -0.618814  0  -0.093712  -0.134735  0  1.322259  0
