# generated using pymatgen
data_LiH7C8(ClO2)2
_symmetry_space_group_name_H-M   'P 1'
_cell_length_a   4.89211676
_cell_length_b   6.93895869
_cell_length_c   31.88216644
_cell_angle_alpha   93.59300957
_cell_angle_beta   89.99939933
_cell_angle_gamma   90.00146211
_symmetry_Int_Tables_number   1
_chemical_formula_structural   LiH7C8(ClO2)2
_chemical_formula_sum   'Li4 H28 C32 Cl8 O16'
_cell_volume   1080.15092706
_cell_formula_units_Z   4
loop_
 _symmetry_equiv_pos_site_id
 _symmetry_equiv_pos_as_xyz
  1  'x, y, z'
loop_
 _atom_site_type_symbol
 _atom_site_label
 _atom_site_symmetry_multiplicity
 _atom_site_fract_x
 _atom_site_fract_y
 _atom_site_fract_z
 _atom_site_occupancy
 _atom_site_pbe_bader_charge
 _atom_site_pbe_bader_spin_density
 _atom_site_pbe_cm5_charge
 _atom_site_pbe_ddec_charge
 _atom_site_pbe_ddec_spin_density
 _atom_site_pbe_ddec_sum_bond_order
 _atom_site_pbe_magmom
Li  Li0  1  0.19294399  0.26295952  0.27794059  1  0.862061  0  0.514186  0.809956  0  0.519988  0
Li  Li1  1  0.69294172  0.23702174  0.22205694  1  0.862035  0  0.514167  0.809884  0  0.520131  0
Li  Li2  1  0.80707153  0.73701021  0.72205794  1  0.862005  0  0.514207  0.809918  0  0.520124  0
Li  Li3  1  0.30706563  0.76296752  0.77793517  1  0.862065  0  0.514206  0.809972  0  0.520036  0
H  H4  1  0.36237594  0.91670717  0.46367528  1  0.124889  0  0.095491  0.121478  0  1.043019  0
H  H5  1  0.86234454  0.58332927  0.03632476  1  0.125064  0  0.095499  0.12144  0  1.042921  0
H  H6  1  0.63764367  0.08330896  0.53632553  1  0.124752  0  0.095486  0.121443  0  1.043075  0
H  H7  1  0.13762602  0.41668980  0.96367671  1  0.12466  0  0.095514  0.121479  0  1.042921  0
H  H8  1  0.83157820  0.39777937  0.44351741  1  0.112099  0  0.087068  0.098068  0  1.067565  0
H  H9  1  0.33153720  0.10225491  0.05649229  1  0.1126  0  0.087077  0.098003  0  1.067484  0
H  H10  1  0.16843732  0.60222379  0.55646949  1  0.112168  0  0.086954  0.098027  0  1.06757  0
H  H11  1  0.66846810  0.89776112  0.94352170  1  0.112067  0  0.08703  0.098151  0  1.067526  0
H  H12  1  0.61484079  0.21339523  0.38404785  1  0.086303  0  0.111874  0.128987  0  0.991041  0
H  H13  1  0.11483851  0.28664221  0.11596378  1  0.086922  0  0.111906  0.128929  0  0.991128  0
H  H14  1  0.38517064  0.78656693  0.61594716  1  0.085908  0  0.11186  0.128978  0  0.991031  0
H  H15  1  0.88520359  0.71339545  0.88405009  1  0.086166  0  0.111869  0.128956  0  0.991066  0
H  H16  1  0.94746674  0.57526392  0.28619615  1  0.633088  0  0.338058  0.415123  0  0.868184  0
H  H17  1  0.44745613  0.92471765  0.21380108  1  0.633046  0  0.337979  0.415011  0  0.868312  0
H  H18  1  0.05249564  0.42469289  0.71380289  1  0.633051  0  0.337927  0.415023  0  0.868186  0
H  H19  1  0.55252260  0.07528808  0.78619682  1  0.633056  0  0.338005  0.415229  0  0.868073  0
H  H20  1  0.07467751  0.58305996  0.33072755  1  0.603631  0  0.28848  0.367384  0  0.973  0
H  H21  1  0.57467648  0.91691418  0.16926862  1  0.603452  0  0.288421  0.367386  0  0.97303  0
H  H22  1  0.92531144  0.41691814  0.66926823  1  0.603533  0  0.288452  0.367448  0  0.972938  0
H  H23  1  0.42527772  0.08305100  0.83072767  1  0.603691  0  0.288449  0.367428  0  0.97294  0
H  H24  1  0.39786314  0.00808217  0.34649691  1  0.101277  0  0.112648  0.099518  0  1.016254  0
H  H25  1  0.89786970  0.49194429  0.15350824  1  0.101029  0  0.11264  0.099521  0  1.016312  0
H  H26  1  0.60212172  0.99188507  0.65350536  1  0.102025  0  0.112572  0.099462  0  1.016321  0
H  H27  1  0.10212334  0.50809050  0.84649180  1  0.101161  0  0.112632  0.099521  0  1.016087  0
H  H28  1  0.47451501  0.81442592  0.31023809  1  0.111959  0  0.122297  0.121187  0  0.967386  0
H  H29  1  0.97453780  0.68557925  0.18977312  1  0.112303  0  0.122305  0.121234  0  0.967302  0
H  H30  1  0.52550255  0.18555841  0.68976214  1  0.112183  0  0.122175  0.121033  0  0.967191  0
H  H31  1  0.02544502  0.31442731  0.81023295  1  0.111933  0  0.122314  0.121248  0  0.967346  0
C  C32  1  0.86087907  0.95696998  0.38967229  1  0.509035  0  0.079  0.192103  0  4.064653  0
C  C33  1  0.36086315  0.54305280  0.11033547  1  0.507706  0  0.079031  0.192377  0  4.064404  0
C  C34  1  0.13914872  0.04299283  0.61032899  1  0.509601  0  0.078983  0.192324  0  4.06459  0
C  C35  1  0.63912580  0.45698693  0.88967057  1  0.509207  0  0.078858  0.191999  0  4.064627  0
C  C36  1  0.07265377  0.87737874  0.41308761  1  0.062595  0  -0.001385  0.042155  0  4.038672  0
C  C37  1  0.57266516  0.62266078  0.08691353  1  0.062063  0  -0.001272  0.042049  0  4.038638  0
C  C38  1  0.92735154  0.12260678  0.58691012  1  0.06253  0  -0.00138  0.041991  0  4.038589  0
C  C39  1  0.42732583  0.37738579  0.91308881  1  0.062226  0  -0.001333  0.042175  0  4.038714  0
C  C40  1  0.19820120  0.98176330  0.44640472  1  0.070073  0  -0.107644  -0.209062  0  4.026741  0
C  C41  1  0.69818083  0.51828335  0.05359974  1  0.069958  0  -0.107784  -0.209042  0  4.026397  0
C  C42  1  0.80180819  0.01825571  0.55359612  1  0.069838  0  -0.107669  -0.209015  0  4.026756  0
C  C43  1  0.30179790  0.48175173  0.94640313  1  0.070198  0  -0.107655  -0.209025  0  4.026613  0
C  C44  1  0.11098414  0.16976331  0.45694643  1  -0.032031  0  -0.00271  0.139879  0  4.063514  0
C  C45  1  0.61094188  0.33026057  0.04306038  1  -0.031083  0  -0.002664  0.140018  0  4.062901  0
C  C46  1  0.88903343  0.83022772  0.54304883  1  -0.032087  0  -0.002659  0.139957  0  4.063429  0
C  C47  1  0.38903277  0.66977041  0.95694465  1  -0.0319  0  -0.00268  0.139915  0  4.063431  0
C  C48  1  0.89924418  0.25158954  0.43489759  1  0.048533  0  -0.107848  -0.150673  0  4.061638  0
C  C49  1  0.39922572  0.24843987  0.06510789  1  0.048158  0  -0.107812  -0.150605  0  4.061594  0
C  C50  1  0.10074477  0.74839966  0.56509389  1  0.048166  0  -0.10789  -0.15076  0  4.061726  0
C  C51  1  0.60077141  0.75159134  0.93489933  1  0.048567  0  -0.107869  -0.150828  0  4.061762  0
C  C52  1  0.77721872  0.14600128  0.40129226  1  -0.010612  0  -0.103225  -0.178202  0  3.988743  0
C  C53  1  0.27720957  0.35404496  0.09871795  1  -0.010916  0  -0.10322  -0.178283  0  3.989065  0
C  C54  1  0.22278862  0.85398440  0.59870704  1  -0.010013  0  -0.103078  -0.178222  0  3.988926  0
C  C55  1  0.72279164  0.64599654  0.90129125  1  -0.010454  0  -0.103146  -0.17811  0  3.98887  0
C  C56  1  0.56729207  0.93349619  0.32966863  1  0.361244  0  -0.06404  -0.141347  0  3.86746  0
C  C57  1  0.06730553  0.56652212  0.17033766  1  0.361018  0  -0.064003  -0.141221  0  3.867369  0
C  C58  1  0.43272550  0.06647197  0.67032862  1  0.359947  0  -0.063824  -0.141122  0  3.867162  0
C  C59  1  0.93268342  0.43348547  0.82966434  1  0.361402  0  -0.064082  -0.141311  0  3.867195  0
C  C60  1  0.71522115  0.06961614  0.30106258  1  1.604935  0  0.221329  0.640097  0  4.209866  0
C  C61  1  0.21520356  0.43036867  0.19893714  1  1.604841  0  0.221259  0.639801  0  4.209935  0
C  C62  1  0.28482503  0.93036569  0.69894139  1  1.604451  0  0.221423  0.640315  0  4.209752  0
C  C63  1  0.78476699  0.56962076  0.80105654  1  1.605203  0  0.221344  0.639856  0  4.209826  0
Cl  Cl64  1  0.18322014  0.64373509  0.40052117  1  -0.213099  0  0.044321  -0.021045  0  1.668871  0
Cl  Cl65  1  0.68320758  0.85631217  0.09947799  1  -0.212868  0  0.044362  -0.020886  0  1.669037  0
Cl  Cl66  1  0.81683218  0.35625400  0.59948318  1  -0.21329  0  0.044355  -0.020951  0  1.668924  0
Cl  Cl67  1  0.31678341  0.14372388  0.90052018  1  -0.213124  0  0.044331  -0.020999  0  1.668859  0
Cl  Cl68  1  0.27738736  0.30419029  0.49687422  1  -0.228443  0  0.007367  -0.073246  0  1.673541  0
Cl  Cl69  1  0.77736595  0.19583116  0.00313326  1  -0.228363  0  0.007301  -0.073364  0  1.673047  0
Cl  Cl70  1  0.72261590  0.69583805  0.50311918  1  -0.227832  0  0.007373  -0.073299  0  1.673635  0
Cl  Cl71  1  0.22262709  0.80419277  0.99687327  1  -0.228406  0  0.007348  -0.073295  0  1.673436  0
O  O72  1  0.10036177  0.52733484  0.30200514  1  -1.245161  0  -0.615602  -0.807264  0  1.952255  0
O  O73  1  0.60036467  0.97265292  0.19799236  1  -1.244947  0  -0.615505  -0.807195  0  1.952418  0
O  O74  1  0.89961287  0.47263913  0.69799248  1  -1.24502  0  -0.615484  -0.80723  0  1.952131  0
O  O75  1  0.39958953  0.02735088  0.80200082  1  -1.245151  0  -0.615512  -0.807462  0  1.952001  0
O  O76  1  0.74921090  0.84313282  0.35778507  1  -1.088421  0  -0.185083  -0.201236  0  2.647159  0
O  O77  1  0.24922716  0.65690501  0.14222206  1  -1.088085  0  -0.185213  -0.201483  0  2.64692  0
O  O78  1  0.25079849  0.15683852  0.64221504  1  -1.088172  0  -0.185069  -0.201236  0  2.647078  0
O  O79  1  0.75076997  0.34313168  0.85778239  1  -1.088526  0  -0.185084  -0.201301  0  2.646991  0
O  O80  1  0.97162956  0.06535807  0.29990029  1  -1.21784  0  -0.385251  -0.648172  0  2.189573  0
O  O81  1  0.47166313  0.43461079  0.20009168  1  -1.217682  0  -0.385258  -0.648144  0  2.188953  0
O  O82  1  0.02836144  0.93462241  0.70010460  1  -1.21738  0  -0.385368  -0.648402  0  2.189087  0
O  O83  1  0.52834626  0.56536231  0.79989746  1  -1.217855  0  -0.385127  -0.647913  0  2.189536  0
O  O84  1  0.56293779  0.17539602  0.27926914  1  -1.256315  0  -0.4493  -0.745647  0  2.200593  0
O  O85  1  0.06294391  0.32459574  0.22072899  1  -1.256058  0  -0.449238  -0.745443  0  2.200955  0
O  O86  1  0.43709000  0.82459544  0.72073021  1  -1.25621  0  -0.449372  -0.745707  0  2.200996  0
O  O87  1  0.93709410  0.67538211  0.77926427  1  -1.256337  0  -0.449397  -0.74569  0  2.200731  0
