# generated using pymatgen
data_AlH4C12SCl2O5
_symmetry_space_group_name_H-M   'P 1'
_cell_length_a   6.67895020
_cell_length_b   12.77758917
_cell_length_c   17.74492582
_cell_angle_alpha   84.70749550
_cell_angle_beta   79.22884646
_cell_angle_gamma   74.84004773
_symmetry_Int_Tables_number   1
_chemical_formula_structural   AlH4C12SCl2O5
_chemical_formula_sum   'Al2 H8 C24 S2 Cl4 O10'
_cell_volume   1434.41186319
_cell_formula_units_Z   2
loop_
 _symmetry_equiv_pos_site_id
 _symmetry_equiv_pos_as_xyz
  1  'x, y, z'
loop_
 _atom_site_type_symbol
 _atom_site_label
 _atom_site_symmetry_multiplicity
 _atom_site_fract_x
 _atom_site_fract_y
 _atom_site_fract_z
 _atom_site_occupancy
 _atom_site_pbe_bader_charge
 _atom_site_pbe_bader_spin_density
 _atom_site_pbe_cm5_charge
 _atom_site_pbe_ddec_charge
 _atom_site_pbe_ddec_spin_density
 _atom_site_pbe_ddec_sum_bond_order
 _atom_site_pbe_magmom
Al  Al0  1  0.48928407  0.49824244  0.50124928  1  2.504841  0  0.395197  1.644136  0  2.577228  0
Al  Al1  1  0.99022992  0.49822536  0.49863887  1  2.503715  0  0.397952  1.643683  0  2.569089  0
H  H2  1  0.26894865  0.37972000  0.55951224  1  0.634339  0  0.344636  0.422661  0  0.872584  0
H  H3  1  0.70139850  0.62090987  0.44575013  1  0.631873  0  0.342147  0.418888  0  0.880442  0
H  H4  1  0.65660903  0.53921158  0.27325353  1  0.114865  0  0.112163  0.121249  0  0.989191  0
H  H5  1  0.73399759  0.55165135  0.12964241  1  0.083305  0  0.102327  0.109493  0  1.010232  0
H  H6  1  0.11060006  0.42420026  0.26451648  1  0.134283  0  0.114928  0.135002  0  0.983887  0
H  H7  1  0.89164116  0.58331513  0.72183210  1  0.119493  0  0.115115  0.135402  0  0.982856  0
H  H8  1  0.34785967  0.45546891  0.73995722  1  0.09109  0  0.111183  0.119876  0  0.98802  0
H  H9  1  0.31103742  0.44672598  0.88327828  1  0.088381  0  0.103642  0.110008  0  1.003146  0
C  C10  1  0.84033073  0.30300844  0.50253064  1  1.583706  0  0.26057  0.663183  0  4.13243  0
C  C11  1  0.65918978  0.51293464  0.63759572  1  1.57845  0  0.265501  0.638553  0  4.098086  0
C  C12  1  0.13836294  0.69402034  0.49749107  1  1.621643  0  0.261532  0.666261  0  4.130015  0
C  C13  1  0.32623590  0.48444565  0.36247957  1  1.596289  0  0.265124  0.63647  0  4.104405  0
C  C14  1  0.37769587  0.48279623  0.27707124  1  -0.00142  0  -0.011359  -0.019243  0  3.97597  0
C  C15  1  0.55608725  0.51642668  0.23920400  1  -0.002881  0  -0.082613  -0.100263  0  3.986823  0
C  C16  1  0.59961073  0.52269645  0.15968996  1  -0.076246  0  -0.080321  -0.107342  0  3.955001  0
C  C17  1  0.47205778  0.49072769  0.11557653  1  0.089794  0  -0.00111  0.082981  0  4.089981  0
C  C18  1  0.29865656  0.45181906  0.15512253  1  0.019928  0  0.020526  0.107998  0  4.003147  0
C  C19  1  0.24826562  0.45072905  0.23483059  1  0.03686  0  -0.085158  -0.164098  0  3.962667  0
C  C20  1  0.51488573  0.49877801  0.03473485  1  0.212324  0  -0.043483  -0.088711  0  4.129349  0
C  C21  1  0.54807365  0.50804975  0.96474232  1  -0.539821  0  -0.042932  -0.08927  0  4.13139  0
C  C22  1  0.57398163  0.51428540  0.88390222  1  0.195683  0  -0.001866  0.082359  0  4.089648  0
C  C23  1  0.73466426  0.55594103  0.83710068  1  0.030417  0  0.020109  0.108127  0  4.008432  0
C  C24  1  0.76289696  0.55510595  0.75750070  1  0.052698  0  -0.08506  -0.163193  0  3.960036  0
C  C25  1  0.62355453  0.51831539  0.72276350  1  -0.025367  0  -0.011686  -0.019361  0  3.977102  0
C  C26  1  0.45678612  0.48207148  0.76794889  1  -0.089279  0  -0.084035  -0.104062  0  3.995585  0
C  C27  1  0.43572672  0.47774306  0.84730953  1  0.026669  0  -0.07916  -0.103909  0  3.949936  0
C  C28  1  0.20470672  0.88524742  0.46781151  1  0.147245  0  0.009264  0.102755  0  4.080545  0
C  C29  1  0.77297654  0.11191783  0.53263458  1  0.160902  0  0.009623  0.103847  0  4.078078  0
C  C30  1  0.08275355  0.81316086  0.49775244  1  -0.113766  0  -0.023622  -0.190214  0  3.932809  0
C  C31  1  0.89511094  0.18392167  0.50256208  1  -0.075078  0  -0.023164  -0.188355  0  3.929295  0
C  C32  1  0.88589287  0.00289810  0.51993590  1  -0.135798  0  -0.029017  -0.075286  0  4.099948  0
C  C33  1  0.09176968  0.99427376  0.48041718  1  -0.172275  0  -0.027335  -0.072716  0  4.099757  0
S  S34  1  0.82951705  0.87861830  0.54060574  1  0.316773  0  0.101265  0.163809  0  2.818404  0
S  S35  1  0.14806189  0.11848677  0.45950355  1  0.312056  0  0.101846  0.164421  0  2.821942  0
Cl  Cl36  1  0.14706632  0.40573313  0.10309935  1  -0.207411  0  0.000432  -0.076419  0  1.503609  0
Cl  Cl37  1  0.89802089  0.60794050  0.87967202  1  -0.203295  0  -0.001354  -0.07677  0  1.500167  0
Cl  Cl38  1  0.45630287  0.85287482  0.41798035  1  -0.173693  0  0.021154  -0.029323  0  1.551458  0
Cl  Cl39  1  0.52147931  0.14414145  0.58249322  1  -0.165742  0  0.020982  -0.029139  0  1.551896  0
O  O40  1  0.64597880  0.35142425  0.51486095  1  -1.2552  0  -0.230938  -0.586453  0  2.37382  0
O  O41  1  0.84990723  0.49643176  0.60366531  1  -1.255114  0  -0.238682  -0.596009  0  2.348947  0
O  O42  1  0.98552575  0.64885126  0.50710428  1  -1.241371  0  -0.236336  -0.583939  0  2.319009  0
O  O43  1  0.48147981  0.47365110  0.39717206  1  -1.261751  0  -0.236305  -0.588242  0  2.353691  0
O  O44  1  0.33289290  0.64574620  0.48797810  1  -1.251747  0  -0.231919  -0.587872  0  2.367685  0
O  O45  1  0.13298484  0.49960653  0.39353947  1  -1.262542  0  -0.238754  -0.593302  0  2.322768  0
O  O46  1  0.99368618  0.34813468  0.48979932  1  -1.249713  0  -0.235728  -0.583261  0  2.315442  0
O  O47  1  0.49850519  0.52201164  0.60607376  1  -1.252734  0  -0.238194  -0.589118  0  2.320113  0
O  O48  1  0.24399308  0.45207878  0.53531727  1  -1.438742  0  -0.448597  -0.989307  0  2.199262  0
O  O49  1  0.73305555  0.54576179  0.46476591  1  -1.436631  0  -0.44849  -0.985986  0  2.192812  0
