# generated using pymatgen
data_AlH9C24Br3(NO2)3
_symmetry_space_group_name_H-M   'P 1'
_cell_length_a   3.98369194
_cell_length_b   15.84827780
_cell_length_c   15.66642979
_cell_angle_alpha   60.61172981
_cell_angle_beta   82.42536930
_cell_angle_gamma   82.92892045
_symmetry_Int_Tables_number   1
_chemical_formula_structural   AlH9C24Br3(NO2)3
_chemical_formula_sum   'Al1 H9 C24 Br3 N3 O6'
_cell_volume   852.33611107
_cell_formula_units_Z   1
loop_
 _symmetry_equiv_pos_site_id
 _symmetry_equiv_pos_as_xyz
  1  'x, y, z'
loop_
 _atom_site_type_symbol
 _atom_site_label
 _atom_site_symmetry_multiplicity
 _atom_site_fract_x
 _atom_site_fract_y
 _atom_site_fract_z
 _atom_site_occupancy
 _atom_site_pbe_bader_charge
 _atom_site_pbe_bader_spin_density
 _atom_site_pbe_cm5_charge
 _atom_site_pbe_ddec_charge
 _atom_site_pbe_ddec_spin_density
 _atom_site_pbe_ddec_sum_bond_order
 _atom_site_pbe_magmom
Al  Al0  1  0.98535790  0.49694852  0.50142477  1  2.504751  0  0.424071  1.604974  0  2.565396  0
H  H1  1  0.34901124  0.76250875  0.50536178  1  0.115069  0  0.110045  0.114993  0  0.985423  0
H  H2  1  0.36624595  0.85953902  0.59171486  1  0.077216  0  0.109031  0.112563  0  1.001972  0
H  H3  1  0.41457940  0.59512733  0.86700472  1  0.158884  0  0.108039  0.120888  0  1.012942  0
H  H4  1  0.47531639  0.04542262  0.58812816  1  0.113682  0  0.108017  0.120492  0  1.011172  0
H  H5  1  0.52423152  0.23187599  0.76444980  1  0.088581  0  0.110408  0.116592  0  0.979101  0
H  H6  1  0.51090527  0.05087951  0.85851896  1  0.096542  0  0.108183  0.110583  0  1.005699  0
H  H7  1  0.59505033  0.86225209  0.04413619  1  0.076244  0  0.106995  0.120072  0  1.012285  0
H  H8  1  0.36637131  0.51373967  0.23582089  1  0.065989  0  0.111628  0.120269  0  0.983936  0
H  H9  1  0.35510150  0.60097314  0.05259056  1  0.105533  0  0.108931  0.112624  0  1.003387  0
C  C10  1  0.51530258  0.57659365  0.35114428  1  1.603609  0  0.277696  0.66755  0  4.048373  0
C  C11  1  0.41253405  0.57074556  0.58036258  1  1.620059  0  0.277149  0.666355  0  4.061009  0
C  C12  1  0.51671226  0.34815114  0.57204611  1  1.628346  0  0.27842  0.668853  0  4.060514  0
C  C13  1  0.47441077  0.93076330  0.78397276  1  1.092641  0  0.257837  0.383593  0  4.012323  0
C  C14  1  0.41868682  0.78823389  0.78668541  1  1.084587  0  0.257425  0.382973  0  4.015198  0
C  C15  1  0.46345511  0.78985442  0.92915328  1  1.053843  0  0.257898  0.384325  0  4.016115  0
C  C16  1  0.36337727  0.72670944  0.58473405  1  -0.084608  0  -0.074492  -0.078329  0  3.956037  0
C  C17  1  0.37335133  0.78063229  0.63238823  1  0.000243  0  -0.079457  -0.102708  0  3.965412  0
C  C18  1  0.39558101  0.73306645  0.73440903  1  0.097409  0  -0.004167  0.018644  0  3.96857  0
C  C19  1  0.40248904  0.63144472  0.78775801  1  -0.042491  0  -0.084217  -0.150566  0  3.950512  0
C  C20  1  0.39812893  0.57813019  0.73926766  1  -0.140739  0  -0.00602  0.100474  0  3.934007  0
C  C21  1  0.38276928  0.62486258  0.63694155  1  0.032089  0  -0.004852  -0.062373  0  3.917389  0
C  C22  1  0.49210095  0.08635034  0.62624078  1  0.001757  0  -0.083737  -0.148776  0  3.947712  0
C  C23  1  0.50775281  0.18665953  0.57434289  1  -0.1464  0  -0.007795  0.095968  0  3.940985  0
C  C24  1  0.51980963  0.23975979  0.62363072  1  0.022639  0  -0.003771  -0.060814  0  3.921961  0
C  C25  1  0.51919440  0.18998693  0.72644160  1  -0.017931  0  -0.076508  -0.080939  0  3.962122  0
C  C26  1  0.51058216  0.08969837  0.77879272  1  -0.008398  0  -0.0795  -0.100879  0  3.970087  0
C  C27  1  0.49453674  0.03719213  0.72891484  1  0.030272  0  -0.004857  0.016018  0  3.972275  0
C  C28  1  0.55189444  0.78534180  0.08614362  1  0.027272  0  -0.085424  -0.157192  0  3.952015  0
C  C29  1  0.57100064  0.73544857  0.18758760  1  0.013663  0  -0.004992  0.102849  0  3.930804  0
C  C30  1  0.50616270  0.63662135  0.24251428  1  -0.038921  0  -0.008378  -0.075955  0  3.918299  0
C  C31  1  0.42276989  0.58979793  0.19234761  1  -0.049317  0  -0.074694  -0.07365  0  3.956073  0
C  C32  1  0.41429350  0.63806656  0.09109585  1  0.012298  0  -0.080645  -0.104605  0  3.967015  0
C  C33  1  0.47744841  0.73685394  0.03713913  1  -0.007843  0  -0.000274  0.026074  0  3.962275  0
Br  Br34  1  0.39563943  0.44082164  0.81687034  1  -0.048392  0  0.022489  -0.06536  0  1.460575  0
Br  Br35  1  0.49009100  0.25047086  0.43561611  1  -0.040329  0  0.024649  -0.062084  0  1.460076  0
Br  Br36  1  0.66705800  0.80894487  0.24658659  1  -0.045253  0  0.026891  -0.059326  0  1.480399  0
N  N37  1  0.43887998  0.88483441  0.73301460  1  -1.183119  0  -0.306961  -0.407872  0  3.20742  0
N  N38  1  0.42344599  0.73773696  0.88509163  1  -1.180747  0  -0.307618  -0.408945  0  3.215675  0
N  N39  1  0.49319377  0.88623290  0.88189771  1  -1.198368  0  -0.30806  -0.408491  0  3.206603  0
O  O40  1  0.25571078  0.39152446  0.59345941  1  -1.249896  0  -0.234069  -0.590784  0  2.366914  0
O  O41  1  0.30179905  0.51118926  0.39468934  1  -1.245899  0  -0.239556  -0.609783  0  2.400881  0
O  O42  1  0.19417955  0.59113928  0.51951452  1  -1.237993  0  -0.231531  -0.579928  0  2.336521  0
O  O43  1  0.77057132  0.38858569  0.51370002  1  -1.244821  0  -0.228882  -0.585738  0  2.392177  0
O  O44  1  0.66652178  0.50934863  0.59564214  1  -1.261718  0  -0.234422  -0.602698  0  2.433885  0
O  O45  1  0.73439617  0.59130286  0.39355754  1  -1.250033  0  -0.230923  -0.589929  0  2.424364  0
