# generated using pymatgen
data_Zn4H48C76N12O13
_symmetry_space_group_name_H-M   'P 1'
_cell_length_a   15.03337351
_cell_length_b   17.54188035
_cell_length_c   19.89100383
_cell_angle_alpha   115.11304843
_cell_angle_beta   92.59104547
_cell_angle_gamma   105.27478836
_symmetry_Int_Tables_number   1
_chemical_formula_structural   Zn4H48C76N12O13
_chemical_formula_sum   'Zn8 H96 C152 N24 O26'
_cell_volume   4507.25556880
_cell_formula_units_Z   2
loop_
 _symmetry_equiv_pos_site_id
 _symmetry_equiv_pos_as_xyz
  1  'x, y, z'
loop_
 _atom_site_type_symbol
 _atom_site_label
 _atom_site_symmetry_multiplicity
 _atom_site_fract_x
 _atom_site_fract_y
 _atom_site_fract_z
 _atom_site_occupancy
 _atom_site_pbe_bader_charge
 _atom_site_pbe_bader_spin_density
 _atom_site_pbe_cm5_charge
 _atom_site_pbe_ddec_charge
 _atom_site_pbe_ddec_spin_density
 _atom_site_pbe_ddec_sum_bond_order
 _atom_site_pbe_magmom
Zn  Zn0  1  0.73549190  0.64144401  0.34314044  1  1.256753  0  0.698255  0.777939  0  2.354848  0
Zn  Zn1  1  0.79612121  0.70067309  0.94578382  1  1.253224  0  0.694453  0.772028  0  2.381744  0
Zn  Zn2  1  0.86028391  0.77765609  0.67878421  1  1.234489  0  0.712925  0.674284  0  2.476355  0
Zn  Zn3  1  0.66832407  0.56392514  0.60962011  1  1.259855  0  0.70851  0.782938  0  2.391434  0
Zn  Zn4  1  0.26450736  0.35855481  0.65685817  1  1.256744  0  0.698229  0.777905  0  2.354856  0
Zn  Zn5  1  0.20387539  0.29932774  0.05421595  1  1.253107  0  0.694451  0.772038  0  2.381761  0
Zn  Zn6  1  0.13971489  0.22234736  0.32121309  1  1.234721  0  0.71295  0.674316  0  2.476206  0
Zn  Zn7  1  0.33167807  0.43607235  0.39037709  1  1.259717  0  0.708531  0.783067  0  2.391414  0
H  H8  1  0.51783664  0.59743868  0.58827152  1  0.672165  0  0.286951  0.389622  0  0.952407  0
H  H9  1  0.51358907  0.57081107  0.65722385  1  0.654014  0  0.283675  0.381066  0  0.965939  0
H  H10  1  0.68780669  0.20196269  0.17037197  1  0.052145  0  0.101634  0.102481  0  1.012263  0
H  H11  1  0.60660157  0.67577435  0.99079209  1  0.158455  0  0.122222  0.101298  0  1.004281  0
H  H12  1  0.52975155  0.59975813  0.27722451  1  0.140406  0  0.121447  0.098866  0  1.007472  0
H  H13  1  0.41917636  0.68550551  0.28905776  1  0.094188  0  0.109914  0.115518  0  1.013647  0
H  H14  1  0.34216521  0.12170247  0.42027770  1  0.096787  0  0.101563  0.100065  0  1.034254  0
H  H15  1  0.62317611  0.12107687  0.47115179  1  0.059559  0  0.101579  0.103427  0  1.008958  0
H  H16  1  0.57388951  0.98836514  0.40422003  1  0.059943  0  0.106131  0.112838  0  1.029539  0
H  H17  1  0.40265003  0.28490311  0.46253536  1  0.08826  0  0.099246  0.101926  0  1.018553  0
H  H18  1  0.64496571  0.06619706  0.10987339  1  0.080729  0  0.105857  0.110635  0  1.031161  0
H  H19  1  0.77576702  0.06289194  0.73676341  1  0.103076  0  0.114169  0.121877  0  1.000144  0
H  H20  1  0.67913629  0.56058764  0.77277936  1  0.161041  0  0.14451  0.117991  0  0.98701  0
H  H21  1  0.33109114  0.76315737  0.34916418  1  0.073093  0  0.107356  0.115747  0  1.020913  0
H  H22  1  0.87980365  0.96757099  0.70779319  1  0.153576  0  0.125659  0.110745  0  0.999201  0
H  H23  1  0.73055568  0.36540015  0.23630047  1  0.089508  0  0.109121  0.114686  0  0.986213  0
H  H24  1  0.46811588  0.90138765  0.71051121  1  0.025657  0  0.106726  0.11761  0  1.013237  0
H  H25  1  0.81843595  0.89086376  0.00541027  1  0.173966  0  0.120189  0.10705  0  1.047533  0
H  H26  1  0.69892064  0.14404067  0.81139092  1  0.066508  0  0.105881  0.113028  0  1.02674  0
H  H27  1  0.89587517  0.80155821  0.84995412  1  0.186535  0  0.143969  0.123808  0  0.999722  0
H  H28  1  0.64670989  0.92149098  0.43607938  1  0.066141  0  0.110301  0.11579  0  1.012006  0
H  H29  1  0.67435330  0.76414649  0.71881899  1  0.106905  0  0.115471  0.086142  0  1.027435  0
H  H30  1  0.56345887  0.84914324  0.74781227  1  0.100945  0  0.111176  0.118236  0  1.020469  0
H  H31  1  0.64150326  0.53086433  0.43616591  1  0.209252  0  0.140262  0.113972  0  1.012506  0
H  H32  1  0.86077148  0.77123841  0.51390402  1  0.243037  0  0.144884  0.128553  0  1.002431  0
H  H33  1  0.40779064  0.82905799  0.02223000  1  0.059337  0  0.10709  0.114202  0  1.024025  0
H  H34  1  0.39724762  0.18387908  0.13017346  1  0.090107  0  0.099955  0.09676  0  1.042767  0
H  H35  1  0.73585471  0.27006052  0.82523448  1  0.050636  0  0.100017  0.099492  0  1.018095  0
H  H36  1  0.49989571  0.76510888  0.03689881  1  0.084524  0  0.111068  0.118472  0  1.00912  0
H  H37  1  0.44893032  0.25843942  0.84473032  1  0.087032  0  0.102545  0.103201  0  1.023687  0
H  H38  1  0.09329465  0.72413524  0.98654537  1  0.14232  0  0.108745  0.116386  0  0.987978  0
H  H39  1  0.68120363  0.28341019  0.52012199  1  0.077551  0  0.108449  0.11525  0  0.985658  0
H  H40  1  0.44095291  0.34875657  0.19838134  1  0.099267  0  0.102836  0.106619  0  1.017768  0
H  H41  1  0.25867798  0.04643680  0.09029945  1  0.052483  0  0.097873  0.091616  0  1.051117  0
H  H42  1  0.74944812  0.82597444  0.41305152  1  0.197386  0  0.118995  0.106817  0  1.054815  0
H  H43  1  0.77953601  0.43262685  0.87203120  1  0.109039  0  0.107884  0.116086  0  0.988506  0
H  H44  1  0.49284756  0.42204474  0.88594822  1  0.070768  0  0.107872  0.11351  0  0.987162  0
H  H45  1  0.26676144  0.77930619  0.01376393  1  0.038465  0  0.099948  0.100542  0  1.009949  0
H  H46  1  0.71863654  0.98894136  0.04678856  1  0.060983  0  0.110095  0.116483  0  1.018536  0
H  H47  1  0.08353351  0.98878063  0.05471715  1  0.096943  0  0.107204  0.119221  0  1.000244  0
H  H48  1  0.15680585  0.80293541  0.71575253  1  0.096019  0  0.10411  0.111294  0  0.997754  0
H  H49  1  0.33073149  0.86607784  0.74365050  1  0.055555  0  0.094121  0.088944  0  1.04706  0
H  H50  1  0.30895781  0.08877719  0.71178045  1  0.080776  0  0.098287  0.099058  0  1.03287  0
H  H51  1  0.13400703  0.01982951  0.67627600  1  0.098456  0  0.108404  0.114655  0  0.989611  0
H  H52  1  0.02442158  0.93154897  0.44304487  1  0.102798  0  0.10957  0.116411  0  0.998951  0
H  H53  1  0.19636568  0.98622170  0.44517506  1  0.133428  0  0.102718  0.106337  0  1.015377  0
H  H54  1  0.18882634  0.71946302  0.29696567  1  0.051333  0  0.096433  0.094566  0  1.019888  0
H  H55  1  0.01721916  0.66699599  0.29291520  1  0.10197  0  0.107582  0.114754  0  0.991685  0
H  H56  1  0.48217082  0.40256477  0.41172957  1  0.672309  0  0.286954  0.389585  0  0.952461  0
H  H57  1  0.48642037  0.42919635  0.34277728  1  0.653906  0  0.283647  0.381008  0  0.966021  0
H  H58  1  0.31219302  0.79803946  0.82962940  1  0.052123  0  0.101627  0.102451  0  1.012298  0
H  H59  1  0.39339969  0.32422646  0.00920783  1  0.158424  0  0.122205  0.101286  0  1.004255  0
H  H60  1  0.47024793  0.40024136  0.72277385  1  0.14044  0  0.121442  0.098861  0  1.007399  0
H  H61  1  0.58082271  0.31449268  0.71094513  1  0.094181  0  0.109919  0.115503  0  1.013527  0
H  H62  1  0.65783917  0.87829570  0.57972435  1  0.096776  0  0.101556  0.100105  0  1.034248  0
H  H63  1  0.37682388  0.87891802  0.52885392  1  0.059608  0  0.101574  0.103424  0  1.009044  0
H  H64  1  0.42611069  0.01163241  0.59578617  1  0.060035  0  0.106118  0.112866  0  1.029562  0
H  H65  1  0.59735744  0.71509236  0.53746025  1  0.08809  0  0.09925  0.101885  0  1.018747  0
H  H66  1  0.35503224  0.93380577  0.89013019  1  0.080669  0  0.105826  0.110594  0  1.031181  0
H  H67  1  0.22423223  0.93711087  0.26323668  1  0.103165  0  0.114199  0.121923  0  1.000123  0
H  H68  1  0.32086141  0.43940653  0.22721395  1  0.160899  0  0.144506  0.117946  0  0.987089  0
H  H69  1  0.66890349  0.23683950  0.65083808  1  0.077246  0  0.10734  0.115731  0  1.020946  0
H  H70  1  0.12019981  0.03243644  0.29220724  1  0.153414  0  0.125649  0.110717  0  0.999298  0
H  H71  1  0.26943915  0.63460533  0.76370298  1  0.089455  0  0.109091  0.114679  0  0.986125  0
H  H72  1  0.53188583  0.09861251  0.28948948  1  0.025662  0  0.106729  0.117616  0  1.013239  0
H  H73  1  0.18156262  0.10913903  0.99458627  1  0.174171  0  0.120154  0.106996  0  1.047635  0
H  H74  1  0.30108152  0.85596281  0.18861202  1  0.066355  0  0.105877  0.11303  0  1.026821  0
H  H75  1  0.10411524  0.19844197  0.15004672  1  0.18657  0  0.143921  0.123818  0  0.999675  0
H  H76  1  0.35328850  0.07850919  0.56392322  1  0.066162  0  0.110262  0.115699  0  1.01204  0
H  H77  1  0.32565285  0.23585499  0.28118334  1  0.106924  0  0.115465  0.086156  0  1.027381  0
H  H78  1  0.43655061  0.15086222  0.25219416  1  0.101208  0  0.111224  0.118361  0  1.020257  0
H  H79  1  0.35849867  0.46913251  0.56383305  1  0.209276  0  0.140291  0.113982  0  1.012509  0
H  H80  1  0.13922223  0.22876373  0.48609363  1  0.243015  0  0.144902  0.128589  0  1.002387  0
H  H81  1  0.59221126  0.17094279  0.97776540  1  0.059337  0  0.107123  0.114217  0  1.023971  0
H  H82  1  0.60275166  0.81611975  0.86982666  1  0.090013  0  0.099952  0.096763  0  1.042725  0
H  H83  1  0.26414439  0.72993571  0.17477321  1  0.050614  0  0.10004  0.099521  0  1.018058  0
H  H84  1  0.50010731  0.23489524  0.96310139  1  0.084441  0  0.111143  0.118519  0  1.009075  0
H  H85  1  0.55106631  0.74156144  0.15527549  1  0.08732  0  0.102564  0.103197  0  1.023689  0
H  H86  1  0.90670660  0.27586157  0.01344954  1  0.14221  0  0.1087  0.11629  0  0.98799  0
H  H87  1  0.31880299  0.71658467  0.47988141  1  0.077884  0  0.108487  0.11528  0  0.985694  0
H  H88  1  0.55904058  0.65124293  0.80161684  1  0.099358  0  0.102816  0.106556  0  1.017957  0
H  H89  1  0.74132037  0.95356133  0.90969284  1  0.052421  0  0.097894  0.091571  0  1.051144  0
H  H90  1  0.25055071  0.17402307  0.58694810  1  0.197331  0  0.118992  0.106768  0  1.054879  0
H  H91  1  0.22046419  0.56737268  0.12797625  1  0.108917  0  0.107848  0.116066  0  0.988507  0
H  H92  1  0.50715152  0.57795744  0.11405817  1  0.07082  0  0.107863  0.113495  0  0.987128  0
H  H93  1  0.73324070  0.22069328  0.98623401  1  0.038476  0  0.099967  0.100577  0  1.009977  0
H  H94  1  0.28136290  0.01106407  0.95320698  1  0.061162  0  0.110103  0.116538  0  1.018496  0
H  H95  1  0.91646727  0.01121683  0.94527396  1  0.097181  0  0.107172  0.11921  0  1.000155  0
H  H96  1  0.84319764  0.19706009  0.28424548  1  0.095602  0  0.104128  0.111326  0  0.997801  0
H  H97  1  0.66926842  0.13392295  0.25634585  1  0.05555  0  0.094126  0.088929  0  1.047066  0
H  H98  1  0.69103928  0.91122898  0.28822988  1  0.080847  0  0.098273  0.099111  0  1.032821  0
H  H99  1  0.86598650  0.98017202  0.32372997  1  0.099003  0  0.108389  0.114615  0  0.98958  0
H  H100  1  0.97557635  0.06844986  0.55695370  1  0.10285  0  0.109552  0.116372  0  0.998902  0
H  H101  1  0.80363362  0.01377915  0.55483134  1  0.133441  0  0.102741  0.106397  0  1.015413  0
H  H102  1  0.81117028  0.28053982  0.70303836  1  0.051419  0  0.096489  0.094697  0  1.019822  0
H  H103  1  0.98277766  0.33300748  0.70708506  1  0.101609  0  0.107569  0.114782  0  0.99169  0
C  C104  1  0.52279816  0.81252300  0.36340728  1  -0.0394  0  0.020257  0.113447  0  3.948376  0
C  C105  1  0.63265344  0.23292094  0.17596451  1  -0.122286  0  -0.091743  -0.128212  0  3.989419  0
C  C106  1  0.62917669  0.74622419  0.00615521  1  0.431572  0  0.055169  0.105629  0  3.924928  0
C  C107  1  0.55291485  0.67150588  0.31082839  1  0.46395  0  0.053882  0.104116  0  3.920964  0
C  C108  1  0.54588529  0.29457846  0.49389631  1  -0.091194  0  -0.014032  -0.023672  0  3.979057  0
C  C109  1  0.47786961  0.10949823  0.44124851  1  -0.061292  0  -0.00824  0.030819  0  3.977726  0
C  C110  1  0.49123253  0.72028858  0.31894030  1  -0.002032  0  -0.073415  -0.152414  0  3.915336  0
C  C111  1  0.61217937  0.46476000  0.27274397  1  1.574418  0  0.214974  0.579929  0  4.197521  0
C  C112  1  0.41667856  0.15758959  0.44046141  1  0.071824  0  -0.08767  -0.11307  0  3.979982  0
C  C113  1  0.57387507  0.15596247  0.46878823  1  -0.069034  0  -0.087075  -0.116852  0  3.98358  0
C  C114  1  0.49900194  0.95927738  0.39910841  1  -0.041466  0  -0.083089  -0.208149  0  3.904065  0
C  C115  1  0.59272651  0.01614078  0.75950773  1  -0.002126  0  0.006142  0.108067  0  3.995082  0
C  C116  1  0.45041497  0.24850881  0.46473570  1  -0.124325  0  -0.087263  -0.09505  0  3.966923  0
C  C117  1  0.56978068  0.03310073  0.09683399  1  0.012556  0  -0.08277  -0.209795  0  3.906286  0
C  C118  1  0.75069047  0.99792243  0.73518909  1  -0.042319  0  -0.068917  -0.150047  0  3.907933  0
C  C119  1  0.53479876  0.94044459  0.06465795  1  -0.097718  0  0.007021  0.112275  0  3.982223  0
C  C120  1  0.44016721  0.01246513  0.41468575  1  0.521465  0  0.116371  0.204373  0  4.036786  0
C  C121  1  0.73240560  0.61686575  0.77399991  1  0.998475  0  0.156235  0.160724  0  3.939843  0
C  C122  1  0.36340799  0.83317073  0.36530435  1  -0.048169  0  -0.083844  -0.219269  0  3.917819  0
C  C123  1  0.80966287  0.94571237  0.71898484  1  0.456784  0  0.054555  0.100369  0  3.903496  0
C  C124  1  0.65739863  0.32509056  0.21339424  1  0.017049  0  -0.084688  -0.096627  0  3.980056  0
C  C125  1  0.55913295  0.15518022  0.80142166  1  0.483024  0  0.116308  0.204824  0  4.036874  0
C  C126  1  0.27531147  0.91756994  0.05249282  1  0.022497  0  -0.013672  0.024113  0  3.994679  0
C  C127  1  0.46084825  0.86820229  0.37520241  1  0.055871  0  0.007603  0.10984  0  3.997931  0
C  C128  1  0.58863395  0.25285743  0.83243992  1  -0.018057  0  -0.013399  0.0243  0  3.998844  0
C  C129  1  0.58810947  0.36708490  0.22412483  1  -0.070833  0  -0.014089  -0.026392  0  3.967503  0
C  C130  1  0.50718387  0.08248481  0.11200810  1  0.510445  0  0.115604  0.20006  0  4.044294  0
C  C131  1  0.49581316  0.97342082  0.73905782  1  0.021971  0  -0.083466  -0.213651  0  3.904659  0
C  C132  1  0.58160597  0.39253584  0.52217736  1  1.58018  0  0.209596  0.581481  0  4.184938  0
C  C133  1  0.53815548  0.18075583  0.14713781  1  0.049939  0  -0.011412  0.02484  0  3.989911  0
C  C134  1  0.74706472  0.86682040  0.01359399  1  0.449657  0  0.045492  0.086796  0  3.917121  0
C  C135  1  0.62427195  0.10870321  0.79213667  1  -0.036779  0  -0.084228  -0.214877  0  3.90968  0
C  C136  1  0.84196254  0.73974827  0.81293035  1  0.972915  0  0.154554  0.155055  0  3.923108  0
C  C137  1  0.61746656  0.85095862  0.39814948  1  0.052137  0  -0.076207  -0.157074  0  3.942096  0
C  C138  1  0.69520907  0.83119815  0.72428483  1  0.48662  0  0.04496  0.08965  0  3.937626  0
C  C139  1  0.63261240  0.87923044  0.73989607  1  0.009572  0  -0.072646  -0.148469  0  3.930162  0
C  C140  1  0.69861757  0.59045255  0.47154762  1  0.963748  0  0.155287  0.15951  0  3.948254  0
C  C141  1  0.80978153  0.71274783  0.51143351  1  0.943642  0  0.159265  0.162598  0  3.907954  0
C  C142  1  0.43756374  0.90086170  0.04930504  1  0.009678  0  -0.083464  -0.212898  0  3.909539  0
C  C143  1  0.47001306  0.22424063  0.15437045  1  -0.116439  0  -0.088982  -0.11487  0  3.980211  0
C  C144  1  0.65938888  0.96488714  0.74556287  1  -0.011223  0  0.022841  0.114091  0  3.945042  0
C  C145  1  0.68210888  0.30261521  0.84029892  1  -0.05373  0  -0.093723  -0.133314  0  4.00605  0
C  C146  1  0.37882583  0.95431146  0.06678658  1  0.468041  0  0.117808  0.205919  0  4.04166  0
C  C147  1  0.43458760  0.02420976  0.75139477  1  0.56052  0  0.11845  0.206774  0  4.037715  0
C  C148  1  0.07807245  0.85284954  0.01802895  1  -0.020722  0  -0.013117  -0.014232  0  3.968146  0
C  C149  1  0.30828669  0.88990827  0.38071307  1  0.498269  0  0.115967  0.203578  0  4.036346  0
C  C150  1  0.56931360  0.79673595  0.03033372  1  0.062979  0  -0.075797  -0.159488  0  3.924828  0
C  C151  1  0.52124987  0.29745349  0.85131570  1  -0.012171  0  -0.089842  -0.120319  0  3.98884  0
C  C152  1  0.13026390  0.79467123  0.00836387  1  -0.021066  0  -0.086471  -0.099368  0  3.980877  0
C  C153  1  0.60721043  0.24750573  0.49638507  1  0.051424  0  -0.086261  -0.101396  0  3.981667  0
C  C154  1  0.49429185  0.31584596  0.19281772  1  0.042468  0  -0.082461  -0.082412  0  3.96243  0
C  C155  1  0.22169142  0.97579556  0.06638133  1  -0.039802  0  -0.092853  -0.119349  0  3.997895  0
C  C156  1  0.67535039  0.79866130  0.38723308  1  0.393842  0  0.043431  0.08413  0  3.926955  0
C  C157  1  0.70710697  0.39377057  0.86544063  1  -0.077262  0  -0.087593  -0.103003  0  3.988979  0
C  C158  1  0.54572164  0.38808904  0.87428959  1  -0.053398  0  -0.084744  -0.10002  0  3.989762  0
C  C159  1  0.22789249  0.82646175  0.02417353  1  -0.138205  0  -0.094261  -0.130536  0  3.995317  0
C  C160  1  0.69056070  0.92074063  0.03738628  1  0.006064  0  -0.074652  -0.155116  0  3.931525  0
C  C161  1  0.90921211  0.76412011  0.37284666  1  1.560569  0  0.200827  0.56054  0  4.229027  0
C  C162  1  0.59846520  0.88600732  0.04499535  1  -0.031497  0  0.021166  0.11604  0  3.950014  0
C  C163  1  0.63877263  0.43693311  0.88107891  1  -0.012505  0  -0.015146  -0.017286  0  3.968756  0
C  C164  1  0.12461340  0.94397785  0.04787246  1  -0.026443  0  -0.084799  -0.097712  0  3.968702  0
C  C165  1  0.66425794  0.53320887  0.89971666  1  1.566701  0  0.19363  0.55305  0  4.257067  0
C  C166  1  0.97392681  0.81926629  0.99264581  1  1.587554  0  0.199344  0.55874  0  4.237377  0
C  C167  1  0.13493326  0.90790824  0.69494389  1  -0.101695  0  -0.014106  -0.019739  0  3.963442  0
C  C168  1  0.19093545  0.86467378  0.71355721  1  -0.063655  0  -0.087708  -0.095357  0  3.983377  0
C  C169  1  0.28815738  0.90060071  0.72944502  1  -0.02962  0  -0.09585  -0.133783  0  4.001231  0
C  C170  1  0.33161148  0.98241829  0.73010939  1  -0.040748  0  -0.009343  0.037612  0  3.984751  0
C  C171  1  0.27509389  0.02533396  0.71119026  1  -0.069752  0  -0.089823  -0.118304  0  3.968848  0
C  C172  1  0.17803943  0.98764371  0.69230736  1  0.071664  0  -0.079018  -0.085538  0  3.962035  0
C  C173  1  0.03023547  0.87076412  0.67971991  1  1.545469  0  0.196548  0.561336  0  4.216964  0
C  C174  1  0.06130708  0.88602909  0.41077068  1  0.022415  0  -0.078261  -0.082366  0  3.963575  0
C  C175  1  0.15694558  0.91623228  0.41233412  1  -0.08312  0  -0.088676  -0.117454  0  3.972492  0
C  C176  1  0.20520837  0.85676970  0.37325610  1  -0.024689  0  -0.014075  0.02611  0  4.008248  0
C  C177  1  0.15368627  0.76670656  0.32947262  1  -0.072226  0  -0.095809  -0.135457  0  3.999234  0
C  C178  1  0.05742708  0.73668675  0.32668496  1  -0.042656  0  -0.084807  -0.091354  0  3.979903  0
C  C179  1  0.01080916  0.79579592  0.36865467  1  -0.078454  0  -0.014307  -0.02182  0  3.960948  0
C  C180  1  0.47720046  0.18747386  0.63659460  1  -0.039509  0  0.020254  0.11336  0  3.948471  0
C  C181  1  0.36734692  0.76708119  0.82403385  1  -0.122364  0  -0.091713  -0.12818  0  3.989392  0
C  C182  1  0.37082367  0.25377595  0.99384241  1  0.431567  0  0.055142  0.105619  0  3.924822  0
C  C183  1  0.44708355  0.32849231  0.68917397  1  0.464071  0  0.053906  0.104144  0  3.920883  0
C  C184  1  0.45412197  0.70542035  0.50610456  1  -0.090483  0  -0.014154  -0.023769  0  3.979159  0
C  C185  1  0.52213235  0.89050062  0.55875673  1  -0.061329  0  -0.00827  0.030812  0  3.977751  0
C  C186  1  0.50876233  0.27970697  0.68106248  1  -0.002033  0  -0.073438  -0.152405  0  3.91519  0
C  C187  1  0.38781855  0.53524280  0.72725456  1  1.57434  0  0.215003  0.579978  0  4.197348  0
C  C188  1  0.58332804  0.84240924  0.55954045  1  0.071733  0  -0.087697  -0.113182  0  3.97993  0
C  C189  1  0.42612713  0.84403508  0.53121955  1  -0.068793  0  -0.087024  -0.116866  0  3.98352  0
C  C190  1  0.50099471  0.04071751  0.60089569  1  -0.041461  0  -0.08315  -0.208258  0  3.904417  0
C  C191  1  0.40727386  0.98386137  0.24049265  1  -0.002165  0  0.006178  0.108103  0  3.995192  0
C  C192  1  0.54959472  0.75148933  0.53526399  1  -0.124351  0  -0.087207  -0.094886  0  3.966841  0
C  C193  1  0.43021860  0.96690010  0.90316838  1  0.012605  0  -0.082728  -0.209738  0  3.906255  0
C  C194  1  0.24931300  0.00208103  0.26481188  1  -0.042208  0  -0.068878  -0.150027  0  3.907882  0
C  C195  1  0.46520028  0.05955557  0.93534215  1  -0.097991  0  0.00705  0.112269  0  3.982212  0
C  C196  1  0.55983366  0.98753440  0.58532172  1  0.521473  0  0.116279  0.204223  0  4.037109  0
C  C197  1  0.26759300  0.38313109  0.22599744  1  0.998748  0  0.156319  0.160902  0  3.939927  0
C  C198  1  0.63659110  0.16682349  0.63469958  1  -0.052107  0  -0.083953  -0.219413  0  3.917688  0
C  C199  1  0.19033973  0.05429044  0.28101687  1  0.456374  0  0.054629  0.100501  0  3.90348  0
C  C200  1  0.34259840  0.67491157  0.78660302  1  0.0169  0  -0.084612  -0.096528  0  3.98  0
C  C201  1  0.44086589  0.84481929  0.19858071  1  0.483  0  0.116326  0.204926  0  4.036668  0
C  C202  1  0.72468843  0.08242886  0.94750026  1  0.022461  0  -0.013664  0.024209  0  3.99456  0
C  C203  1  0.53914973  0.13179260  0.62480123  1  0.055787  0  0.00764  0.109992  0  3.997792  0
C  C204  1  0.41136514  0.74714476  0.16756949  1  -0.018072  0  -0.013388  0.024354  0  3.998563  0
C  C205  1  0.41188334  0.63291458  0.77586929  1  -0.070446  0  -0.014172  -0.0265  0  3.967601  0
C  C206  1  0.49281385  0.91751535  0.88799247  1  0.510414  0  0.115586  0.200042  0  4.044247  0
C  C207  1  0.50418789  0.02657935  0.26094386  1  0.021943  0  -0.083456  -0.21368  0  3.904733  0
C  C208  1  0.41839972  0.60746031  0.47781946  1  1.580249  0  0.209576  0.581411  0  4.184919  0
C  C209  1  0.46184489  0.81924432  0.85286082  1  0.049923  0  -0.011448  0.024814  0  3.989984  0
C  C210  1  0.25293495  0.13318172  0.98640083  1  0.449562  0  0.045584  0.086862  0  3.917351  0
C  C211  1  0.37572710  0.89129694  0.20786343  1  -0.036659  0  -0.084226  -0.214904  0  3.909741  0
C  C212  1  0.15803584  0.26025188  0.18706923  1  0.972839  0  0.154596  0.154981  0  3.923109  0
C  C213  1  0.38253183  0.14904155  0.60185363  1  0.052157  0  -0.076188  -0.156967  0  3.942081  0
C  C214  1  0.30479618  0.16880066  0.27571396  1  0.486013  0  0.044889  0.089454  0  3.937774  0
C  C215  1  0.36738951  0.12077036  0.26010134  1  0.009648  0  -0.072681  -0.148451  0  3.93013  0
C  C216  1  0.30138369  0.40954626  0.52845004  1  0.963907  0  0.15535  0.159573  0  3.94804  0
C  C217  1  0.19021240  0.28725299  0.48856416  1  0.943434  0  0.159258  0.162495  0  3.907747  0
C  C218  1  0.56243508  0.09913778  0.95069330  1  0.009163  0  -0.083553  -0.212918  0  3.909588  0
C  C219  1  0.52998596  0.77575950  0.84562562  1  -0.116274  0  -0.088943  -0.114854  0  3.980224  0
C  C220  1  0.34061392  0.03511432  0.25443583  1  -0.011065  0  0.022775  0.113983  0  3.945108  0
C  C221  1  0.31789131  0.69738433  0.15970853  1  -0.053708  0  -0.093704  -0.133398  0  4.006261  0
C  C222  1  0.62117186  0.04569067  0.93321019  1  0.468486  0  0.117885  0.205987  0  4.041588  0
C  C223  1  0.56541100  0.97578908  0.24860483  1  0.560531  0  0.118468  0.206849  0  4.037627  0
C  C224  1  0.92193033  0.14714792  0.98196373  1  -0.020547  0  -0.013075  -0.014182  0  3.968246  0
C  C225  1  0.69171417  0.11008926  0.61929265  1  0.496276  0  0.115988  0.203544  0  4.036603  0
C  C226  1  0.43069055  0.20326752  0.96966929  1  0.062951  0  -0.075793  -0.159415  0  3.924736  0
C  C227  1  0.47874921  0.70254870  0.14869169  1  -0.012366  0  -0.089903  -0.120405  0  3.988675  0
C  C228  1  0.86973711  0.20532490  0.99162776  1  -0.021156  0  -0.086459  -0.099269  0  3.980797  0
C  C229  1  0.39279397  0.75249047  0.50361876  1  0.05042  0  -0.086284  -0.101394  0  3.981713  0
C  C230  1  0.50570672  0.68415483  0.80717707  1  0.042215  0  -0.082431  -0.082326  0  3.962449  0
C  C231  1  0.77830936  0.02420189  0.93360928  1  -0.039746  0  -0.092829  -0.119251  0  3.997788  0
C  C232  1  0.32464491  0.20133755  0.61276893  1  0.393815  0  0.043498  0.08422  0  3.926822  0
C  C233  1  0.29289412  0.60622964  0.13456961  1  -0.077455  0  -0.087486  -0.102831  0  3.988991  0
C  C234  1  0.45427944  0.61191314  0.12571837  1  -0.053516  0  -0.084636  -0.099875  0  3.989556  0
C  C235  1  0.77210742  0.17353706  0.97582157  1  -0.138049  0  -0.094264  -0.130627  0  3.995336  0
C  C236  1  0.30944098  0.07926348  0.96261135  1  0.005599  0  -0.074656  -0.15511  0  3.931564  0
C  C237  1  0.09078269  0.23588335  0.62715051  1  1.56062  0  0.200772  0.56042  0  4.229087  0
C  C238  1  0.40153649  0.11399680  0.95500480  1  -0.030901  0  0.021094  0.11592  0  3.950187  0
C  C239  1  0.36122799  0.56306574  0.11892578  1  -0.01182  0  -0.015344  -0.017479  0  3.968809  0
C  C240  1  0.87538605  0.05602160  0.95211935  1  -0.026806  0  -0.084855  -0.097829  0  3.968583  0
C  C241  1  0.33574401  0.46678997  0.10028657  1  1.566306  0  0.193722  0.553167  0  4.257054  0
C  C242  1  0.02607444  0.18072654  0.00734712  1  1.587485  0  0.199318  0.558657  0  4.237658  0
C  C243  1  0.86506423  0.09209125  0.30505542  1  -0.101747  0  -0.014216  -0.019789  0  3.96339  0
C  C244  1  0.80906269  0.13532370  0.28643835  1  -0.062885  0  -0.0877  -0.09543  0  3.983117  0
C  C245  1  0.71184011  0.09939680  0.27055304  1  -0.029944  0  -0.095797  -0.133629  0  4.001042  0
C  C246  1  0.66838779  0.01758253  0.26989147  1  -0.040798  0  -0.009445  0.037471  0  3.984709  0
C  C247  1  0.72490340  0.97466887  0.28881431  1  -0.069828  0  -0.08976  -0.118343  0  3.968838  0
C  C248  1  0.82195786  0.01235913  0.30769720  1  0.071174  0  -0.07901  -0.085471  0  3.962009  0
C  C249  1  0.96976176  0.12923866  0.32027406  1  1.545673  0  0.196619  0.561262  0  4.217147  0
C  C250  1  0.93869129  0.11397106  0.58922739  1  0.022511  0  -0.078171  -0.082278  0  3.963377  0
C  C251  1  0.84305259  0.08376723  0.58766773  1  -0.083125  0  -0.088703  -0.117524  0  3.972466  0
C  C252  1  0.79479181  0.14322981  0.62674833  1  -0.022931  0  -0.01414  0.026119  0  4.008312  0
C  C253  1  0.84631012  0.23329560  0.67052965  1  -0.072001  0  -0.095874  -0.135674  0  3.999325  0
C  C254  1  0.94257152  0.26331805  0.67331635  1  -0.042673  0  -0.08476  -0.09137  0  3.979802  0
C  C255  1  0.98918721  0.20420622  0.63134408  1  -0.078516  0  -0.014315  -0.021709  0  3.960845  0
N  N256  1  0.64393025  0.70987606  0.34424699  1  -1.261601  0  -0.328424  -0.238  0  3.582202  0
N  N257  1  0.72622749  0.61750536  0.54479801  1  -0.795432  0  -0.260612  -0.212843  0  3.539988  0
N  N258  1  0.46620277  0.11306704  0.78137970  1  -1.194806  0  -0.30552  -0.333328  0  3.305838  0
N  N259  1  0.78247682  0.86325020  0.71351655  1  -1.262248  0  -0.333462  -0.237021  0  3.593342  0
N  N260  1  0.81777682  0.70917680  0.73879566  1  -0.788404  0  -0.25648  -0.194118  0  3.517965  0
N  N261  1  0.34681197  0.97797339  0.40591524  1  -1.199166  0  -0.308922  -0.343411  0  3.320656  0
N  N262  1  0.41405801  0.04292661  0.09694616  1  -1.201397  0  -0.308526  -0.335983  0  3.358477  0
N  N263  1  0.74738426  0.63004902  0.71371738  1  -0.788442  0  -0.259371  -0.208552  0  3.521718  0
N  N264  1  0.79781812  0.69618876  0.57038807  1  -0.809722  0  -0.257172  -0.19361  0  3.531511  0
N  N265  1  0.71660984  0.78009549  0.99678342  1  -1.273644  0  -0.328005  -0.235228  0  3.577  0
N  N266  1  0.74902983  0.64797690  0.44845282  1  -1.252261  0  -0.346759  -0.31671  0  3.529128  0
N  N267  1  0.79001808  0.68407161  0.83725451  1  -1.259398  0  -0.347269  -0.313458  0  3.530271  0
N  N268  1  0.35606835  0.29012476  0.65575435  1  -1.261602  0  -0.32844  -0.23799  0  3.582194  0
N  N269  1  0.27377444  0.38249346  0.45520017  1  -0.795409  0  -0.260658  -0.212988  0  3.539985  0
N  N270  1  0.53379830  0.88693314  0.21862600  1  -1.19481  0  -0.305509  -0.333378  0  3.305751  0
N  N271  1  0.21752887  0.13675391  0.28648473  1  -1.261685  0  -0.333509  -0.23708  0  3.593238  0
N  N272  1  0.18222555  0.29082136  0.26120330  1  -0.788757  0  -0.256443  -0.193977  0  3.517965  0
N  N273  1  0.65318779  0.02202482  0.59409170  1  -1.1991  0  -0.308712  -0.343188  0  3.320876  0
N  N274  1  0.58594147  0.95707486  0.90305244  1  -1.201247  0  -0.308552  -0.336031  0  3.358354  0
N  N275  1  0.25262077  0.36994713  0.28627891  1  -0.787935  0  -0.259504  -0.208772  0  3.522029  0
N  N276  1  0.20218025  0.30381139  0.42960899  1  -0.809673  0  -0.257161  -0.193487  0  3.531325  0
N  N277  1  0.28339074  0.21990729  0.00321419  1  -1.27371  0  -0.328024  -0.235273  0  3.577052  0
N  N278  1  0.25096477  0.35202392  0.55154588  1  -1.252418  0  -0.346825  -0.316711  0  3.528881  0
N  N279  1  0.20997364  0.31592856  0.16274486  1  -1.259537  0  -0.347246  -0.313465  0  3.53029  0
O  O280  1  0.64791782  0.43694664  0.58067055  1  -1.156974  0  -0.334369  -0.543734  0  2.243186  0
O  O281  1  0.68996189  0.51422063  0.26933231  1  -1.162512  0  -0.323346  -0.524283  0  2.280166  0
O  O282  1  0.55645728  0.60595939  0.63515532  1  -1.296582  0  -0.580677  -0.75835  0  2.176559  0
O  O283  1  0.55643808  0.49317009  0.31601802  1  -1.18684  0  -0.316406  -0.564934  0  2.185272  0
O  O284  1  0.74852944  0.58072508  0.93693033  1  -1.170442  0  -0.340566  -0.546385  0  2.286175  0
O  O285  1  0.93009186  0.74411422  0.99100868  1  -1.159688  0  -0.338194  -0.542106  0  2.265164  0
O  O286  1  0.54754485  0.42997930  0.49029598  1  -1.189992  0  -0.310417  -0.557723  0  2.229349  0
O  O287  1  0.86204256  0.68349156  0.32410055  1  -1.167751  0  -0.341627  -0.550026  0  2.269923  0
O  O288  1  0.93594438  0.86409897  0.97279819  1  -1.193401  0  -0.322425  -0.562756  0  2.17042  0
O  O289  1  0.60592769  0.56043457  0.87684934  1  -1.182455  0  -0.33304  -0.572381  0  2.113658  0
O  O290  1  0.87633004  0.81516014  0.42356174  1  -1.189967  0  -0.323274  -0.557613  0  2.161006  0
O  O291  1  0.99633367  0.81171628  0.70322032  1  -1.15483  0  -0.3497  -0.548589  0  2.272927  0
O  O292  1  0.97953055  0.89623444  0.64744758  1  -1.16932  0  -0.326716  -0.554313  0  2.102652  0
O  O293  1  0.35208786  0.56304950  0.41932476  1  -1.156945  0  -0.334367  -0.543793  0  2.243047  0
O  O294  1  0.31003537  0.48577819  0.73066523  1  -1.162517  0  -0.323405  -0.524366  0  2.280011  0
O  O295  1  0.44355018  0.39404207  0.36484352  1  -1.296571  0  -0.580699  -0.758308  0  2.176597  0
O  O296  1  0.44355983  0.50683669  0.68398150  1  -1.186742  0  -0.316396  -0.564907  0  2.185194  0
O  O297  1  0.25147471  0.41927639  0.06307093  1  -1.17023  0  -0.340655  -0.546477  0  2.286126  0
O  O298  1  0.06991004  0.25588059  0.00898349  1  -1.159574  0  -0.338145  -0.542059  0  2.265329  0
O  O299  1  0.45245886  0.57001686  0.50970279  1  -1.190155  0  -0.310351  -0.557593  0  2.229348  0
O  O300  1  0.13795427  0.31650993  0.67589998  1  -1.167722  0  -0.341613  -0.550043  0  2.269861  0
O  O301  1  0.06405290  0.13589588  0.02719989  1  -1.193443  0  -0.322448  -0.562723  0  2.170471  0
O  O302  1  0.39407359  0.43955829  0.12314812  1  -1.182529  0  -0.333025  -0.572422  0  2.113622  0
O  O303  1  0.12366297  0.18484397  0.57643210  1  -1.189971  0  -0.323259  -0.557533  0  2.160888  0
O  O304  1  0.00366422  0.18828051  0.29676995  1  -1.155231  0  -0.349639  -0.548444  0  2.27283  0
O  O305  1  0.02046867  0.10377032  0.35254771  1  -1.169192  0  -0.326822  -0.554417  0  2.102819  0
