# generated using pymatgen
data_YH6C9(ClO3)3
_symmetry_space_group_name_H-M   'P 1'
_cell_length_a   9.13736077
_cell_length_b   10.06657018
_cell_length_c   10.81352311
_cell_angle_alpha   65.53015258
_cell_angle_beta   67.63847146
_cell_angle_gamma   70.94078143
_symmetry_Int_Tables_number   1
_chemical_formula_structural   YH6C9(ClO3)3
_chemical_formula_sum   'Y2 H12 C18 Cl6 O18'
_cell_volume   820.19097223
_cell_formula_units_Z   2
loop_
 _symmetry_equiv_pos_site_id
 _symmetry_equiv_pos_as_xyz
  1  'x, y, z'
loop_
 _atom_site_type_symbol
 _atom_site_label
 _atom_site_symmetry_multiplicity
 _atom_site_fract_x
 _atom_site_fract_y
 _atom_site_fract_z
 _atom_site_occupancy
 _atom_site_hle17_bader_spin_density
 _atom_site_hle17_ddec_charge
 _atom_site_hle17_ddec_spin_density
 _atom_site_hle17_ddec_sum_bond_order
 _atom_site_hle17_magmom
 _atom_site_hse06_10hf_bader_spin_density
 _atom_site_hse06_10hf_ddec_charge
 _atom_site_hse06_10hf_ddec_spin_density
 _atom_site_hse06_10hf_ddec_sum_bond_order
 _atom_site_hse06_10hf_magmom
 _atom_site_hse06_bader_spin_density
 _atom_site_hse06_ddec_charge
 _atom_site_hse06_ddec_spin_density
 _atom_site_hse06_ddec_sum_bond_order
 _atom_site_hse06_magmom
 _atom_site_pbe_bader_spin_density
 _atom_site_pbe_cm5_charge
 _atom_site_pbe_ddec_charge
 _atom_site_pbe_ddec_spin_density
 _atom_site_pbe_ddec_sum_bond_order
 _atom_site_pbe_magmom
Y  Y0  1  0.26089620  0.35515773  0.31224972  1  0  2.002806  0  1.824068  0  0  1.809542  0  2.296814  0  0  1.88351  0  2.229622  0  0  1.245267  1.756518  0  2.342697  0
Y  Y1  1  0.73910285  0.64484403  0.68775002  1  0  2.00273  0  1.824146  0  0  1.809498  0  2.296863  0  0  1.883483  0  2.229637  0  0  1.245167  1.756443  0  2.342796  0
H  H2  1  0.94115676  0.57588883  0.36630719  1  0  0.437909  0  0.850424  0  0  0.4079  0  0.915821  0  0  0.418782  0  0.899908  0  0  0.307308  0.400146  0  0.927179  0
H  H3  1  0.05882034  0.42415581  0.63369859  1  0  0.438072  0  0.850294  0  0  0.408069  0  0.915591  0  0  0.41895  0  0.89968  0  0  0.307357  0.400318  0  0.926943  0
H  H4  1  0.06514570  0.64357968  0.37085671  1  0  0.430674  0  0.859614  0  0  0.396065  0  0.935324  0  0  0.407597  0  0.9183  0  0  0.30095  0.38781  0  0.947511  0
H  H5  1  0.93488011  0.35647711  0.62906525  1  0  0.430748  0  0.859745  0  0  0.396081  0  0.935403  0  0  0.407613  0  0.918383  0  0  0.300986  0.387822  0  0.947593  0
H  H6  1  0.48916646  0.32915537  0.01741496  1  0  0.460888  0  0.786405  0  0  0.434326  0  0.851593  0  0  0.444023  0  0.837399  0  0  0.334469  0.427328  0  0.861878  0
H  H7  1  0.51066153  0.67072581  0.98257695  1  0  0.460977  0  0.786741  0  0  0.434351  0  0.851657  0  0  0.444047  0  0.837464  0  0  0.334346  0.427346  0  0.861954  0
H  H8  1  0.43949639  0.17613569  0.12403936  1  0  0.444919  0  0.805739  0  0  0.420689  0  0.870196  0  0  0.430693  0  0.855466  0  0  0.331215  0.413408  0  0.879118  0
H  H9  1  0.56043779  0.82374391  0.87608125  1  0  0.445021  0  0.805939  0  0  0.420662  0  0.870243  0  0  0.430637  0  0.855558  0  0  0.331302  0.413402  0  0.879385  0
H  H10  1  0.60334373  0.19683706  0.32901311  1  0  0.403036  0  0.894584  0  0  0.372935  0  0.960117  0  0  0.382199  0  0.946859  0  0  0.287473  0.366356  0  0.969534  0
H  H11  1  0.39669767  0.80320031  0.67090594  1  0  0.402777  0  0.894907  0  0  0.372705  0  0.960444  0  0  0.381959  0  0.947201  0  0  0.287228  0.366125  0  0.969862  0
H  H12  1  0.48963195  0.08358906  0.38791592  1  0  0.437483  0  0.819869  0  0  0.4146  0  0.882206  0  0  0.424552  0  0.870661  0  0  0.320457  0.407492  0  0.890507  0
H  H13  1  0.51042137  0.91640553  0.61215719  1  0  0.437493  0  0.819775  0  0  0.414655  0  0.88211  0  0  0.424613  0  0.870536  0  0  0.320415  0.407546  0  0.890415  0
C  C14  1  0.02547344  0.12420526  0.51613583  1  0  0.312347  0  3.817652  0  0  0.282845  0  4.095254  0  0  0.30555  0  4.10096  0  0  0.121885  0.267587  0  4.090932  0
C  C15  1  0.97447675  0.87582811  0.48391076  1  0  0.31295  0  3.817256  0  0  0.283659  0  4.094703  0  0  0.306371  0  4.100429  0  0  0.122243  0.268407  0  4.090371  0
C  C16  1  0.15187440  0.04451380  0.41457845  1  0  0.317722  0  3.836925  0  0  0.287555  0  4.119339  0  0  0.310695  0  4.124352  0  0  0.117279  0.272072  0  4.115469  0
C  C17  1  0.84809862  0.95550449  0.58549293  1  0  0.317442  0  3.837103  0  0  0.287063  0  4.119772  0  0  0.310195  0  4.124793  0  0  0.117162  0.271575  0  4.115895  0
C  C18  1  0.88124425  0.07375378  0.59967517  1  0  -0.14554  0  3.80963  0  0  -0.152543  0  4.113158  0  0  -0.169502  0  4.136479  0  0  -0.037478  -0.141571  0  4.097529  0
C  C19  1  0.11872530  0.92627595  0.40038069  1  0  -0.146048  0  3.809921  0  0  -0.153148  0  4.113362  0  0  -0.17012  0  4.136694  0  0  -0.037793  -0.142178  0  4.097735  0
C  C20  1  0.37457970  0.43314600  0.51973145  1  0  0.308328  0  3.800831  0  0  0.282604  0  4.070537  0  0  0.304806  0  4.076865  0  0  0.123987  0.267705  0  4.065926  0
C  C21  1  0.62542717  0.56685256  0.48023648  1  0  0.30818  0  3.800515  0  0  0.282415  0  4.070325  0  0  0.304628  0  4.07663  0  0  0.123911  0.267544  0  4.065693  0
C  C22  1  0.47763609  0.50728836  0.37074311  1  0  0.297332  0  3.854071  0  0  0.270769  0  4.132149  0  0  0.292458  0  4.139992  0  0  0.114655  0.256287  0  4.12645  0
C  C23  1  0.52236546  0.49272784  0.62922195  1  0  0.297528  0  3.853914  0  0  0.270965  0  4.131959  0  0  0.292655  0  4.139802  0  0  0.114537  0.256472  0  4.12625  0
C  C24  1  0.40444632  0.42385796  0.64165386  1  0  -0.144742  0  3.805684  0  0  -0.149552  0  4.10341  0  0  -0.165742  0  4.126621  0  0  -0.038841  -0.139111  0  4.087971  0
C  C25  1  0.59557402  0.57613840  0.35831133  1  0  -0.144362  0  3.805652  0  0  -0.149297  0  4.103581  0  0  -0.165481  0  4.126776  0  0  -0.038855  -0.138885  0  4.088171  0
C  C26  1  0.12017908  0.52807975  0.03960450  1  0  0.298791  0  3.870563  0  0  0.271197  0  4.151029  0  0  0.293668  0  4.156785  0  0  0.116083  0.256052  0  4.146729  0
C  C27  1  0.87987089  0.47191116  0.96037446  1  0  0.298998  0  3.870112  0  0  0.271468  0  4.150629  0  0  0.293903  0  4.156395  0  0  0.116156  0.256248  0  4.146438  0
C  C28  1  0.03274177  0.39710773  0.12743929  1  0  0.290808  0  3.854102  0  0  0.265156  0  4.128506  0  0  0.287031  0  4.136178  0  0  0.11339  0.250488  0  4.12282  0
C  C29  1  0.96730594  0.60287620  0.87254506  1  0  0.290832  0  3.854076  0  0  0.265081  0  4.12848  0  0  0.286977  0  4.136153  0  0  0.113315  0.250441  0  4.122784  0
C  C30  1  0.07195758  0.63254554  0.92051967  1  0  -0.146723  0  3.796224  0  0  -0.151852  0  4.092784  0  0  -0.168358  0  4.115405  0  0  -0.044899  -0.141255  0  4.077769  0
C  C31  1  0.92810662  0.36743846  0.07945028  1  0  -0.146826  0  3.796042  0  0  -0.152171  0  4.092874  0  0  -0.168612  0  4.115419  0  0  -0.045038  -0.141557  0  4.077901  0
Cl  Cl32  1  0.74393170  0.15829741  0.71984088  1  0  -0.041571  0  1.413992  0  0  -0.030745  0  1.645293  0  0  -0.030469  0  1.639975  0  0  0.002336  -0.030696  0  1.649245  0
Cl  Cl33  1  0.25607246  0.84171445  0.28023298  1  0  -0.041442  0  1.414149  0  0  -0.030602  0  1.64547  0  0  -0.030324  0  1.640158  0  0  0.002456  -0.030547  0  1.649426  0
Cl  Cl34  1  0.29435804  0.32619848  0.80580064  1  0  -0.04462  0  1.407656  0  0  -0.035789  0  1.638285  0  0  -0.036017  0  1.633984  0  0  -0.000245  -0.035486  0  1.641695  0
Cl  Cl35  1  0.70566022  0.67377839  0.19417636  1  0  -0.044668  0  1.407945  0  0  -0.035803  0  1.638629  0  0  -0.036037  0  1.634329  0  0  -0.000214  -0.03549  0  1.642054  0
Cl  Cl36  1  0.14999968  0.79309748  0.82522022  1  0  -0.044491  0  1.407444  0  0  -0.027393  0  1.632453  0  0  -0.027469  0  1.626162  0  0  0.014403  -0.027184  0  1.637035  0
Cl  Cl37  1  0.85006680  0.20687380  0.17472768  1  0  -0.044487  0  1.407121  0  0  -0.027306  0  1.632149  0  0  -0.027405  0  1.625819  0  0  0.014451  -0.02709  0  1.636736  0
O  O38  1  0.06247174  0.23485171  0.51718062  1  0  -0.54887  0  2.104547  0  0  -0.482712  0  2.330154  0  0  -0.508881  0  2.325042  0  0  -0.311725  -0.464488  0  2.333286  0
O  O39  1  0.93748315  0.76519447  0.48283587  1  0  -0.54915  0  2.104012  0  0  -0.4832  0  2.329677  0  0  -0.509381  0  2.32459  0  0  -0.311931  -0.464979  0  2.332807  0
O  O40  1  0.28178916  0.09402633  0.34817420  1  0  -0.58602  0  2.104702  0  0  -0.529271  0  2.340936  0  0  -0.554925  0  2.334236  0  0  -0.329831  -0.511389  0  2.345022  0
O  O41  1  0.71820594  0.90596044  0.65192509  1  0  -0.585809  0  2.104799  0  0  -0.529001  0  2.341094  0  0  -0.55465  0  2.334389  0  0  -0.329812  -0.511116  0  2.345181  0
O  O42  1  0.26180506  0.38358559  0.52262444  1  0  -0.554073  0  2.14119  0  0  -0.489389  0  2.367873  0  0  -0.514733  0  2.362616  0  0  -0.312382  -0.471795  0  2.371143  0
O  O43  1  0.73819272  0.61641613  0.47735603  1  0  -0.554131  0  2.141424  0  0  -0.489356  0  2.368037  0  0  -0.51471  0  2.362778  0  0  -0.312371  -0.471773  0  2.371305  0
O  O44  1  0.44572817  0.50152340  0.26844167  1  0  -0.553885  0  1.999573  0  0  -0.500632  0  2.233153  0  0  -0.525486  0  2.227821  0  0  -0.333639  -0.483412  0  2.236566  0
O  O45  1  0.55424323  0.49851309  0.73153155  1  0  -0.553972  0  1.999669  0  0  -0.500759  0  2.233263  0  0  -0.525619  0  2.227933  0  0  -0.333637  -0.48353  0  2.236677  0
O  O46  1  0.23019437  0.52958193  0.08252331  1  0  -0.529673  0  2.03693  0  0  -0.477873  0  2.269808  0  0  -0.501968  0  2.263903  0  0  -0.315737  -0.460835  0  2.273356  0
O  O47  1  0.76985450  0.47040623  0.91746139  1  0  -0.529597  0  2.036531  0  0  -0.477817  0  2.269404  0  0  -0.501907  0  2.263522  0  0  -0.315655  -0.460756  0  2.272995  0
O  O48  1  0.06339364  0.32052985  0.24473987  1  0  -0.558632  0  2.160267  0  0  -0.498663  0  2.396717  0  0  -0.527003  0  2.396731  0  0  -0.333144  -0.478723  0  2.395933  0
O  O49  1  0.93664034  0.67946019  0.75525080  1  0  -0.558819  0  2.160316  0  0  -0.498847  0  2.396857  0  0  -0.527201  0  2.396907  0  0  -0.333165  -0.4789  0  2.396043  0
O  O50  1  0.05913416  0.56811966  0.33787727  1  0  -0.87101  0  1.909052  0  0  -0.818994  0  2.111356  0  0  -0.842071  0  2.079143  0  0  -0.62167  -0.802399  0  2.133986  0
O  O51  1  0.94085094  0.43192203  0.66208446  1  0  -0.871192  0  1.909184  0  0  -0.81913  0  2.111351  0  0  -0.842216  0  2.079129  0  0  -0.621752  -0.80253  0  2.133994  0
O  O52  1  0.46208995  0.26757520  0.11719032  1  0  -0.851622  0  1.851623  0  0  -0.80088  0  2.044122  0  0  -0.821567  0  2.012505  0  0  -0.584506  -0.786232  0  2.064648  0
O  O53  1  0.53784635  0.73234977  0.88281860  1  0  -0.851792  0  1.852353  0  0  -0.800818  0  2.044554  0  0  -0.821471  0  2.01299  0  0  -0.584396  -0.786195  0  2.065289  0
O  O54  1  0.49922383  0.17336931  0.39633383  1  0  -0.821634  0  1.854458  0  0  -0.769709  0  2.024893  0  0  -0.791188  0  1.99949  0  0  -0.586893  -0.754469  0  2.042549  0
O  O55  1  0.50082418  0.82669709  0.60361335  1  0  -0.821393  0  1.854635  0  0  -0.769604  0  2.024822  0  0  -0.791079  0  1.999436  0  0  -0.586578  -0.754363  0  2.042469  0
