# generated using pymatgen
data_CdH24C26S2N2(ClO4)2
_symmetry_space_group_name_H-M   'P 1'
_cell_length_a   11.38271255
_cell_length_b   11.38381798
_cell_length_c   14.21043221
_cell_angle_alpha   102.22796163
_cell_angle_beta   102.23247165
_cell_angle_gamma   118.10509826
_symmetry_Int_Tables_number   1
_chemical_formula_structural   CdH24C26S2N2(ClO4)2
_chemical_formula_sum   'Cd2 H48 C52 S4 N4 Cl4 O16'
_cell_volume   1480.03030290
_cell_formula_units_Z   2
loop_
 _symmetry_equiv_pos_site_id
 _symmetry_equiv_pos_as_xyz
  1  'x, y, z'
loop_
 _atom_site_type_symbol
 _atom_site_label
 _atom_site_symmetry_multiplicity
 _atom_site_fract_x
 _atom_site_fract_y
 _atom_site_fract_z
 _atom_site_occupancy
 _atom_site_hle17_bader_spin_density
 _atom_site_hle17_ddec_charge
 _atom_site_hle17_ddec_spin_density
 _atom_site_hle17_ddec_sum_bond_order
 _atom_site_hle17_magmom
 _atom_site_hse06_10hf_bader_spin_density
 _atom_site_hse06_10hf_ddec_charge
 _atom_site_hse06_10hf_ddec_spin_density
 _atom_site_hse06_10hf_ddec_sum_bond_order
 _atom_site_hse06_10hf_magmom
 _atom_site_hse06_bader_spin_density
 _atom_site_hse06_ddec_charge
 _atom_site_hse06_ddec_spin_density
 _atom_site_hse06_ddec_sum_bond_order
 _atom_site_hse06_magmom
 _atom_site_pbe_bader_spin_density
 _atom_site_pbe_cm5_charge
 _atom_site_pbe_ddec_charge
 _atom_site_pbe_ddec_spin_density
 _atom_site_pbe_ddec_sum_bond_order
 _atom_site_pbe_magmom
Cd  Cd0  1  0.97925402  0.97925971  0.99999347  1  0  1.127416  0  1.684897  0  0  0.93949  0  2.126045  0  0  0.993312  0  2.075447  0  0  0.769882  0.901399  0  2.160695  0
Cd  Cd1  1  0.72918913  0.22921627  0.50000684  1  0  1.127815  0  1.684288  0  0  0.939895  0  2.125498  0  0  0.993732  0  2.074889  0  0  0.769903  0.901804  0  2.160168  0
H  H2  1  0.05729105  0.17482551  0.56584486  1  0  0.113969  0  0.944868  0  0  0.124848  0  1.004655  0  0  0.12804  0  1.002667  0  0  0.106351  0.122514  0  1.006122  0
H  H3  1  0.60903795  0.49152865  0.43428919  1  0  0.114162  0  0.944522  0  0  0.124989  0  1.00433  0  0  0.128175  0  1.002327  0  0  0.106848  0.122741  0  1.005661  0
H  H4  1  0.24132060  0.85885586  0.93405612  1  0  0.114257  0  0.944648  0  0  0.125248  0  1.004162  0  0  0.128521  0  1.002052  0  0  0.106942  0.123  0  1.005489  0
H  H5  1  0.92488686  0.30742991  0.06583530  1  0  0.11385  0  0.944463  0  0  0.124801  0  1.004182  0  0  0.128044  0  1.002122  0  0  0.106371  0.122445  0  1.005672  0
H  H6  1  0.08394968  0.35478486  0.71342108  1  0  0.120768  0  0.976448  0  0  0.128291  0  1.039582  0  0  0.132372  0  1.036678  0  0  0.104385  0.125204  0  1.041934  0
H  H7  1  0.64135340  0.37053535  0.28670407  1  0  0.120432  0  0.975832  0  0  0.127531  0  1.039456  0  0  0.131703  0  1.036457  0  0  0.104017  0.124469  0  1.041774  0
H  H8  1  0.12046502  0.89139747  0.78654383  1  0  0.120759  0  0.975731  0  0  0.127521  0  1.039786  0  0  0.131691  0  1.036787  0  0  0.104114  0.124466  0  1.042093  0
H  H9  1  0.10486096  0.33408549  0.21341885  1  0  0.120423  0  0.976515  0  0  0.127965  0  1.039671  0  0  0.132046  0  1.036777  0  0  0.104277  0.124909  0  1.041987  0
H  H10  1  0.50620603  0.65982815  0.72612688  1  0  0.122198  0  0.969427  0  0  0.12776  0  1.035278  0  0  0.13182  0  1.032644  0  0  0.101468  0.124768  0  1.037355  0
H  H11  1  0.93349676  0.77993822  0.27375842  1  0  0.122185  0  0.967566  0  0  0.128071  0  1.033226  0  0  0.132225  0  1.030503  0  0  0.101696  0.125008  0  1.035414  0
H  H12  1  0.53004747  0.18370957  0.77387402  1  0  0.122153  0  0.967626  0  0  0.127895  0  1.033488  0  0  0.13196  0  1.030869  0  0  0.101564  0.124832  0  1.035658  0
H  H13  1  0.40986906  0.75638363  0.22625192  1  0  0.122053  0  0.96912  0  0  0.127435  0  1.035195  0  0  0.131493  0  1.032573  0  0  0.101277  0.124427  0  1.037277  0
H  H14  1  0.47337549  0.47853651  0.57158606  1  0  0.098973  0  0.963354  0  0  0.105124  0  1.032061  0  0  0.108796  0  1.02926  0  0  0.100732  0.102639  0  1.033755  0
H  H15  1  0.90683069  0.90174538  0.42832584  1  0  0.099945  0  0.964727  0  0  0.106202  0  1.033153  0  0  0.109888  0  1.030334  0  0  0.10146  0.103714  0  1.034854  0
H  H16  1  0.65171723  0.15684590  0.92839314  1  0  0.100014  0  0.964956  0  0  0.106235  0  1.033391  0  0  0.109925  0  1.03056  0  0  0.101488  0.103742  0  1.035105  0
H  H17  1  0.22859258  0.72353333  0.07161408  1  0  0.099025  0  0.963551  0  0  0.105268  0  1.032191  0  0  0.108946  0  1.029377  0  0  0.100867  0.102776  0  1.033894  0
H  H18  1  0.01894823  0.14365647  0.37663385  1  0  0.15954  0  0.921372  0  0  0.172845  0  0.978829  0  0  0.176335  0  0.976517  0  0  0.114622  0.17043  0  0.980479  0
H  H19  1  0.76705539  0.64228866  0.62337075  1  0  0.158589  0  0.92307  0  0  0.171846  0  0.98085  0  0  0.17534  0  0.978548  0  0  0.114307  0.169399  0  0.982556  0
H  H20  1  0.39208401  0.01672720  0.12331579  1  0  0.15846  0  0.922918  0  0  0.171824  0  0.980541  0  0  0.175323  0  0.978231  0  0  0.114201  0.169366  0  0.982229  0
H  H21  1  0.89347242  0.26875819  0.87668224  1  0  0.159329  0  0.922205  0  0  0.172632  0  0.979631  0  0  0.176116  0  0.977316  0  0  0.114508  0.17023  0  0.981258  0
H  H22  1  0.15795471  0.28833951  0.35704402  1  0  0.137835  0  0.937869  0  0  0.146559  0  1.003209  0  0  0.149955  0  1.0014  0  0  0.10535  0.144156  0  1.004698  0
H  H23  1  0.93131839  0.80084896  0.64285620  1  0  0.138385  0  0.936739  0  0  0.147179  0  1.002144  0  0  0.150602  0  1.000331  0  0  0.1057  0.14475  0  1.003661  0
H  H24  1  0.55064843  0.18100267  0.14286235  1  0  0.138369  0  0.936788  0  0  0.147182  0  1.002064  0  0  0.150607  0  1.000245  0  0  0.105726  0.144741  0  1.003562  0
H  H25  1  0.03821241  0.40776686  0.85712776  1  0  0.138121  0  0.937657  0  0  0.146888  0  1.002762  0  0  0.150271  0  1.000984  0  0  0.105435  0.144485  0  1.004243  0
H  H26  1  0.76974668  0.64463274  0.87049632  1  0  0.091144  0  0.939555  0  0  0.097463  0  1.004472  0  0  0.100219  0  1.001986  0  0  0.11785  0.095475  0  1.006274  0
H  H27  1  0.77406748  0.89920245  0.12923203  1  0  0.089937  0  0.939438  0  0  0.096223  0  1.004514  0  0  0.098972  0  1.002028  0  0  0.117437  0.09423  0  1.006329  0
H  H28  1  0.64925193  0.02415785  0.62952049  1  0  0.09014  0  0.939118  0  0  0.09656  0  1.004114  0  0  0.099302  0  1.001639  0  0  0.117496  0.09458  0  1.005921  0
H  H29  1  0.39473541  0.01974331  0.37069789  1  0  0.091166  0  0.940019  0  0  0.097687  0  1.004626  0  0  0.100449  0  1.002135  0  0  0.118093  0.095694  0  1.006427  0
H  H30  1  0.55541788  0.42657395  0.86367728  1  0  0.115333  0  0.940441  0  0  0.12683  0  0.998777  0  0  0.129918  0  0.998161  0  0  0.109805  0.124641  0  0.999363  0
H  H31  1  0.56292341  0.69179547  0.13620222  1  0  0.116325  0  0.940806  0  0  0.127414  0  0.999182  0  0  0.130477  0  0.998601  0  0  0.110337  0.125249  0  0.999742  0
H  H32  1  0.44188426  0.81293347  0.63642772  1  0  0.116405  0  0.940148  0  0  0.127464  0  0.998652  0  0  0.130529  0  0.998081  0  0  0.110352  0.125295  0  0.999215  0
H  H33  1  0.17669576  0.80533467  0.36377296  1  0  0.115311  0  0.940704  0  0  0.126714  0  0.999153  0  0  0.129785  0  0.998573  0  0  0.109913  0.124538  0  0.999701  0
H  H34  1  0.49778299  0.46181361  0.16491029  1  0  0.10266  0  0.978481  0  0  0.110098  0  1.045495  0  0  0.112458  0  1.046236  0  0  0.101475  0.108471  0  1.045111  0
H  H35  1  0.29683045  0.33289454  0.83516335  1  0  0.103715  0  0.978398  0  0  0.110788  0  1.045732  0  0  0.113216  0  1.046419  0  0  0.101525  0.10905  0  1.045484  0
H  H36  1  0.08294629  0.54674070  0.33513283  1  0  0.103564  0  0.978076  0  0  0.110628  0  1.045422  0  0  0.113126  0  1.046031  0  0  0.101379  0.108884  0  1.045171  0
H  H37  1  0.21156661  0.74762620  0.66483647  1  0  0.102824  0  0.978318  0  0  0.110231  0  1.04541  0  0  0.112583  0  1.046149  0  0  0.101591  0.108605  0  1.045023  0
H  H38  1  0.28192763  0.24428471  0.15740786  1  0  0.085944  0  0.926793  0  0  0.097252  0  0.983252  0  0  0.09955  0  0.981558  0  0  0.12032  0.095579  0  0.984482  0
H  H39  1  0.08682607  0.12454774  0.84271099  1  0  0.087315  0  0.927265  0  0  0.097972  0  0.98425  0  0  0.100165  0  0.982702  0  0  0.120301  0.096354  0  0.985432  0
H  H40  1  0.87444783  0.33672337  0.34258996  1  0  0.087379  0  0.927055  0  0  0.098  0  0.984125  0  0  0.100193  0  0.982581  0  0  0.120268  0.096335  0  0.985357  0
H  H41  1  0.99394341  0.53178158  0.65726716  1  0  0.085778  0  0.927119  0  0  0.097242  0  0.983392  0  0  0.099521  0  0.981721  0  0  0.120202  0.095566  0  0.984655  0
H  H42  1  0.77240611  0.04941064  0.97447231  1  0  0.411286  0  0.899901  0  0  0.379462  0  0.966432  0  0  0.38999  0  0.951238  0  0  0.280552  0.372094  0  0.97704  0
H  H43  1  0.07483154  0.79787247  0.02547071  1  0  0.408926  0  0.902367  0  0  0.37746  0  0.968453  0  0  0.387989  0  0.953263  0  0  0.280074  0.370088  0  0.97907  0
H  H44  1  0.54813240  0.32519518  0.52554734  1  0  0.40892  0  0.902453  0  0  0.377565  0  0.96841  0  0  0.388081  0  0.953202  0  0  0.280069  0.37021  0  0.979031  0
H  H45  1  0.79953652  0.02257724  0.47453121  1  0  0.410908  0  0.900408  0  0  0.379217  0  0.966733  0  0  0.389744  0  0.95154  0  0  0.280508  0.371862  0  0.97732  0
H  H46  1  0.77529970  0.97651185  0.86400731  1  0  0.408188  0  0.903303  0  0  0.375871  0  0.969324  0  0  0.387845  0  0.952055  0  0  0.276677  0.367447  0  0.981444  0
H  H47  1  0.11253103  0.91127299  0.13597335  1  0  0.40821  0  0.903109  0  0  0.375926  0  0.969103  0  0  0.387914  0  0.951797  0  0  0.276714  0.367513  0  0.981215  0
H  H48  1  0.66142512  0.36268192  0.63601448  1  0  0.408032  0  0.90339  0  0  0.37568  0  0.969448  0  0  0.387657  0  0.952155  0  0  0.276748  0.367273  0  0.981556  0
H  H49  1  0.72667261  0.02540263  0.36401421  1  0  0.40831  0  0.903171  0  0  0.376001  0  0.969148  0  0  0.387981  0  0.951873  0  0  0.276781  0.367586  0  0.981253  0
C  C50  1  0.26449801  0.31734372  0.55984100  1  0  -0.08088  0  3.773328  0  0  -0.056059  0  4.025694  0  0  -0.059531  0  4.049637  0  0  -0.0316  -0.054097  0  4.010017  0
C  C51  1  0.75746761  0.70467780  0.44018394  1  0  -0.081393  0  3.778278  0  0  -0.056267  0  4.030101  0  0  -0.059715  0  4.054007  0  0  -0.031683  -0.054308  0  4.014415  0
C  C52  1  0.45455657  0.00735237  0.94007755  1  0  -0.080877  0  3.777839  0  0  -0.055959  0  4.029976  0  0  -0.059399  0  4.053909  0  0  -0.031576  -0.054003  0  4.014288  0
C  C53  1  0.06737851  0.51463346  0.05985911  1  0  -0.08179  0  3.773736  0  0  -0.056497  0  4.025524  0  0  -0.059974  0  4.04948  0  0  -0.031774  -0.054533  0  4.009804  0
C  C54  1  0.15531119  0.28072262  0.59977175  1  0  -0.064787  0  3.741408  0  0  -0.086789  0  3.991429  0  0  -0.087316  0  4.011406  0  0  -0.088146  -0.086316  0  3.978026  0
C  C55  1  0.68098768  0.55558639  0.40032754  1  0  -0.065292  0  3.743346  0  0  -0.087445  0  3.993393  0  0  -0.087984  0  4.013408  0  0  -0.088565  -0.086926  0  3.979936  0
C  C56  1  0.30543892  0.93084172  0.90014320  1  0  -0.065391  0  3.743051  0  0  -0.087536  0  3.992951  0  0  -0.088148  0  4.012931  0  0  -0.08849  -0.087002  0  3.979483  0
C  C57  1  0.03078674  0.40545579  0.09978611  1  0  -0.064259  0  3.741094  0  0  -0.086426  0  3.990906  0  0  -0.086995  0  4.010877  0  0  -0.087987  -0.085978  0  3.977539  0
C  C58  1  0.17143271  0.38167293  0.68484990  1  0  -0.132609  0  3.744696  0  0  -0.154058  0  3.997084  0  0  -0.156919  0  4.015647  0  0  -0.097992  -0.151981  0  3.984703  0
C  C59  1  0.69683055  0.48658782  0.31525300  1  0  -0.132785  0  3.745339  0  0  -0.15379  0  3.997996  0  0  -0.156715  0  4.016451  0  0  -0.097591  -0.151781  0  3.985675  0
C  C60  1  0.23651397  0.94679907  0.81509116  1  0  -0.132665  0  3.744097  0  0  -0.153438  0  3.996849  0  0  -0.15636  0  4.015328  0  0  -0.097661  -0.151417  0  3.984506  0
C  C61  1  0.13173454  0.42157746  0.18487070  1  0  -0.132159  0  3.744703  0  0  -0.153639  0  3.997067  0  0  -0.156518  0  4.01566  0  0  -0.097659  -0.15162  0  3.984624  0
C  C62  1  0.29834340  0.51647092  0.73005122  1  0  0.130098  0  3.812306  0  0  0.140576  0  4.079137  0  0  0.1445  0  4.100306  0  0  0.00858  0.137681  0  4.064908  0
C  C63  1  0.78632826  0.56822702  0.26997667  1  0  0.132217  0  3.811658  0  0  0.142699  0  4.078177  0  0  0.146652  0  4.099308  0  0  0.009083  0.139742  0  4.063927  0
C  C64  1  0.31824374  0.03643039  0.76992449  1  0  0.131834  0  3.811439  0  0  0.142297  0  4.07791  0  0  0.146251  0  4.09902  0  0  0.008779  0.139347  0  4.063656  0
C  C65  1  0.26651230  0.54850898  0.23009973  1  0  0.130164  0  3.81224  0  0  0.14066  0  4.079004  0  0  0.144606  0  4.100143  0  0  0.00844  0.137779  0  4.06473  0
C  C66  1  0.40781490  0.55408730  0.69054334  1  0  -0.135469  0  3.741135  0  0  -0.155167  0  3.989762  0  0  -0.158826  0  4.009986  0  0  -0.097913  -0.152616  0  3.976241  0
C  C67  1  0.86339909  0.71720286  0.30939922  1  0  -0.13553  0  3.738457  0  0  -0.155505  0  3.987017  0  0  -0.159275  0  4.007236  0  0  -0.098541  -0.152872  0  3.973518  0
C  C68  1  0.46722082  0.11351363  0.80942980  1  0  -0.135342  0  3.73877  0  0  -0.155179  0  3.987347  0  0  -0.158885  0  4.007624  0  0  -0.098472  -0.152554  0  3.973839  0
C  C69  1  0.30410715  0.65800517  0.19062034  1  0  -0.135319  0  3.740567  0  0  -0.154844  0  3.98921  0  0  -0.158515  0  4.009437  0  0  -0.097784  -0.152307  0  3.97569  0
C  C70  1  0.38971478  0.45278950  0.60409290  1  0  -0.060603  0  3.745819  0  0  -0.081157  0  3.990113  0  0  -0.081364  0  4.010061  0  0  -0.088182  -0.080929  0  3.976623  0
C  C71  1  0.84859883  0.78560211  0.39587183  1  0  -0.062452  0  3.748041  0  0  -0.083267  0  3.992602  0  0  -0.083494  0  4.012571  0  0  -0.089115  -0.08313  0  3.979144  0
C  C72  1  0.53555567  0.09859456  0.89586170  1  0  -0.062934  0  3.749067  0  0  -0.083633  0  3.993591  0  0  -0.083858  0  4.013534  0  0  -0.089139  -0.08351  0  3.980156  0
C  C73  1  0.20282330  0.63988020  0.10412464  1  0  -0.060439  0  3.745732  0  0  -0.081255  0  3.989894  0  0  -0.081473  0  4.009869  0  0  -0.088201  -0.081056  0  3.976386  0
C  C74  1  0.11512188  0.17889636  0.35587237  1  0  -0.391785  0  3.565608  0  0  -0.425517  0  3.821411  0  0  -0.432527  0  3.823407  0  0  -0.158189  -0.42076  0  3.820096  0
C  C75  1  0.82307377  0.75920482  0.64412133  1  0  -0.391174  0  3.564832  0  0  -0.425169  0  3.821615  0  0  -0.432278  0  3.82369  0  0  -0.158443  -0.420371  0  3.820297  0
C  C76  1  0.50902651  0.07274915  0.14405527  1  0  -0.391222  0  3.56439  0  0  -0.425386  0  3.821152  0  0  -0.432496  0  3.823242  0  0  -0.158565  -0.420496  0  3.819679  0
C  C77  1  0.92873798  0.36491802  0.85590946  1  0  -0.392015  0  3.565968  0  0  -0.425597  0  3.821614  0  0  -0.432586  0  3.823595  0  0  -0.158058  -0.420842  0  3.820269  0
C  C78  1  0.08037150  0.07547488  0.25063725  1  0  0.71773  0  3.873765  0  0  0.669505  0  4.174555  0  0  0.703397  0  4.167639  0  0  0.205463  0.646517  0  4.178404  0
C  C79  1  0.82499786  0.82978057  0.74937639  1  0  0.718203  0  3.877434  0  0  0.669699  0  4.179055  0  0  0.703613  0  4.172076  0  0  0.205249  0.64672  0  4.182881  0
C  C80  1  0.57965774  0.07464323  0.24929370  1  0  0.71805  0  3.875994  0  0  0.669734  0  4.177271  0  0  0.703622  0  4.170339  0  0  0.20553  0.646754  0  4.181055  0
C  C81  1  0.82538369  0.33027065  0.75065473  1  0  0.717585  0  3.873978  0  0  0.66914  0  4.175078  0  0  0.703024  0  4.16816  0  0  0.204978  0.64614  0  4.178921  0
C  C82  1  0.71889386  0.65026847  0.92677234  1  0  0.134579  0  3.713293  0  0  0.100862  0  3.972203  0  0  0.108291  0  3.990253  0  0  0.046189  0.096  0  3.959928  0
C  C83  1  0.72341795  0.79206549  0.07299719  1  0  0.136429  0  3.71011  0  0  0.10278  0  3.968774  0  0  0.110236  0  3.986768  0  0  0.04675  0.097919  0  3.956528  0
C  C84  1  0.54210925  0.97346498  0.57325585  1  0  0.136401  0  3.710313  0  0  0.102658  0  3.969123  0  0  0.110108  0  3.987141  0  0  0.04665  0.097806  0  3.956885  0
C  C85  1  0.40036142  0.96887607  0.42696359  1  0  0.133997  0  3.714136  0  0  0.100282  0  3.972946  0  0  0.107708  0  3.99099  0  0  0.045783  0.09543  0  3.960657  0
C  C86  1  0.59952903  0.52928879  0.92358797  1  0  -0.154504  0  3.697413  0  0  -0.174979  0  3.949774  0  0  -0.182841  0  3.970995  0  0  -0.080208  -0.169773  0  3.935387  0
C  C87  1  0.60568206  0.67592216  0.07627251  1  0  -0.156776  0  3.700369  0  0  -0.176799  0  3.952626  0  0  -0.184647  0  3.973794  0  0  -0.080939  -0.171569  0  3.938207  0
C  C88  1  0.42596735  0.85564619  0.57646662  1  0  -0.157027  0  3.699255  0  0  -0.177191  0  3.952289  0  0  -0.185022  0  3.973392  0  0  -0.081249  -0.171972  0  3.937847  0
C  C89  1  0.27938708  0.84944546  0.42371818  1  0  -0.153446  0  3.697808  0  0  -0.173862  0  3.950328  0  0  -0.181719  0  3.971541  0  0  -0.079856  -0.168636  0  3.93589  0
C  C90  1  0.54117617  0.54117074  0.99996075  1  0  0.090099  0  3.782117  0  0  0.100361  0  4.014405  0  0  0.104707  0  4.035069  0  0  0.010156  0.097709  0  4.00017  0
C  C91  1  0.29121341  0.79104290  0.50007313  1  0  0.089108  0  3.782581  0  0  0.099152  0  4.01538  0  0  0.103503  0  4.036054  0  0  0.009693  0.096481  0  4.001106  0
C  C92  1  0.41537647  0.41539119  0.00001716  1  0  0.099981  0  3.758282  0  0  0.113646  0  3.984078  0  0  0.11763  0  4.004943  0  0  0.014748  0.111061  0  3.970083  0
C  C93  1  0.16534893  0.66519251  0.50000265  1  0  0.100368  0  3.75791  0  0  0.114138  0  3.983647  0  0  0.118113  0  4.004521  0  0  0.015039  0.111575  0  3.969623  0
C  C94  1  0.40936704  0.38980031  0.09161878  1  0  -0.154311  0  3.703225  0  0  -0.172732  0  3.949029  0  0  -0.180446  0  3.970972  0  0  -0.081749  -0.167785  0  3.934415  0
C  C95  1  0.29812619  0.31777364  0.90845141  1  0  -0.155911  0  3.704323  0  0  -0.17394  0  3.949625  0  0  -0.181721  0  3.971505  0  0  -0.082153  -0.168909  0  3.935162  0
C  C96  1  0.06776923  0.54797671  0.40840423  1  0  -0.155601  0  3.703218  0  0  -0.173535  0  3.948375  0  0  -0.181367  0  3.970218  0  0  -0.081875  -0.168489  0  3.933856  0
C  C97  1  0.13960055  0.65919491  0.59155993  1  0  -0.154488  0  3.703183  0  0  -0.172901  0  3.949008  0  0  -0.180605  0  3.97093  0  0  -0.081796  -0.167937  0  3.934421  0
C  C98  1  0.28963342  0.26890546  0.08803049  1  0  0.13845  0  3.706602  0  0  0.107904  0  3.957921  0  0  0.114698  0  3.977319  0  0  0.050395  0.103485  0  3.94461  0
C  C99  1  0.18083017  0.20166110  0.91207532  1  0  0.136915  0  3.710708  0  0  0.106855  0  3.961801  0  0  0.113729  0  3.981186  0  0  0.050223  0.102397  0  3.948554  0
C  C100  1  0.95156505  0.43071475  0.41197773  1  0  0.136934  0  3.710838  0  0  0.106867  0  3.961888  0  0  0.113736  0  3.981302  0  0  0.050377  0.102462  0  3.948619  0
C  C101  1  0.01863104  0.53948793  0.58791344  1  0  0.13886  0  3.706725  0  0  0.108187  0  3.958004  0  0  0.115003  0  3.977401  0  0  0.050682  0.103787  0  3.944768  0
S  S102  1  0.24853212  0.18336687  0.45533877  1  0  0.609574  0  3.628381  0  0  0.562334  0  4.063083  0  0  0.580907  0  4.058837  0  0  0.291354  0.549296  0  4.065783  0
S  S103  1  0.72800172  0.79316433  0.54472397  1  0  0.609061  0  3.628626  0  0  0.561952  0  4.06344  0  0  0.580492  0  4.059213  0  0  0.290796  0.548981  0  4.066086  0
S  S104  1  0.54297121  0.97777848  0.04458790  1  0  0.609295  0  3.628248  0  0  0.562005  0  4.063176  0  0  0.580541  0  4.05895  0  0  0.290799  0.549011  0  4.065784  0
S  S105  1  0.93319327  0.49835769  0.95532894  1  0  0.610419  0  3.627632  0  0  0.562892  0  4.062247  0  0  0.581461  0  4.058006  0  0  0.291555  0.549872  0  4.064914  0
N  N106  1  0.77950271  0.77950354  0.99986321  1  0  -0.346955  0  3.260242  0  0  -0.268287  0  3.524973  0  0  -0.288251  0  3.543079  0  0  -0.330424  -0.254459  0  3.512442  0
N  N107  1  0.52958412  0.02954849  0.50011797  1  0  -0.346734  0  3.260999  0  0  -0.26811  0  3.525915  0  0  -0.288077  0  3.544009  0  0  -0.329975  -0.254274  0  3.513403  0
N  N108  1  0.17686501  0.17690394  0.00006513  1  0  -0.324835  0  3.252916  0  0  -0.246201  0  3.515671  0  0  -0.266807  0  3.536166  0  0  -0.328682  -0.231901  0  3.501248  0
N  N109  1  0.92669741  0.42673296  0.49992397  1  0  -0.325466  0  3.253822  0  0  -0.246819  0  3.516675  0  0  -0.26743  0  3.53716  0  0  -0.329118  -0.232528  0  3.502285  0
Cl  Cl110  1  0.31994122  0.63934822  0.83883701  1  0  -0.108931  0  1.378484  0  0  -0.093271  0  1.615273  0  0  -0.098038  0  1.612867  0  0  0.004118  -0.089736  0  1.617021  0
Cl  Cl111  1  0.80032430  0.48096609  0.16116554  1  0  -0.108949  0  1.377542  0  0  -0.093317  0  1.614113  0  0  -0.098084  0  1.611691  0  0  0.004443  -0.089699  0  1.615768  0
Cl  Cl112  1  0.23106785  0.05054160  0.66112982  1  0  -0.10909  0  1.377841  0  0  -0.093405  0  1.614391  0  0  -0.098178  0  1.61197  0  0  0.004384  -0.089789  0  1.616039  0
Cl  Cl113  1  0.38935484  0.57010553  0.33892317  1  0  -0.108792  0  1.378439  0  0  -0.093105  0  1.615174  0  0  -0.097884  0  1.612761  0  0  0.004218  -0.089588  0  1.616914  0
O  O114  1  0.38518610  0.25427307  0.43366260  1  0  -0.60991  0  1.926049  0  0  -0.552781  0  2.176724  0  0  -0.573816  0  2.167715  0  0  -0.34661  -0.537886  0  2.182288  0
O  O115  1  0.82056934  0.95149360  0.56644926  1  0  -0.609973  0  1.925564  0  0  -0.552583  0  2.176173  0  0  -0.57357  0  2.167185  0  0  -0.346229  -0.537729  0  2.181699  0
O  O116  1  0.70132963  0.07032770  0.06633524  1  0  -0.610309  0  1.925531  0  0  -0.552661  0  2.176123  0  0  -0.573662  0  2.167157  0  0  -0.346285  -0.537777  0  2.181647  0
O  O117  1  0.00384401  0.63488737  0.93347848  1  0  -0.610592  0  1.924764  0  0  -0.553376  0  2.175402  0  0  -0.574419  0  2.166419  0  0  -0.346928  -0.538499  0  2.181004  0
O  O118  1  0.09716658  0.97278378  0.24810383  1  0  -0.634867  0  1.930834  0  0  -0.579419  0  2.145589  0  0  -0.603945  0  2.135247  0  0  -0.322648  -0.562293  0  2.152168  0
O  O119  1  0.72466633  0.84883055  0.75194890  1  0  -0.63474  0  1.932506  0  0  -0.579196  0  2.147576  0  0  -0.603711  0  2.137247  0  0  -0.322191  -0.562016  0  2.154057  0
O  O120  1  0.59911172  0.97455698  0.25184434  1  0  -0.634371  0  1.931424  0  0  -0.578922  0  2.146327  0  0  -0.603404  0  2.13599  0  0  -0.322442  -0.561735  0  2.152808  0
O  O121  1  0.72256671  0.34688815  0.74807563  1  0  -0.634987  0  1.931207  0  0  -0.579354  0  2.145964  0  0  -0.603864  0  2.135622  0  0  -0.322502  -0.56217  0  2.152498  0
O  O122  1  0.03600143  0.10447640  0.17416033  1  0  -0.646603  0  1.976042  0  0  -0.577152  0  2.217903  0  0  -0.606077  0  2.207037  0  0  -0.326043  -0.556799  0  2.224458  0
O  O123  1  0.93072205  0.86229406  0.82582071  1  0  -0.646707  0  1.978695  0  0  -0.576961  0  2.220587  0  0  -0.605884  0  2.209732  0  0  -0.325658  -0.556645  0  2.227157  0
O  O124  1  0.61178049  0.18012246  0.32575859  1  0  -0.647134  0  1.978159  0  0  -0.577472  0  2.219981  0  0  -0.606412  0  2.209198  0  0  -0.325669  -0.557114  0  2.226471  0
O  O125  1  0.85461153  0.28623504  0.67422114  1  0  -0.646212  0  1.976262  0  0  -0.576744  0  2.218212  0  0  -0.605668  0  2.207369  0  0  -0.32554  -0.556383  0  2.22482  0
O  O126  1  0.83313006  0.05949301  0.93174339  1  0  -0.845128  0  1.863553  0  0  -0.78352  0  2.051341  0  0  -0.807259  0  2.018565  0  0  -0.594284  -0.766896  0  2.073913  0
O  O127  1  0.12770474  0.90131685  0.06820503  1  0  -0.842829  0  1.864935  0  0  -0.781441  0  2.052037  0  0  -0.805155  0  2.019286  0  0  -0.593902  -0.764917  0  2.074652  0
O  O128  1  0.65158239  0.37793850  0.56827985  1  0  -0.842693  0  1.865048  0  0  -0.781407  0  2.052263  0  0  -0.805125  0  2.019717  0  0  -0.593856  -0.76484  0  2.074693  0
O  O129  1  0.80960354  0.08327566  0.43179134  1  0  -0.845056  0  1.864134  0  0  -0.783436  0  2.051779  0  0  -0.807182  0  2.01901  0  0  -0.594274  -0.766845  0  2.074365  0
