# generated using pymatgen
data_ZnH24C33NCl7O12
_symmetry_space_group_name_H-M   'P 1'
_cell_length_a   15.96037082
_cell_length_b   18.67641785
_cell_length_c   19.33684527
_cell_angle_alpha   89.91435911
_cell_angle_beta   88.15179988
_cell_angle_gamma   89.05293272
_symmetry_Int_Tables_number   1
_chemical_formula_structural   ZnH24C33NCl7O12
_chemical_formula_sum   'Zn2 H48 C66 N2 Cl14 O24'
_cell_volume   5760.18804973
_cell_formula_units_Z   2
loop_
 _symmetry_equiv_pos_site_id
 _symmetry_equiv_pos_as_xyz
  1  'x, y, z'
loop_
 _atom_site_type_symbol
 _atom_site_label
 _atom_site_symmetry_multiplicity
 _atom_site_fract_x
 _atom_site_fract_y
 _atom_site_fract_z
 _atom_site_occupancy
 _atom_site_pbe_bader_charge
 _atom_site_pbe_bader_spin_density
 _atom_site_pbe_cm5_charge
 _atom_site_pbe_ddec_charge
 _atom_site_pbe_ddec_spin_density
 _atom_site_pbe_ddec_sum_bond_order
 _atom_site_pbe_magmom
Zn  Zn0  1  0.50858804  0.57942964  0.49518578  1  1.325421  0  0.683397  0.899654  0  2.288704  0
Zn  Zn1  1  0.50275824  0.41669118  0.49910882  1  1.327796  0  0.680422  0.893546  0  2.327064  0
H  H2  1  0.05138811  0.47791653  0.31098763  1  0.078269  0  0.093416  0.097456  0  1.016956  0
H  H3  1  0.70385733  0.11323764  0.48442947  1  0.058503  0  0.090244  0.094181  0  1.00958  0
H  H4  1  0.72550269  0.19457181  0.43735879  1  0.074828  0  0.094547  0.094927  0  1.013669  0
H  H5  1  0.72833688  0.11010828  0.39303778  1  0.102489  0  0.11395  0.127288  0  0.957521  0
H  H6  1  0.69180079  0.66551801  0.35029975  1  0.107346  0  0.113442  0.127727  0  0.963915  0
H  H7  1  0.63163439  0.74692633  0.34337723  1  0.046891  0  0.087025  0.085953  0  1.041687  0
H  H8  1  0.58080590  0.66097028  0.33930330  1  0.162196  0  0.103743  0.124202  0  1.01811  0
H  H9  1  0.47446950  0.32651413  0.67261546  1  0.075997  0  0.100433  0.105864  0  0.999772  0
H  H10  1  0.38594270  0.26754143  0.68299480  1  0.064002  0  0.083556  0.08037  0  1.044751  0
H  H11  1  0.37041565  0.36290833  0.67413820  1  0.085473  0  0.109414  0.126595  0  0.986885  0
H  H12  1  0.72106759  0.42266321  0.69216947  1  0.059913  0  0.104437  0.112122  0  0.97689  0
H  H13  1  0.03096683  0.57272287  0.31753650  1  0.083269  0  0.091876  0.09504  0  1.018917  0
H  H14  1  0.62060217  0.38764802  0.67327353  1  0.061763  0  0.092459  0.097811  0  1.010287  0
H  H15  1  0.65585376  0.38707942  0.76137416  1  0.063262  0  0.093189  0.090729  0  1.011362  0
H  H16  1  0.67681715  0.46032879  0.28058388  1  0.044931  0  0.093562  0.091332  0  0.995545  0
H  H17  1  0.65439960  0.51999229  0.35197525  1  0.101792  0  0.09928  0.111724  0  1.020389  0
H  H18  1  0.73483892  0.54119709  0.28937555  1  0.07701  0  0.104147  0.108097  0  0.981734  0
H  H19  1  0.61685170  0.56476678  0.90674401  1  0.059085  0  0.092002  0.086947  0  1.015042  0
H  H20  1  0.67476184  0.54392433  0.82736941  1  0.05714  0  0.097058  0.096911  0  1.013473  0
H  H21  1  0.69949698  0.49859677  0.90643894  1  0.091446  0  0.103015  0.106938  0  0.978187  0
H  H22  1  0.63970979  0.47711780  0.06910693  1  0.037602  0  0.089627  0.082533  0  1.022013  0
H  H23  1  0.68668975  0.51187565  0.14549494  1  0.053475  0  0.09338  0.089227  0  1.024277  0
H  H24  1  0.96596845  0.51798764  0.26585693  1  0.07556  0  0.109728  0.117602  0  0.965431  0
H  H25  1  0.68483942  0.56436594  0.06788427  1  0.062464  0  0.104312  0.109023  0  0.975723  0
H  H26  1  0.24563166  0.42366452  0.79261625  1  0.048385  0  0.088081  0.081696  0  1.015644  0
H  H27  1  0.18475064  0.47330436  0.85639224  1  0.063581  0  0.105305  0.112783  0  0.971939  0
H  H28  1  0.27154552  0.41885692  0.88267967  1  0.05166  0  0.090006  0.084541  0  1.023809  0
H  H29  1  0.26432363  0.35336060  0.23110174  1  0.076096  0  0.082936  0.08027  0  1.029578  0
H  H30  1  0.36445527  0.33150524  0.19039666  1  0.072957  0  0.097534  0.101217  0  0.99996  0
H  H31  1  0.27398975  0.34102613  0.13882079  1  0.048748  0  0.100017  0.106771  0  0.975885  0
H  H32  1  0.50782551  0.64849872  0.89752975  1  0.028254  0  0.088844  0.081355  0  1.018112  0
H  H33  1  0.46547356  0.68050944  0.97969161  1  0.095203  0  0.097176  0.098566  0  1.017241  0
H  H34  1  0.42199641  0.71161257  0.90013007  1  0.062674  0  0.104393  0.109647  0  0.974383  0
H  H35  1  0.98275426  0.42765494  0.68485412  1  0.06649  0  0.090647  0.091914  0  1.017557  0
H  H36  1  0.58499759  0.37198597  0.10577361  1  0.050555  0  0.088581  0.080842  0  1.02275  0
H  H37  1  0.57600709  0.33163616  0.02156256  1  0.074032  0  0.096604  0.098131  0  1.012001  0
H  H38  1  0.54600136  0.28303025  0.09850936  1  0.057108  0  0.104154  0.1087  0  0.97569  0
H  H39  1  0.28378098  0.57862129  0.12053349  1  0.065688  0  0.094742  0.098544  0  1.000237  0
H  H40  1  0.26990029  0.62599545  0.04031075  1  0.05453  0  0.094018  0.091267  0  0.995867  0
H  H41  1  0.30077138  0.67346547  0.11602592  1  0.057751  0  0.104879  0.109044  0  0.974936  0
H  H42  1  0.37541694  0.34073767  0.86583564  1  0.003234  0  0.088224  0.081589  0  1.026796  0
H  H43  1  0.36733790  0.30386755  0.95196393  1  0.039234  0  0.094326  0.090841  0  0.996529  0
H  H44  1  0.44072050  0.26616242  0.88919887  1  0.063939  0  0.104259  0.10876  0  0.974338  0
H  H45  1  0.96571175  0.52313962  0.68929289  1  0.064074  0  0.091895  0.094727  0  1.020813  0
H  H46  1  0.05198795  0.48238097  0.73279988  1  0.074118  0  0.110395  0.120502  0  0.967981  0
H  H47  1  0.42611463  0.88502490  0.65967769  1  0.052573  0  0.087131  0.089857  0  1.018282  0
H  H48  1  0.37977994  0.79824170  0.67066102  1  0.076706  0  0.094504  0.095478  0  1.016933  0
H  H49  1  0.31400733  0.87625543  0.66132193  1  0.0601  0  0.113279  0.12651  0  0.957535  0
C  C50  1  0.50220360  0.50352475  0.36404392  1  1.596875  0  0.214142  0.620583  0  4.185004  0
C  C51  1  0.41140699  0.46691455  0.26638346  1  0.038712  0  -0.000701  0.019098  0  4.047403  0
C  C52  1  0.47561499  0.50597800  0.70666440  1  0.031  0  -0.024863  -0.156133  0  4.009737  0
C  C53  1  0.48641371  0.49710450  0.28779245  1  0.071942  0  -0.030904  -0.167312  0  3.984889  0
C  C54  1  0.41086353  0.54922282  0.96231951  1  0.513941  0  0.072032  0.106997  0  4.046567  0
C  C55  1  0.44985001  0.42397868  0.03565843  1  0.467701  0  0.067876  0.097798  0  4.053811  0
C  C56  1  0.41172385  0.55003429  0.03487764  1  0.506442  0  0.071183  0.10475  0  4.057609  0
C  C57  1  0.45090270  0.42324266  0.96300238  1  0.530658  0  0.06821  0.099457  0  4.062647  0
C  C58  1  0.43395899  0.48826476  0.07163844  1  0.028243  0  -0.017336  -0.071736  0  4.046937  0
C  C59  1  0.43290024  0.48610910  0.92592899  1  0.071989  0  -0.023269  -0.087901  0  4.051421  0
C  C60  1  0.43922239  0.73097715  0.53790882  1  0.656197  0  0.144421  0.201723  0  4.044263  0
C  C61  1  0.49335780  0.50915473  0.62971949  1  1.638275  0  0.217794  0.630354  0  4.18215  0
C  C62  1  0.55669011  0.26204672  0.45767989  1  0.649441  0  0.145103  0.201497  0  4.053913  0
C  C63  1  0.43703824  0.80625380  0.54041711  1  0.593933  0  0.076994  0.099384  0  4.069852  0
C  C64  1  0.56075372  0.18697788  0.46172637  1  0.641202  0  0.076969  0.097023  0  4.075388  0
C  C65  1  0.66545414  0.48237523  0.50153387  1  1.741804  0  0.22099  0.669632  0  4.240867  0
C  C66  1  0.34579140  0.49392595  0.49492528  1  1.671  0  0.213549  0.653254  0  4.277071  0
C  C67  1  0.50166218  0.84353866  0.50628635  1  0.103021  0  -0.011435  -0.023954  0  4.064656  0
C  C68  1  0.50623566  0.15284345  0.50906069  1  0.036786  0  -0.010159  -0.021505  0  4.059609  0
C  C69  1  0.56492361  0.80490893  0.47034541  1  0.115716  0  0.005961  -0.042758  0  4.039829  0
C  C70  1  0.45220969  0.19445579  0.55149356  1  0.123708  0  0.005726  -0.042724  0  4.040895  0
C  C71  1  0.56128742  0.72971980  0.46799603  1  1.111733  0  0.217027  0.350694  0  4.056907  0
C  C72  1  0.52721884  0.48183903  0.82129138  1  0.586495  0  0.074437  0.109448  0  4.041704  0
C  C73  1  0.45523597  0.26961755  0.54725174  1  1.146524  0  0.21872  0.351212  0  4.048443  0
C  C74  1  0.54802297  0.95890946  0.55788766  1  0.194053  0  0.009289  0.045074  0  4.03692  0
C  C75  1  0.45702094  0.03752182  0.46118621  1  0.085508  0  0.013534  0.054133  0  4.022611  0
C  C76  1  0.54899415  0.03406229  0.55860263  1  0.02683  0  0.007942  0.046637  0  4.035903  0
C  C77  1  0.45588257  0.96240090  0.46053987  1  0.181171  0  0.014649  0.05534  0  4.020151  0
C  C78  1  0.50395277  0.07350495  0.51006025  1  0.103787  0  -0.016173  -0.014282  0  4.017248  0
C  C79  1  0.50176215  0.92292773  0.50865398  1  0.130102  0  -0.014544  -0.011156  0  4.010975  0
C  C80  1  0.02828037  0.56279625  0.47230921  1  0.148618  0  0.014346  0.027284  0  3.721119  0
C  C81  1  0.98355029  0.43307133  0.52671071  1  0.114774  0  0.014144  0.029361  0  3.720604  0
C  C82  1  0.97787127  0.50340132  0.43277775  1  0.653192  0  0.095266  0.160616  0  3.748372  0
C  C83  1  0.52237112  0.52517663  0.16777396  1  0.52618  0  0.073122  0.112252  0  4.041529  0
C  C84  1  0.03386144  0.49267037  0.56606649  1  0.63724  0  0.094878  0.157427  0  3.749154  0
C  C85  1  0.75610109  0.48333533  0.50228414  1  0.104683  0  -0.037263  -0.162783  0  3.947254  0
C  C86  1  0.25543492  0.50025008  0.49650624  1  0.237348  0  -0.036401  -0.151068  0  3.965667  0
C  C87  1  0.97038791  0.55189941  0.53861647  1  0.144019  0  0.015198  0.029046  0  3.722779  0
C  C88  1  0.04095200  0.44394749  0.46021474  1  0.144866  0  0.014754  0.02567  0  3.72853  0
C  C89  1  0.92006456  0.49223927  0.50003735  1  0.074291  0  0.001114  0.026221  0  3.841445  0
C  C90  1  0.09136411  0.50343025  0.49880781  1  0.04335  0  0.001795  0.032108  0  3.846964  0
C  C91  1  0.83215756  0.48695428  0.50080527  1  -0.378755  0  -0.046529  -0.040323  0  4.115234  0
C  C92  1  0.17940251  0.50527883  0.49823286  1  -0.395463  0  -0.048571  -0.043869  0  4.10185  0
C  C93  1  0.54223540  0.49089322  0.74987727  1  0.514054  0  0.068412  0.117347  0  4.0665  0
C  C94  1  0.44514063  0.48900625  0.84973940  1  -0.010756  0  -0.019902  -0.081159  0  4.028366  0
C  C95  1  0.54294148  0.52522579  0.23801822  1  0.523903  0  0.070478  0.119744  0  4.055111  0
C  C96  1  0.00237702  0.51993436  0.31283434  1  0.319555  0  -0.139052  -0.168236  0  3.87791  0
C  C97  1  0.01323547  0.47989430  0.68716118  1  0.349393  0  -0.140188  -0.171185  0  3.88684  0
C  C98  1  0.37387987  0.85082026  0.64553631  1  0.385049  0  -0.137929  -0.167153  0  3.883603  0
C  C99  1  0.69748838  0.14129588  0.43474654  1  0.318957  0  -0.136239  -0.166801  0  3.87752  0
C  C100  1  0.63109010  0.69145631  0.36203215  1  0.289796  0  -0.13718  -0.166824  0  3.82605  0
C  C101  1  0.40957594  0.31667601  0.65869031  1  0.373533  0  -0.136562  -0.159512  0  3.852018  0
C  C102  1  0.65644086  0.41637532  0.71192236  1  0.358465  0  -0.141028  -0.171586  0  3.902732  0
C  C103  1  0.67314795  0.51678571  0.29691254  1  0.327518  0  -0.139993  -0.178563  0  3.906699  0
C  C104  1  0.64890117  0.52203867  0.87623413  1  0.331573  0  -0.139067  -0.170917  0  3.917117  0
C  C105  1  0.44867388  0.49271095  0.14678189  1  0.01711  0  -0.017918  -0.078536  0  4.037741  0
C  C106  1  0.65019879  0.52558970  0.09990146  1  0.386111  0  -0.140207  -0.169509  0  3.939914  0
C  C107  1  0.24797183  0.45385603  0.84145283  1  0.379609  0  -0.141021  -0.168984  0  3.94204  0
C  C108  1  0.30489306  0.36087557  0.18475440  1  0.348354  0  -0.145247  -0.169695  0  3.928857  0
C  C109  1  0.45040818  0.66572875  0.92655840  1  0.363026  0  -0.140953  -0.170959  0  3.922331  0
C  C110  1  0.54787819  0.33604525  0.07408493  1  0.357797  0  -0.141721  -0.171934  0  3.925655  0
C  C111  1  0.30659744  0.62282342  0.08755049  1  0.369335  0  -0.137182  -0.166417  0  3.906482  0
C  C112  1  0.41054935  0.31593021  0.90804410  1  0.436513  0  -0.139106  -0.165515  0  3.937337  0
C  C113  1  0.37822532  0.50430292  0.80619831  1  0.537039  0  0.071549  0.13887  0  4.068913  0
C  C114  1  0.39292986  0.46305715  0.19601887  1  0.586637  0  0.07014  0.135848  0  4.090871  0
C  C115  1  0.39393812  0.51184956  0.73470747  1  0.102697  0  -0.001306  0.011829  0  4.068202  0
N  N116  1  0.49934956  0.69436291  0.50190126  1  -1.196665  0  -0.305129  -0.315084  0  3.431775  0
N  N117  1  0.50656752  0.30166099  0.50013414  1  -1.207722  0  -0.30628  -0.315838  0  3.440411  0
Cl  Cl118  1  0.36187354  0.68551740  0.58089064  1  -0.103184  0  0.061804  0.005948  0  1.65268  0
Cl  Cl119  1  0.95391895  0.35044468  0.55835831  1  -0.201337  0  -0.024166  -0.083983  0  1.439832  0
Cl  Cl120  1  0.08787942  0.37502016  0.41315392  1  -0.1936  0  -0.013233  -0.069876  0  1.459947  0
Cl  Cl121  1  0.92376684  0.62130959  0.58522212  1  -0.193926  0  -0.014012  -0.071268  0  1.448074  0
Cl  Cl122  1  0.31053668  0.52627343  0.68090846  1  -0.204432  0  0.001831  -0.045835  0  1.576863  0
Cl  Cl123  1  0.33686953  0.43931871  0.32726076  1  -0.19392  0  0.004437  -0.040052  0  1.616676  0
Cl  Cl124  1  0.61615877  0.30376735  0.39514499  1  -0.124169  0  0.05606  0.002352  0  1.584263  0
Cl  Cl125  1  0.64851862  0.84910136  0.43266927  1  -0.174211  0  0.017722  -0.030877  0  1.550247  0
Cl  Cl126  1  0.37881661  0.15351092  0.60462639  1  -0.172822  0  0.019483  -0.02761  0  1.546515  0
Cl  Cl127  1  0.60422758  0.91030488  0.61666979  1  -0.167833  0  0.012468  -0.041644  0  1.560595  0
Cl  Cl128  1  0.40106233  0.08612016  0.40253336  1  -0.159418  0  0.016253  -0.026332  0  1.535501  0
Cl  Cl129  1  0.60594151  0.07860737  0.61862534  1  -0.175161  0  0.006193  -0.049851  0  1.553204  0
Cl  Cl130  1  0.39967877  0.91800442  0.40033209  1  -0.159833  0  0.015995  -0.027295  0  1.531576  0
Cl  Cl131  1  0.05758461  0.64577291  0.44146640  1  -0.203582  0  -0.016876  -0.074937  0  1.443834  0
O  O132  1  0.50486898  0.56656991  0.38838667  1  -1.146294  0  -0.306078  -0.530068  0  2.297506  0
O  O133  1  0.07052016  0.48903337  0.62847302  1  -1.05861  0  -0.19861  -0.164593  0  2.534929  0
O  O134  1  0.37168804  0.84353658  0.57118428  1  -1.09164  0  -0.206251  -0.178302  0  2.573564  0
O  O135  1  0.61013105  0.14676965  0.41727351  1  -1.068779  0  -0.207271  -0.18108  0  2.57447  0
O  O136  1  0.62114405  0.68854787  0.43711160  1  -1.097437  0  -0.181665  -0.178376  0  2.5665  0
O  O137  1  0.40408084  0.31379259  0.58411596  1  -1.099667  0  -0.17572  -0.162993  0  2.591654  0
O  O138  1  0.62263406  0.48789810  0.72124751  1  -1.067236  0  -0.208303  -0.177183  0  2.524742  0
O  O139  1  0.61722871  0.55689051  0.25392952  1  -1.073998  0  -0.200114  -0.172858  0  2.575284  0
O  O140  1  0.59221134  0.46469778  0.86389262  1  -1.07221  0  -0.204943  -0.176587  0  2.571972  0
O  O141  1  0.57191408  0.55985869  0.11912205  1  -1.064557  0  -0.204723  -0.170948  0  2.566719  0
O  O142  1  0.29845217  0.51621500  0.83337983  1  -1.076329  0  -0.209049  -0.179625  0  2.58336  0
O  O143  1  0.49437265  0.44827869  0.60052605  1  -1.173386  0  -0.307916  -0.549842  0  2.371429  0
O  O144  1  0.31961107  0.43592119  0.17260582  1  -1.077534  0  -0.210893  -0.189373  0  2.570511  0
O  O145  1  0.38929007  0.61000240  0.92610861  1  -1.073937  0  -0.204551  -0.171249  0  2.561239  0
O  O146  1  0.46243496  0.36129525  0.07232509  1  -1.069257  0  -0.207779  -0.180019  0  2.56294  0
O  O147  1  0.39447176  0.61308219  0.07017278  1  -1.073811  0  -0.207868  -0.18178  0  2.544705  0
O  O148  1  0.47671413  0.36117308  0.92894137  1  -1.076623  0  -0.208735  -0.181425  0  2.580528  0
O  O149  1  0.51154359  0.44516978  0.39668810  1  -1.167408  0  -0.321326  -0.581296  0  2.424241  0
O  O150  1  0.50479968  0.56967968  0.60206510  1  -1.150965  0  -0.314086  -0.545922  0  2.318813  0
O  O151  1  0.63025578  0.54307919  0.49262969  1  -1.146421  0  -0.306232  -0.542041  0  2.32116  0
O  O152  1  0.37598666  0.43060054  0.49442854  1  -1.127551  0  -0.309292  -0.532036  0  2.323144  0
O  O153  1  0.63113427  0.42175305  0.50865454  1  -1.148757  0  -0.317594  -0.55661  0  2.302412  0
O  O154  1  0.38494795  0.55251469  0.49424137  1  -1.155034  0  -0.314776  -0.562547  0  2.382781  0
O  O155  1  0.94281936  0.50779090  0.36966835  1  -1.070754  0  -0.204163  -0.175136  0  2.520556  0
