# generated using pymatgen
data_CdH8C14(NO2)2
_symmetry_space_group_name_H-M   'P 1'
_cell_length_a   7.82782348
_cell_length_b   9.45498637
_cell_length_c   10.21103806
_cell_angle_alpha   91.29120693
_cell_angle_beta   71.15318986
_cell_angle_gamma   68.05557087
_symmetry_Int_Tables_number   1
_chemical_formula_structural   CdH8C14(NO2)2
_chemical_formula_sum   'Cd2 H16 C28 N4 O8'
_cell_volume   654.50675460
_cell_formula_units_Z   2
loop_
 _symmetry_equiv_pos_site_id
 _symmetry_equiv_pos_as_xyz
  1  'x, y, z'
loop_
 _atom_site_type_symbol
 _atom_site_label
 _atom_site_symmetry_multiplicity
 _atom_site_fract_x
 _atom_site_fract_y
 _atom_site_fract_z
 _atom_site_occupancy
 _atom_site_pbe_bader_spin_density
 _atom_site_pbe_cm5_charge
 _atom_site_pbe_ddec_charge
 _atom_site_pbe_ddec_spin_density
 _atom_site_pbe_ddec_sum_bond_order
 _atom_site_pbe_magmom
Cd  Cd0  1  0.14293894  0.05187448  0.60139475  1  0  0.791167  0.975156  0  2.135973  0
Cd  Cd1  1  0.85706733  0.94812732  0.39859778  1  0  0.791146  0.975105  0  2.135902  0
H  H2  1  0.50030845  0.93478394  0.73218743  1  0  0.136985  0.118028  0  1.016805  0
H  H3  1  0.49970948  0.06521116  0.26780998  1  0  0.136988  0.11809  0  1.016747  0
H  H4  1  0.97185917  0.86520760  0.87040953  1  0  0.120772  0.120317  0  0.995148  0
H  H5  1  0.02814421  0.13480225  0.12958179  1  0  0.12078  0.120291  0  0.995127  0
H  H6  1  0.21487846  0.69519743  0.00878777  1  0  0.128888  0.136073  0  1.009101  0
H  H7  1  0.78511866  0.30480896  0.99120805  1  0  0.128938  0.13624  0  1.009001  0
H  H8  1  0.78033817  0.66763874  0.70220885  1  0  0.106944  0.116532  0  1.013707  0
H  H9  1  0.21966317  0.33235970  0.29779177  1  0  0.106923  0.116468  0  1.013739  0
H  H10  1  0.07086434  0.51900296  0.75848354  1  0  0.09951  0.098703  0  1.054919  0
H  H11  1  0.92913978  0.48098496  0.24151243  1  0  0.099529  0.098767  0  1.054773  0
H  H12  1  0.70288786  0.60004592  0.19517969  1  0  0.09848  0.095334  0  1.055884  0
H  H13  1  0.29710440  0.39994662  0.80482221  1  0  0.098564  0.095409  0  1.055811  0
H  H14  1  0.41340446  0.74809674  0.13916776  1  0  0.105342  0.128922  0  1.040215  0
H  H15  1  0.58659347  0.25190040  0.86082881  1  0  0.105325  0.128947  0  1.040119  0
H  H16  1  0.80284804  0.52662477  0.49724347  1  0  0.109501  0.118832  0  1.004704  0
H  H17  1  0.19714192  0.47337480  0.50276295  1  0  0.109562  0.119009  0  1.004634  0
C  C18  1  0.38956305  0.89271360  0.78767211  1  0  0.142215  0.09597  0  3.899949  0
C  C19  1  0.61044576  0.10728598  0.21232369  1  0  0.142192  0.095967  0  3.899776  0
C  C20  1  0.11696338  0.85551649  0.86340245  1  0  4.5e-05  -0.021857  0  4.016686  0
C  C21  1  0.88303998  0.14449349  0.13659476  1  0  4.9e-05  -0.021785  0  4.01685  0
C  C22  1  0.23468423  0.77069792  0.93231532  1  0  0.007461  -0.089545  0  3.873883  0
C  C23  1  0.76532569  0.22930988  0.06768415  1  0  0.00736  -0.089833  0  3.874092  0
C  C24  1  0.57870256  0.71764256  0.91673650  1  0  0.090115  0.157762  0  4.034093  0
C  C25  1  0.42129355  0.28235807  0.08326152  1  0  0.090141  0.15772  0  4.034167  0
C  C26  1  0.76474125  0.65456238  0.81071994  1  0  -0.088557  -0.155886  0  3.981039  0
C  C27  1  0.23525713  0.34543137  0.18928042  1  0  -0.088585  -0.155813  0  3.981018  0
C  C28  1  0.92911930  0.57029739  0.84395037  1  0  -0.083529  -0.102422  0  3.959209  0
C  C29  1  0.07088374  0.42967201  0.15604776  1  0  -0.083493  -0.102398  0  3.959095  0
C  C30  1  0.91296045  0.54684010  0.98245946  1  0  -0.009185  0.050691  0  3.989684  0
C  C31  1  0.08703944  0.45313267  0.01753556  1  0  -0.009173  0.050606  0  3.989788  0
C  C32  1  0.72362591  0.61467854  0.08670772  1  0  -0.086125  -0.104056  0  3.969844  0
C  C33  1  0.27636239  0.38530358  0.91329710  1  0  -0.086301  -0.104171  0  3.970115  0
C  C34  1  0.55776486  0.69936392  0.05553884  1  0  -0.093963  -0.165152  0  3.977569  0
C  C35  1  0.44222942  0.30061705  0.94446349  1  0  -0.093872  -0.165083  0  3.977566  0
C  C36  1  0.56903634  0.77678300  0.43395986  1  0  0.2046  0.569588  0  4.24997  0
C  C37  1  0.43097128  0.22323180  0.56604315  1  0  0.204458  0.569167  0  4.250279  0
C  C38  1  0.52658714  0.63664151  0.46968097  1  0  -0.014437  -0.062615  0  3.957891  0
C  C39  1  0.47339667  0.36338012  0.53033001  1  0  -0.01446  -0.062618  0  3.95798  0
C  C40  1  0.66981403  0.51320211  0.49904382  1  0  -0.07987  -0.120246  0  3.94515  0
C  C41  1  0.33017490  0.48680182  0.50095014  1  0  -0.079932  -0.120389  0  3.945237  0
C  C42  1  0.35301992  0.62327377  0.47082943  1  0  -0.002075  -0.016662  0  3.921612  0
C  C43  1  0.64698257  0.37673270  0.52916700  1  0  -0.002003  -0.016483  0  3.921808  0
C  C44  1  0.18638105  0.74616665  0.44233085  1  0  0.202164  0.581438  0  4.206243  0
C  C45  1  0.81360325  0.25385144  0.55767705  1  0  0.202169  0.58136  0  4.206503  0
N  N46  1  0.21439856  0.93153098  0.77478511  1  0  -0.364358  -0.318754  0  3.584714  0
N  N47  1  0.78561101  0.06846968  0.22520659  1  0  -0.364352  -0.31879  0  3.584806  0
N  N48  1  0.40770081  0.79446047  0.88253589  1  0  -0.220813  0.016624  0  3.796152  0
N  N49  1  0.59230523  0.20554956  0.11746162  1  0  -0.220782  0.016636  0  3.795923  0
O  O50  1  0.04652489  0.84648938  0.54709129  1  0  -0.336559  -0.579243  0  2.24092  0
O  O51  1  0.95346801  0.15352800  0.45293208  1  0  -0.336555  -0.579145  0  2.240935  0
O  O52  1  0.43592723  0.89551630  0.41804076  1  0  -0.329529  -0.570205  0  2.275053  0
O  O53  1  0.56408208  0.10447966  0.58194805  1  0  -0.329476  -0.570045  0  2.275082  0
O  O54  1  0.74347214  0.76169306  0.41860273  1  0  -0.327676  -0.554048  0  2.307705  0
O  O55  1  0.25654269  0.23829514  0.58139936  1  0  -0.327666  -0.553915  0  2.307924  0
O  O56  1  0.17912542  0.73987010  0.32070894  1  0  -0.30747  -0.519258  0  2.174345  0
O  O57  1  0.82086864  0.26014220  0.67929354  1  0  -0.307516  -0.519332  0  2.174374  0
