# generated using pymatgen
data_CoH22C28(NO5)2
_symmetry_space_group_name_H-M   'P 1'
_cell_length_a   8.98617091
_cell_length_b   11.40797975
_cell_length_c   13.17198979
_cell_angle_alpha   115.70187006
_cell_angle_beta   98.66032519
_cell_angle_gamma   90.02881014
_symmetry_Int_Tables_number   1
_chemical_formula_structural   CoH22C28(NO5)2
_chemical_formula_sum   'Co2 H44 C56 N4 O20'
_cell_volume   1199.55868617
_cell_formula_units_Z   2
loop_
 _symmetry_equiv_pos_site_id
 _symmetry_equiv_pos_as_xyz
  1  'x, y, z'
loop_
 _atom_site_type_symbol
 _atom_site_label
 _atom_site_symmetry_multiplicity
 _atom_site_fract_x
 _atom_site_fract_y
 _atom_site_fract_z
 _atom_site_occupancy
 _atom_site_pbe_cm5_charge
 _atom_site_pbe_ddec_charge
 _atom_site_pbe_ddec_spin_density
 _atom_site_pbe_ddec_sum_bond_order
 _atom_site_pbe_magmom
Co  Co0  1  0.99999530  0.50000293  0.00000500  1  0.650364  0.703879  1.045961  2.887208  0.975
Co  Co1  1  0.50000279  0.49999142  0.99999620  1  0.648634  0.703017  1.044674  2.883317  0.975
H  H2  1  0.83537981  0.72690204  0.10100601  1  0.121231  0.099483  -0.00026  1.037192  0.0
H  H3  1  0.66309809  0.62900039  0.89955215  1  0.120984  0.098553  -0.000235  1.037988  0.0
H  H4  1  0.16461378  0.27310514  0.89898565  1  0.121273  0.099532  -0.000244  1.037211  0.0
H  H5  1  0.33691059  0.37099310  0.10044930  1  0.120934  0.09847  -0.000234  1.038033  0.0
H  H6  1  0.85938791  0.92121382  0.28721659  1  0.100893  0.106141  -3.1e-05  1.046441  0.0
H  H7  1  0.63777578  0.63792982  0.71393720  1  0.101319  0.107122  -1.9e-05  1.044209  0.0
H  H8  1  0.14059661  0.07879134  0.71277653  1  0.10086  0.106139  -1.9e-05  1.046399  0.0
H  H9  1  0.36223260  0.36207441  0.28606756  1  0.101308  0.107111  -1.6e-05  1.044255  0.0
H  H10  1  0.23838080  0.75548795  0.40819282  1  0.106991  0.11828  -6.4e-05  0.999454  0.0
H  H11  1  0.26546554  0.34434419  0.59058322  1  0.107083  0.11821  -5.1e-05  0.998467  0.0
H  H12  1  0.76159338  0.24452188  0.59181939  1  0.107035  0.118365  -4.6e-05  0.999393  0.0
H  H13  1  0.73453987  0.65566588  0.40942199  1  0.107067  0.118283  -4.3e-05  0.998315  0.0
H  H14  1  0.20181626  0.57003771  0.21476543  1  0.119813  0.086509  -0.000344  1.033783  0.0
H  H15  1  0.30163476  0.35251063  0.78369911  1  0.119263  0.086089  -0.000335  1.036023  0.0
H  H16  1  0.79816392  0.42997802  0.78524653  1  0.119796  0.086432  -0.000338  1.033896  0.0
H  H17  1  0.69836882  0.64749066  0.21630183  1  0.119284  0.086093  -0.000336  1.036093  0.0
H  H18  1  0.12889658  0.93621561  0.54426410  1  0.095754  0.095223  -0.000126  1.001967  0.0
H  H19  1  0.36854905  0.39412697  0.45610747  1  0.095502  0.093991  -9.9e-05  1.003486  0.0
H  H20  1  0.87107550  0.06378451  0.45573738  1  0.09584  0.095306  -0.000123  1.001882  0.0
H  H21  1  0.63146442  0.60587046  0.54389514  1  0.095517  0.094008  -0.000103  1.003568  0.0
H  H22  1  0.15286274  0.04566253  0.48575018  1  0.097539  0.102327  -0.000741  0.982101  0.0
H  H23  1  0.34906434  0.56294710  0.51556011  1  0.097462  0.102455  -0.000727  0.981735  0.0
H  H24  1  0.84710891  0.95434636  0.51425461  1  0.097561  0.102459  -0.00074  0.981998  0.0
H  H25  1  0.65093784  0.43705226  0.48443617  1  0.097438  0.102461  -0.00074  0.981752  0.0
H  H26  1  0.88590488  0.85345014  0.01492364  1  0.110077  0.124291  -0.000108  1.030789  0.0
H  H27  1  0.61242904  0.83911022  0.98488459  1  0.109961  0.12405  -0.000111  1.031042  0.0
H  H28  1  0.11409276  0.14654722  0.98507526  1  0.11006  0.124292  -0.000121  1.030803  0.0
H  H29  1  0.38756571  0.16087933  0.01511032  1  0.10998  0.124063  -0.000103  1.031138  0.0
H  H30  1  0.75692585  0.04751584  0.80210880  1  0.108105  0.13603  -2.1e-05  1.03567  0.0
H  H31  1  0.74597901  0.24538891  0.19924467  1  0.108368  0.136208  -1.4e-05  1.03509  0.0
H  H32  1  0.24308709  0.95249139  0.19789143  1  0.108104  0.136008  -1.5e-05  1.035637  0.0
H  H33  1  0.25402763  0.75459386  0.80075023  1  0.108308  0.136114  -1.5e-05  1.035106  0.0
H  H34  1  0.85524604  0.86564929  0.64134612  1  0.103475  0.103138  -4.3e-05  1.018571  0.0
H  H35  1  0.64798856  0.22410277  0.35973784  1  0.103385  0.102766  -5.2e-05  1.019612  0.0
H  H36  1  0.14479034  0.13436976  0.35866071  1  0.103503  0.103174  -3e-05  1.018388  0.0
H  H37  1  0.35202543  0.77588685  0.64026185  1  0.10345  0.10298  -4.3e-05  1.019456  0.0
H  H38  1  0.78240584  0.43515708  0.06679145  1  0.28861  0.360404  -0.000439  0.998013  0.0
H  H39  1  0.71841205  0.36867377  0.93452657  1  0.288701  0.359797  -0.000444  0.999585  0.0
H  H40  1  0.21758979  0.56484220  0.93321104  1  0.288621  0.360473  -0.000437  0.997955  0.0
H  H41  1  0.28158703  0.63131087  0.06547369  1  0.288712  0.359787  -0.000443  0.999422  0.0
H  H42  1  0.96358055  0.45592519  0.55548124  1  0.302933  0.355968  1e-06  0.979659  0.0
H  H43  1  0.53465389  0.89986183  0.44327833  1  0.303043  0.354978  5e-06  0.980317  0.0
H  H44  1  0.03646175  0.54407251  0.44450886  1  0.302834  0.355905  1e-06  0.979655  0.0
H  H45  1  0.46534440  0.10012869  0.55672030  1  0.302962  0.354882  -0.0  0.980443  0.0
C  C46  1  0.92520095  0.73912946  0.17079967  1  0.042158  0.08524  -0.008653  3.919342  -0.005
C  C47  1  0.57391449  0.57036735  0.82964187  1  0.041606  0.084953  -0.008393  3.917959  -0.005
C  C48  1  0.07479319  0.26088255  0.82919920  1  0.042067  0.085079  -0.008523  3.91976  -0.005
C  C49  1  0.42609118  0.42962901  0.17036497  1  0.041705  0.085117  -0.008374  3.917907  -0.005
C  C50  1  0.93919740  0.84664815  0.27636125  1  -0.090306  -0.185989  0.000312  3.952591  0.001
C  C51  1  0.55939384  0.57270302  0.72426402  1  -0.089833  -0.185375  0.000355  3.950778  0.001
C  C52  1  0.06078670  0.15336278  0.72364239  1  -0.090266  -0.185972  0.000335  3.952786  0.001
C  C53  1  0.44061042  0.42730406  0.27574678  1  -0.089857  -0.185454  0.000359  3.95094  0.001
C  C54  1  0.05228731  0.85630372  0.36589827  1  0.007649  0.15872  -0.009542  3.943592  -0.006
C  C55  1  0.44773460  0.49129521  0.63421969  1  0.007592  0.158836  -0.009446  3.944964  -0.006
C  C56  1  0.94768287  0.14369929  0.63410794  1  0.007724  0.158853  -0.009544  3.943581  -0.006
C  C57  1  0.55226944  0.50871194  0.36578352  1  0.007535  0.158893  -0.009447  3.944846  -0.006
C  C58  1  0.14787179  0.75429525  0.34246421  1  -0.083943  -0.169371  0.00043  3.92287  0.001
C  C59  1  0.35430006  0.41067502  0.65695435  1  -0.083806  -0.169193  0.000445  3.924025  0.001
C  C60  1  0.85210435  0.24571268  0.65754289  1  -0.084036  -0.169464  0.00046  3.922709  0.001
C  C61  1  0.64570268  0.58933316  0.34304079  1  -0.083821  -0.169476  0.000459  3.923763  0.001
C  C62  1  0.12885605  0.65020052  0.23479997  1  0.049962  0.112036  -0.007857  3.907725  -0.005
C  C63  1  0.37341420  0.41423791  0.76455497  1  0.050357  0.111543  -0.007849  3.909139  -0.005
C  C64  1  0.87112709  0.34981135  0.76520699  1  0.050015  0.112067  -0.007871  3.907768  -0.005
C  C65  1  0.62659023  0.58576346  0.23543696  1  0.050439  0.111747  -0.007856  3.909011  -0.005
C  C66  1  0.07321664  0.96976123  0.48240272  1  -0.155121  -0.193017  -0.000647  3.960722  0.0
C  C67  1  0.42652584  0.48867587  0.51798654  1  -0.15452  -0.191377  -0.000665  3.957788  0.0
C  C68  1  0.92675606  0.03024669  0.51760179  1  -0.155242  -0.193214  -0.000631  3.960605  0.0
C  C69  1  0.57348033  0.51132833  0.48201954  1  -0.154501  -0.191423  -0.000674  3.957848  0.0
C  C70  1  0.92983164  0.75376698  0.84361391  1  -0.000644  -0.001814  -0.001045  3.926027  0.0
C  C71  1  0.56920989  0.91041459  0.15628086  1  -0.000708  -0.0015  -0.001024  3.924806  0.0
C  C72  1  0.07015357  0.24623033  0.15638235  1  -0.000752  -0.001814  -0.001048  3.926119  0.0
C  C73  1  0.43078930  0.08957300  0.84371673  1  -0.000683  -0.001552  -0.001046  3.924709  0.0
C  C74  1  0.87398011  0.85469437  0.93201174  1  -0.096374  -0.229544  -0.000547  3.968393  0.0
C  C75  1  0.62507547  0.92305179  0.06799424  1  -0.096364  -0.228324  -0.000513  3.968572  0.0
C  C76  1  0.12601917  0.14530983  0.06798917  1  -0.096341  -0.229572  -0.000579  3.968539  0.0
C  C77  1  0.37492620  0.07693775  0.93200659  1  -0.096384  -0.228308  -0.00052  3.968568  0.0
C  C78  1  0.80707966  0.95672843  0.91523304  1  0.094191  0.275657  -0.000105  4.00909  0.0
C  C79  1  0.69307704  0.04173590  0.08512913  1  0.094874  0.275083  -9e-05  4.009476  0.0
C  C80  1  0.19290974  0.04326700  0.08475756  1  0.094243  0.275706  -9.3e-05  4.009028  0.0
C  C81  1  0.30690763  0.95825658  0.91485993  1  0.094804  0.27496  -9e-05  4.009437  0.0
C  C82  1  0.80439148  0.96408837  0.81164674  1  -0.097382  -0.191724  -0.000566  3.94891  0.0
C  C83  1  0.69726058  0.15252651  0.18916329  1  -0.097343  -0.191499  -0.000536  3.94919  0.0
C  C84  1  0.19562131  0.03591790  0.18835084  1  -0.097349  -0.191561  -0.00057  3.948743  0.0
C  C85  1  0.30273294  0.84746605  0.81082127  1  -0.097254  -0.191314  -0.000526  3.949001  0.0
C  C86  1  0.86085768  0.86368145  0.72379394  1  -0.078775  -0.067117  -5.2e-05  3.984314  0.0
C  C87  1  0.64082466  0.13993228  0.27693714  1  -0.07909  -0.067187  -6.6e-05  3.985211  0.0
C  C88  1  0.13915635  0.13632678  0.27620298  1  -0.078795  -0.067207  -2.6e-05  3.984216  0.0
C  C89  1  0.35918560  0.86005643  0.72305275  1  -0.079196  -0.067567  -5.1e-05  3.985208  0.0
C  C90  1  0.92005293  0.75568604  0.73627045  1  -0.024277  -0.107473  -0.000656  3.992249  0.0
C  C91  1  0.58010258  0.01963940  0.26386122  1  -0.024358  -0.108679  -0.000597  3.994671  0.0
C  C92  1  0.07994512  0.24431819  0.26372655  1  -0.02427  -0.107447  -0.000647  3.992266  0.0
C  C93  1  0.41990451  0.98034923  0.73613520  1  -0.024295  -0.108439  -0.000618  3.994349  0.0
C  C94  1  0.95921257  0.64560541  0.63346156  1  0.23764  0.589005  -1.8e-05  4.108967  0.0
C  C95  1  0.54074665  0.01220155  0.36643341  1  0.238262  0.59004  -1.9e-05  4.109803  0.0
C  C96  1  0.04080336  0.35439496  0.36654164  1  0.237542  0.588878  -3.6e-05  4.109658  0.0
C  C97  1  0.45925883  0.98778223  0.63355797  1  0.23824  0.590074  -2.7e-05  4.109831  0.0
C  C98  1  0.00915335  0.65419342  0.87408337  1  0.216935  0.566212  -0.004132  4.165544  -0.002
C  C99  1  0.48962244  0.78024511  0.12556468  1  0.217759  0.567114  -0.004125  4.16587  -0.002
C  C100  1  0.99084270  0.34581172  0.12591988  1  0.216871  0.566138  -0.004141  4.165571  -0.002
C  C101  1  0.51037475  0.21974540  0.87443460  1  0.217802  0.567305  -0.004159  4.165956  -0.002
N  N102  1  0.01906636  0.64178071  0.14921484  1  -0.349553  -0.19499  -0.009714  3.63689  -0.007
N  N103  1  0.48161788  0.49300399  0.85081821  1  -0.348445  -0.194952  -0.009532  3.631731  -0.007
N  N104  1  0.98092195  0.35822534  0.85079036  1  -0.349473  -0.194825  -0.009648  3.637099  -0.007
N  N105  1  0.51838630  0.50698947  0.14918283  1  -0.348483  -0.195035  -0.009492  3.631826  -0.007
O  O106  1  0.93854951  0.61850963  0.93555014  1  -0.299182  -0.515266  -0.00257  2.494366  -0.001
O  O107  1  0.56098783  0.68308942  0.06493977  1  -0.299249  -0.514895  -0.002894  2.498301  -0.002
O  O108  1  0.06144939  0.38148970  0.06444886  1  -0.299178  -0.515227  -0.002566  2.494257  -0.001
O  O109  1  0.43901059  0.31690207  0.93506075  1  -0.299266  -0.515009  -0.002866  2.498481  -0.002
O  O110  1  0.75039229  0.45709153  0.00057738  1  -0.553711  -0.743875  0.053702  2.276489  0.087
O  O111  1  0.24960594  0.54289901  0.99941898  1  -0.553739  -0.743933  0.053704  2.276238  0.087
O  O112  1  0.13466048  0.61946121  0.84461363  1  -0.300532  -0.518683  -0.002219  2.212683  -0.001
O  O113  1  0.36344123  0.77482524  0.15398859  1  -0.299626  -0.518226  -0.002183  2.216466  -0.001
O  O114  1  0.86534405  0.38054779  0.15540172  1  -0.300444  -0.518627  -0.002197  2.212688  -0.001
O  O115  1  0.63656245  0.22516039  0.84601321  1  -0.299601  -0.518253  -0.002161  2.216541  -0.001
O  O116  1  0.93484898  0.52882702  0.62857280  1  -0.317538  -0.473391  -0.000161  2.366728  0.0
O  O117  1  0.56323541  0.89951021  0.37025695  1  -0.318106  -0.473263  -0.000167  2.368278  0.0
O  O118  1  0.06519526  0.47117943  0.37142537  1  -0.317484  -0.473362  -0.000166  2.366402  0.0
O  O119  1  0.43677550  0.10048330  0.62974394  1  -0.318022  -0.47325  -0.000163  2.368193  0.0
O  O120  1  0.00402602  0.66324968  0.55520201  1  -0.29366  -0.514448  -8.9e-05  2.173987  0.0
O  O121  1  0.49732495  0.10829170  0.44537818  1  -0.293815  -0.515027  -0.000104  2.174716  0.0
O  O122  1  0.99600724  0.33675963  0.44479779  1  -0.293531  -0.514236  -5.4e-05  2.174915  0.0
O  O123  1  0.50267789  0.89170282  0.55461327  1  -0.293824  -0.515039  -6.8e-05  2.174929  0.0
O  O124  1  0.75016756  0.05845864  0.00019333  1  -0.132794  -0.183841  -5.8e-05  2.56074  0.0
O  O125  1  0.24981736  0.94153576  0.99979952  1  -0.132767  -0.183881  -2.3e-05  2.560723  0.0
