# generated using pymatgen
data_CuH11C18NO3
_symmetry_space_group_name_H-M   'P 1'
_cell_length_a   7.18726982
_cell_length_b   12.18336213
_cell_length_c   15.71839692
_cell_angle_alpha   89.99619418
_cell_angle_beta   89.99463511
_cell_angle_gamma   89.99897044
_symmetry_Int_Tables_number   1
_chemical_formula_structural   CuH11C18NO3
_chemical_formula_sum   'Cu4 H44 C72 N4 O12'
_cell_volume   1376.38316059
_cell_formula_units_Z   4
loop_
 _symmetry_equiv_pos_site_id
 _symmetry_equiv_pos_as_xyz
  1  'x, y, z'
loop_
 _atom_site_type_symbol
 _atom_site_label
 _atom_site_symmetry_multiplicity
 _atom_site_fract_x
 _atom_site_fract_y
 _atom_site_fract_z
 _atom_site_occupancy
 _atom_site_hle17_ddec_charge
 _atom_site_hle17_ddec_spin_density
 _atom_site_hle17_ddec_sum_bond_order
 _atom_site_hle17_magmom
 _atom_site_hse06_10hf_ddec_charge
 _atom_site_hse06_10hf_ddec_spin_density
 _atom_site_hse06_10hf_ddec_sum_bond_order
 _atom_site_hse06_10hf_magmom
 _atom_site_hse06_ddec_charge
 _atom_site_hse06_ddec_spin_density
 _atom_site_hse06_ddec_sum_bond_order
 _atom_site_hse06_magmom
 _atom_site_pbe_cm5_charge
 _atom_site_pbe_ddec_charge
 _atom_site_pbe_ddec_spin_density
 _atom_site_pbe_ddec_sum_bond_order
 _atom_site_pbe_magmom
Cu  Cu0  1  0.96415753  0.38268807  0.95853445  1  0.879579  0.670814  1.812609  0.481  0.868181  0.760451  2.214974  0.601  0.965617  0.83174  2.13426  0.691  0.733384  0.807275  0.710673  2.273891  0.543
Cu  Cu1  1  0.53585247  0.61725663  0.45851460  1  0.879481  0.670724  1.812826  0.481  0.867967  0.760451  2.215509  0.601  0.965621  0.83175  2.134527  0.691  0.733549  0.807215  0.710631  2.274235  0.543
Cu  Cu2  1  0.03587834  0.88274246  0.54150278  1  0.879617  0.67081  1.812779  0.481  0.867982  0.760464  2.215374  0.601  0.965563  0.831746  2.134484  0.691  0.733436  0.8071  0.710595  2.274286  0.543
Cu  Cu3  1  0.46416194  0.11730806  0.04145703  1  0.879634  0.670767  1.812504  0.481  0.868143  0.760453  2.214899  0.601  0.965573  0.831729  2.134236  0.691  0.733304  0.80727  0.710847  2.273746  0.543
H  H4  1  0.90277806  0.61328048  0.17120406  1  0.103834  -0.000459  0.952167  0.0  0.116298  -2e-06  1.00958  0.0  0.118942  -5.2e-05  1.009219  0.0  0.106157  0.114416  5.7e-05  1.009981  0.0
H  H5  1  0.59698645  0.38661777  0.67120370  1  0.104131  -0.000459  0.952001  0.0  0.116435  -3e-06  1.009612  0.0  0.119074  -5.2e-05  1.009269  0.0  0.106184  0.114546  5.4e-05  1.010009  0.0
H  H6  1  0.09707785  0.11336685  0.32882630  1  0.103803  -0.000459  0.952144  0.0  0.116212  -2e-06  1.009679  0.0  0.118855  -5.2e-05  1.009328  0.0  0.106066  0.114327  5.1e-05  1.010096  0.0
H  H7  1  0.40289904  0.88670713  0.82877990  1  0.104141  -0.000459  0.951535  0.0  0.116456  -2e-06  1.009138  0.0  0.119094  -5.2e-05  1.008795  0.0  0.10618  0.114593  4.9e-05  1.009519  0.0
H  H8  1  0.96882149  0.57661453  0.32229724  1  0.097518  0.000457  0.938627  0.001  0.110438  0.000222  0.9925  0.0  0.11266  0.000115  0.99127  0.0  0.105778  0.10869  0.000324  0.993594  0.0
H  H9  1  0.53097728  0.42333297  0.82229973  1  0.097421  0.000458  0.938518  0.001  0.11038  0.000223  0.992358  0.0  0.112558  0.000116  0.991182  0.0  0.105733  0.108625  0.000326  0.993468  0.0
H  H10  1  0.03109949  0.07667619  0.17772926  1  0.097482  0.000458  0.938363  0.001  0.11041  0.000222  0.992283  0.0  0.112613  0.000115  0.991083  0.0  0.10568  0.108669  0.000321  0.993379  0.0
H  H11  1  0.46895724  0.92341009  0.67768900  1  0.097538  0.000458  0.9384  0.001  0.110378  0.000222  0.992373  0.0  0.112585  0.000115  0.991163  0.0  0.105729  0.108636  0.000316  0.99348  0.0
H  H12  1  0.14514663  0.40723959  0.36415793  1  0.087953  -0.000151  0.976795  0.0  0.096683  -4.9e-05  1.042224  0.0  0.098671  -6.7e-05  1.043458  0.0  0.096754  0.095203  -1.6e-05  1.041679  0.0
H  H13  1  0.35479236  0.59276648  0.86414568  1  0.087957  -0.00015  0.976841  0.0  0.096741  -4.9e-05  1.042202  0.0  0.098734  -6.8e-05  1.043432  0.0  0.096722  0.095257  -1.5e-05  1.04166  0.0
H  H14  1  0.85490810  0.90725860  0.13588040  1  0.087868  -0.000151  0.976712  0.0  0.096616  -4.9e-05  1.042151  0.0  0.098601  -6.7e-05  1.043376  0.0  0.096689  0.095146  -1.5e-05  1.041596  0.0
H  H15  1  0.64527137  0.09278225  0.63583311  1  0.087822  -0.000151  0.976888  0.0  0.096715  -4.9e-05  1.042147  0.0  0.098713  -6.8e-05  1.043364  0.0  0.096692  0.095235  -1.7e-05  1.041606  0.0
H  H16  1  0.24390277  0.27556025  0.25160063  1  0.099517  0.000143  0.963875  0.0  0.11059  7.6e-05  1.022982  0.0  0.113241  2.8e-05  1.021841  0.0  0.104345  0.108688  0.000132  1.023752  0.0
H  H17  1  0.25616238  0.72445478  0.75156743  1  0.099667  0.000143  0.963898  0.0  0.110718  7.6e-05  1.022995  0.0  0.11337  2.8e-05  1.021845  0.0  0.104342  0.108811  0.000135  1.023756  0.0
H  H18  1  0.75621002  0.77556483  0.24845140  1  0.099706  0.000143  0.963651  0.0  0.110718  7.6e-05  1.022754  0.0  0.113275  2.8e-05  1.02172  0.0  0.104405  0.108829  0.000128  1.023519  0.0
H  H19  1  0.74398937  0.22445393  0.74838941  1  0.099389  0.000142  0.963948  0.0  0.110497  7.6e-05  1.022992  0.0  0.113127  2.8e-05  1.021907  0.0  0.10429  0.108615  0.000122  1.023727  0.0
H  H20  1  0.08182825  0.65578356  0.06781931  1  0.063741  0.006575  0.967337  0.008  0.078228  0.00436  1.028084  0.005  0.078616  0.003118  1.024982  0.004  0.116765  0.077675  0.005236  1.030423  0.006
H  H21  1  0.41803408  0.34416125  0.56781572  1  0.063593  0.006571  0.967305  0.008  0.078078  0.004359  1.028092  0.005  0.078484  0.003117  1.024923  0.004  0.116598  0.077521  0.005234  1.030455  0.006
H  H22  1  0.91807374  0.15582554  0.43220762  1  0.063733  0.006573  0.967211  0.008  0.078273  0.004359  1.02792  0.005  0.078654  0.003118  1.024778  0.004  0.116697  0.07773  0.005231  1.03025  0.006
H  H23  1  0.58189299  0.84421009  0.93216812  1  0.063643  0.006575  0.967378  0.008  0.078179  0.004361  1.028113  0.005  0.078564  0.003119  1.024979  0.004  0.116736  0.077623  0.005234  1.030448  0.006
H  H24  1  0.80853784  0.59518162  0.74071053  1  0.114766  -0.000771  0.965614  -0.001  0.12542  -0.000172  1.024441  0.0  0.12804  -0.000152  1.025146  0.0  0.104504  0.12359  -0.00017  1.02408  0.0
H  H25  1  0.69137375  0.40481483  0.24069040  1  0.11457  -0.000771  0.965922  -0.001  0.125286  -0.000172  1.024628  0.0  0.127906  -0.000152  1.025332  0.0  0.1045  0.123451  -0.00017  1.024267  0.0
H  H26  1  0.19147573  0.09520650  0.75930568  1  0.114639  -0.00077  0.965726  -0.001  0.125334  -0.000172  1.024542  0.0  0.127954  -0.000152  1.025246  0.0  0.104454  0.123518  -0.000183  1.024182  0.0
H  H27  1  0.30861566  0.90482756  0.25930289  1  0.114663  -0.00077  0.965851  -0.001  0.125382  -0.000172  1.024568  0.0  0.128004  -0.000152  1.025272  0.0  0.104574  0.123544  -0.000161  1.024207  0.0
H  H28  1  0.84332581  0.79667327  0.72525717  1  0.102335  0.000842  0.927864  0.001  0.112778  0.00029  0.988336  0.001  0.114786  9e-05  0.986308  0.0  0.108359  0.111008  0.000496  0.990214  0.001
H  H29  1  0.65664601  0.20331221  0.22524748  1  0.102152  0.000842  0.92788  0.001  0.112684  0.00029  0.988281  0.001  0.114669  9e-05  0.986275  0.0  0.108355  0.110919  0.000493  0.990161  0.001
H  H30  1  0.15666802  0.29670376  0.77474562  1  0.102085  0.000841  0.928091  0.001  0.112589  0.00029  0.988538  0.001  0.1146  8.9e-05  0.986507  0.0  0.108262  0.110815  0.000524  0.990392  0.001
H  H31  1  0.34334644  0.70332321  0.27474777  1  0.102287  0.000842  0.927777  0.001  0.112733  0.00029  0.988257  0.001  0.114742  9e-05  0.986226  0.0  0.108345  0.110955  0.000501  0.99014  0.001
H  H32  1  0.09589620  0.80667484  0.05998551  1  0.082803  -0.000101  0.991717  0.0  0.093223  0.000271  1.056333  0.0  0.095648  0.000187  1.056055  0.0  0.094141  0.091547  0.00035  1.056568  0.0
H  H33  1  0.40415696  0.19324356  0.56000926  1  0.082715  -0.000103  0.991441  0.0  0.09307  0.000271  1.056134  0.0  0.095486  0.000187  1.055852  0.0  0.094104  0.091402  0.000341  1.056372  0.0
H  H34  1  0.90406683  0.30673026  0.44002040  1  0.082781  -0.000101  0.991472  0.0  0.093151  0.000271  1.056192  0.0  0.095572  0.000187  1.0559  0.0  0.094141  0.091499  0.000333  1.056424  0.0
H  H35  1  0.59581063  0.69331783  0.93997971  1  0.082706  -0.000101  0.991555  0.0  0.093123  0.000271  1.056186  0.0  0.095537  0.000187  1.0559  0.0  0.094195  0.09146  0.000339  1.05642  0.0
H  H36  1  0.11097386  0.00409170  0.04113723  1  0.084311  -0.000442  0.973265  0.0  0.090114  -0.000415  1.044311  0.0  0.092718  -0.00049  1.042268  0.0  0.096662  0.087959  -0.000306  1.046154  0.0
H  H37  1  0.38915692  0.99583162  0.54116158  1  0.084108  -0.000442  0.973289  0.0  0.089971  -0.000415  1.044298  0.0  0.092558  -0.00049  1.042282  0.0  0.096654  0.087908  -0.000318  1.046051  0.0
H  H38  1  0.88902016  0.50414219  0.45885924  1  0.084222  -0.000443  0.973564  0.0  0.090058  -0.000416  1.044579  0.0  0.092646  -0.00049  1.042567  0.0  0.09672  0.087953  -0.000323  1.046384  0.0
H  H39  1  0.61086316  0.49589851  0.95881711  1  0.0842  -0.000442  0.973398  0.0  0.08999  -0.000415  1.044507  0.0  0.092586  -0.000489  1.04248  0.0  0.096557  0.087917  -0.000299  1.046251  0.0
H  H40  1  0.03642304  0.09109719  0.90226513  1  0.103257  -0.000448  0.956029  0.0  0.112887  5e-06  1.017427  0.0  0.115425  -1.3e-05  1.017313  0.0  0.100144  0.110881  3.3e-05  1.017875  0.0
H  H41  1  0.46365418  0.90885550  0.40227463  1  0.10296  -0.00045  0.955776  0.0  0.112652  5e-06  1.017209  0.0  0.115192  -1.3e-05  1.01709  0.0  0.100017  0.110633  4.4e-05  1.017666  0.0
H  H42  1  0.96357394  0.59114210  0.59772393  1  0.10296  -0.000448  0.955857  0.0  0.11268  5e-06  1.017254  0.0  0.115222  -1.3e-05  1.017134  0.0  0.100044  0.110694  2e-05  1.017694  0.0
H  H43  1  0.53633651  0.40889057  0.09770001  1  0.102979  -0.000448  0.955954  0.0  0.112631  5e-06  1.017391  0.0  0.115171  -1.3e-05  1.017273  0.0  0.100032  0.110635  3e-05  1.017837  0.0
H  H44  1  0.93075959  0.97226145  0.78143407  1  0.095597  0.000338  0.974125  0.0  0.105099  0.000176  1.039184  0.0  0.10747  0.000109  1.039045  0.0  0.098698  0.103427  0.000241  1.039246  0.0
H  H45  1  0.56925909  0.02773557  0.28142238  1  0.09566  0.000339  0.973916  0.0  0.105064  0.000176  1.039117  0.0  0.107439  0.000109  1.038966  0.0  0.098685  0.103392  0.000243  1.039174  0.0
H  H46  1  0.06923891  0.47227892  0.71856490  1  0.095656  0.000338  0.974085  0.0  0.105134  0.000175  1.039184  0.0  0.107502  0.000109  1.039029  0.0  0.098781  0.103503  0.000216  1.039233  0.0
H  H47  1  0.43071478  0.52773241  0.21854808  1  0.095601  0.000339  0.974381  0.0  0.105213  0.000176  1.039308  0.0  0.107564  0.00011  1.039218  0.0  0.098696  0.103542  0.000244  1.039366  0.0
C  C48  1  0.20539181  0.28834738  0.08601235  1  0.657288  -0.009649  3.870259  -0.01  0.617998  -0.001845  4.160328  -0.003  0.659793  -0.002397  4.152092  -0.003  0.215037  0.58991  -0.001168  4.164463  -0.003
C  C49  1  0.29469216  0.71165741  0.58598962  1  0.656777  -0.009641  3.870767  -0.01  0.617103  -0.001838  4.16126  -0.003  0.658891  -0.002393  4.153064  -0.003  0.214433  0.589012  -0.001162  4.165402  -0.003
C  C50  1  0.79472896  0.78834782  0.41403266  1  0.655933  -0.00964  3.871222  -0.01  0.616445  -0.001836  4.161608  -0.003  0.658237  -0.00239  4.153436  -0.003  0.214116  0.588362  -0.001176  4.165725  -0.003
C  C51  1  0.70542517  0.21164917  0.91397868  1  0.657132  -0.009649  3.871048  -0.01  0.617765  -0.001843  4.161176  -0.003  0.659566  -0.002398  4.152942  -0.003  0.214976  0.589682  -0.001176  4.1653  -0.003
C  C52  1  0.13383267  0.36999329  0.14862315  1  -0.155536  0.010051  3.734331  0.011  -0.138285  0.005604  3.964435  0.007  -0.152269  0.004597  3.988914  0.006  -0.020327  -0.12973  0.006461  3.948306  0.007
C  C53  1  0.36616327  0.62997651  0.64860025  1  -0.155391  0.01004  3.73419  0.011  -0.137929  0.005603  3.964215  0.007  -0.15191  0.004596  3.988688  0.006  -0.020216  -0.1294  0.006494  3.948106  0.007
C  C54  1  0.86620644  0.87002300  0.35142154  1  -0.155307  0.010044  3.734798  0.011  -0.13786  0.005601  3.964743  0.007  -0.151841  0.004595  3.989192  0.006  -0.020209  -0.129284  0.00642  3.94862  0.007
C  C55  1  0.63390217  0.13000405  0.85136966  1  -0.155541  0.010052  3.734831  0.011  -0.137967  0.005605  3.964535  0.007  -0.151955  0.004598  3.989013  0.006  -0.02022  -0.129392  0.006438  3.948401  0.007
C  C56  1  0.04426284  0.46866628  0.12471489  1  0.206227  -0.002455  3.802337  -0.002  0.202029  0.001131  4.049258  0.001  0.211638  -0.000952  4.075432  0.0  0.093817  0.196143  0.00271  4.031608  0.003
C  C57  1  0.45567820  0.53128015  0.62470210  1  0.206257  -0.00245  3.801783  -0.002  0.201952  0.001133  4.048778  0.001  0.211574  -0.000951  4.074916  0.0  0.093772  0.196032  0.002752  4.031167  0.003
C  C58  1  0.95570942  0.96871179  0.37531460  1  0.206547  -0.002456  3.802377  -0.002  0.202263  0.001131  4.049394  0.001  0.211889  -0.000952  4.075549  0.0  0.09391  0.196363  0.002674  4.031784  0.003
C  C59  1  0.54431495  0.03133289  0.87527473  1  0.206383  -0.002457  3.802382  -0.002  0.202005  0.001132  4.049327  0.001  0.211638  -0.000953  4.075446  0.0  0.093654  0.196115  0.002651  4.031735  0.003
C  C60  1  0.98285499  0.54083785  0.18885867  1  -0.157026  0.010944  3.71944  0.011  -0.174077  0.005577  3.968352  0.006  -0.180379  0.004652  3.988792  0.005  -0.090105  -0.170067  0.006275  3.954489  0.006
C  C61  1  0.51698659  0.45909498  0.68885294  1  -0.157513  0.010931  3.7195  0.011  -0.174438  0.005577  3.968498  0.006  -0.18075  0.004651  3.988922  0.005  -0.090173  -0.17043  0.006294  3.954643  0.006
C  C62  1  0.01705311  0.04090449  0.31117155  1  -0.157241  0.010939  3.71962  0.011  -0.17426  0.005576  3.968637  0.006  -0.180569  0.004651  3.989065  0.005  -0.090155  -0.170229  0.006264  3.954761  0.006
C  C63  1  0.48297333  0.95915708  0.81112952  1  -0.157543  0.010946  3.718951  0.011  -0.174471  0.005579  3.967938  0.006  -0.180783  0.004653  3.988372  0.005  -0.090072  -0.170442  0.006246  3.954085  0.006
C  C64  1  0.01931095  0.51952848  0.27416767  1  -0.028138  -0.005935  3.748146  -0.004  -0.04493  -0.001589  4.001063  -0.001  -0.041999  -0.002305  4.018577  -0.001  -0.07948  -0.046633  -0.001024  3.989324  -0.001
C  C65  1  0.48054363  0.48042877  0.77416149  1  -0.027772  -0.005927  3.747775  -0.004  -0.044557  -0.00159  4.000652  -0.001  -0.041583  -0.002305  4.018162  -0.001  -0.079402  -0.046278  -0.001005  3.988908  -0.001
C  C66  1  0.98062698  0.01958112  0.22586491  1  -0.028135  -0.005939  3.74776  -0.004  -0.044919  -0.001592  4.000693  -0.001  -0.041973  -0.002306  4.018202  -0.001  -0.079299  -0.04662  -0.001014  3.988925  -0.001
C  C67  1  0.51943515  0.98048885  0.72582052  1  -0.027958  -0.005938  3.747549  -0.004  -0.044666  -0.001589  4.000427  -0.001  -0.041716  -0.002305  4.01794  -0.001  -0.079298  -0.046369  -0.001042  3.988688  -0.001
C  C68  1  0.11445730  0.42420349  0.29763611  1  -0.087169  0.005644  3.764925  0.005  -0.10156  0.002382  4.019803  0.002  -0.106562  0.002231  4.041587  0.002  -0.096357  -0.098692  0.002631  4.005456  0.003
C  C69  1  0.38546757  0.57577881  0.79762468  1  -0.087187  0.005625  3.764985  0.005  -0.101675  0.002376  4.019863  0.002  -0.106674  0.002228  4.04163  0.002  -0.096266  -0.098802  0.002633  4.005505  0.003
C  C70  1  0.88555381  0.92423361  0.20239883  1  -0.086818  0.005639  3.764933  0.005  -0.10131  0.002379  4.019811  0.002  -0.106289  0.00223  4.041542  0.002  -0.09614  -0.098427  0.002637  4.005432  0.003
C  C71  1  0.61458134  0.07581049  0.70235243  1  -0.087112  0.005643  3.764916  0.005  -0.10168  0.00238  4.019727  0.002  -0.106687  0.002231  4.041512  0.002  -0.096303  -0.098813  0.002638  4.005383  0.003
C  C72  1  0.16860777  0.35008105  0.23504267  1  -0.052887  -0.006142  3.740343  -0.004  -0.074494  -0.001954  3.982892  -0.001  -0.071814  -0.002701  4.00308  -0.002  -0.081526  -0.07584  -0.001303  3.969212  -0.001
C  C73  1  0.33139539  0.64990669  0.73501833  1  -0.053209  -0.006131  3.740494  -0.004  -0.074757  -0.001953  3.982925  -0.001  -0.072078  -0.0027  4.003112  -0.002  -0.081606  -0.076109  -0.001305  3.969255  -0.001
C  C74  1  0.83145000  0.85010551  0.26500239  1  -0.053415  -0.006141  3.740676  -0.004  -0.074877  -0.001956  3.983148  -0.001  -0.07213  -0.002703  4.003357  -0.002  -0.081643  -0.076219  -0.001338  3.969455  -0.001
C  C75  1  0.66870285  0.14992822  0.76494929  1  -0.052925  -0.006143  3.740782  -0.004  -0.07457  -0.001953  3.983224  -0.001  -0.071905  -0.002702  4.003427  -0.002  -0.081557  -0.07592  -0.001296  3.969546  -0.001
C  C76  1  0.03252344  0.60149231  0.01726570  1  0.182668  -0.028494  3.695562  -0.02  0.144334  -0.009891  3.953887  -0.006  0.169605  -0.011579  3.964313  -0.007  0.06869  0.128097  -0.007867  3.946581  -0.005
C  C77  1  0.46738826  0.39844868  0.51726679  1  0.182708  -0.028536  3.695476  -0.02  0.144342  -0.009903  3.953642  -0.006  0.169615  -0.01159  3.964093  -0.007  0.068771  0.1281  -0.007925  3.946359  -0.005
C  C78  1  0.96744133  0.10154084  0.48275509  1  0.182352  -0.028506  3.695667  -0.02  0.143988  -0.009893  3.953884  -0.006  0.169287  -0.011586  3.964304  -0.007  0.068621  0.127756  -0.007866  3.946552  -0.005
C  C79  1  0.53256924  0.89850024  0.98272002  1  0.18262  -0.028483  3.695696  -0.02  0.144227  -0.009893  3.954016  -0.006  0.169519  -0.011577  3.964427  -0.007  0.068722  0.127982  -0.007833  3.946698  -0.005
C  C80  1  0.98941982  0.65141429  0.93851487  1  -0.176177  0.022802  3.777033  0.024  -0.170309  0.007149  4.02539  0.009  -0.192592  0.004453  4.054776  0.006  -0.040283  -0.155967  0.009506  4.005526  0.011
C  C81  1  0.51052891  0.34853460  0.43850911  1  -0.17661  0.022886  3.777203  0.024  -0.170361  0.007174  4.025081  0.009  -0.192644  0.004465  4.054468  0.006  -0.040159  -0.156005  0.009535  4.005188  0.011
C  C82  1  0.01057124  0.15146329  0.56150166  1  -0.176794  0.022819  3.777765  0.024  -0.170641  0.007148  4.02587  0.009  -0.192916  0.004458  4.055243  0.006  -0.040353  -0.156311  0.009497  4.00602  0.011
C  C83  1  0.48943013  0.84857810  0.06146986  1  -0.176144  0.022789  3.777107  0.024  -0.170309  0.007149  4.025661  0.009  -0.192584  0.00445  4.055038  0.006  -0.040335  -0.155972  0.009522  4.00578  0.011
C  C84  1  0.92002471  0.58885700  0.86821051  1  0.360122  -0.012916  3.829373  -0.013  0.350889  -0.002628  4.091921  -0.004  0.377531  -0.004207  4.104135  -0.004  0.10442  0.333604  -0.000917  4.082816  -0.003
C  C85  1  0.57990095  0.41110375  0.36819099  1  0.360081  -0.012929  3.829623  -0.013  0.350904  -0.002639  4.091916  -0.004  0.377541  -0.004214  4.104147  -0.004  0.104243  0.333613  -0.000908  4.082798  -0.003
C  C86  1  0.08000434  0.08890405  0.63181175  1  0.360223  -0.012912  3.830022  -0.013  0.350972  -0.002624  4.092479  -0.004  0.377609  -0.00421  4.10471  -0.004  0.104188  0.333697  -0.000966  4.083387  -0.003
C  C87  1  0.42005210  0.91113616  0.13178544  1  0.360265  -0.01291  3.829109  -0.013  0.351073  -0.00263  4.091631  -0.004  0.377709  -0.004205  4.103848  -0.004  0.104475  0.333784  -0.000916  4.082525  -0.003
C  C88  1  0.86399237  0.64503313  0.79219935  1  -0.191653  0.020134  3.71715  0.021  -0.208379  0.008712  3.969696  0.01  -0.219091  0.0065  3.988598  0.008  -0.101942  -0.20135  0.010394  3.95686  0.012
C  C89  1  0.63593504  0.35494818  0.29218029  1  -0.191576  0.020142  3.717653  0.021  -0.208415  0.008711  3.970271  0.01  -0.219132  0.006499  3.989167  0.008  -0.102043  -0.201388  0.010414  3.957423  0.012
C  C90  1  0.13602671  0.14506638  0.70781688  1  -0.191334  0.020123  3.717228  0.021  -0.208203  0.008709  3.969938  0.01  -0.218914  0.006497  3.988835  0.008  -0.101855  -0.201169  0.010363  3.957114  0.012
C  C91  1  0.36403494  0.85496805  0.20780536  1  -0.191629  0.020129  3.717268  0.021  -0.208458  0.00871  3.969898  0.01  -0.219172  0.006499  3.988807  0.008  -0.102031  -0.201432  0.010399  3.957064  0.012
C  C92  1  0.88229197  0.75604705  0.78450642  1  -0.039751  -0.016153  3.729286  -0.01  -0.067451  -0.003607  3.988751  -0.002  -0.061379  -0.004415  4.005176  -0.002  -0.071374  -0.071457  -0.002865  3.977886  -0.001
C  C93  1  0.61765650  0.24393985  0.28449633  1  -0.039376  -0.016175  3.729181  -0.01  -0.067176  -0.003612  3.988658  -0.002  -0.061081  -0.004418  4.00508  -0.002  -0.071291  -0.071186  -0.00285  3.977782  -0.001
C  C94  1  0.11770582  0.25607656  0.71549844  1  -0.039407  -0.016148  3.729323  -0.01  -0.067198  -0.003609  3.988835  -0.002  -0.061129  -0.004414  4.005258  -0.002  -0.071192  -0.071211  -0.002857  3.977968  -0.001
C  C95  1  0.38231529  0.74395228  0.21549178  1  -0.03955  -0.016141  3.729206  -0.01  -0.067231  -0.003606  3.98864  -0.002  -0.061155  -0.004413  4.005056  -0.002  -0.071352  -0.07123  -0.002889  3.977768  -0.001
C  C96  1  0.95270994  0.82183589  0.85233651  1  0.016516  0.007897  3.811739  0.008  0.031798  0.001492  4.045911  0.002  0.026624  0.001162  4.070401  0.001  -0.021461  0.035064  0.001871  4.029275  0.002
C  C97  1  0.54725377  0.17814019  0.35233402  1  0.016431  0.007929  3.811723  0.008  0.031841  0.001498  4.045856  0.002  0.026666  0.001167  4.070341  0.001  -0.021551  0.03511  0.001877  4.029209  0.002
C  C98  1  0.04726508  0.32186387  0.64766947  1  0.016212  0.007902  3.811691  0.008  0.031782  0.001494  4.045676  0.002  0.02661  0.001162  4.070164  0.001  -0.021555  0.035074  0.001808  4.029044  0.002
C  C99  1  0.45269071  0.67815855  0.14765043  1  0.01647  0.007894  3.81185  0.008  0.03186  0.001491  4.04604  0.002  0.026691  0.001161  4.07052  0.001  -0.02138  0.035128  0.001863  4.029402  0.002
C  C100  1  0.00314452  0.77038235  0.93090991  1  0.047597  -0.011171  3.751153  -0.008  0.060773  -0.002585  3.977784  -0.002  0.065617  -0.002809  4.003871  -0.002  -0.004911  0.057898  -0.002253  3.959937  -0.002
C  C101  1  0.49683358  0.22957934  0.43090923  1  0.047869  -0.011195  3.75128  -0.008  0.060693  -0.002588  3.978147  -0.002  0.065535  -0.002813  4.004243  -0.002  -0.004916  0.057818  -0.002293  3.960303  -0.002
C  C102  1  0.99682502  0.27041806  0.56909995  1  0.048123  -0.011174  3.751002  -0.008  0.060907  -0.002589  3.977932  -0.002  0.065743  -0.002809  4.004026  -0.002  -0.004769  0.058046  -0.002327  3.960096  -0.002
C  C103  1  0.50311915  0.72961627  0.06907451  1  0.047668  -0.011162  3.75092  -0.008  0.060632  -0.002584  3.977869  -0.002  0.065474  -0.002807  4.003958  -0.002  -0.004989  0.057753  -0.00226  3.960024  -0.002
C  C104  1  0.05844687  0.84019237  0.99816382  1  -0.140628  0.011283  3.766046  0.011  -0.160623  0.001861  4.01681  0.002  -0.166214  0.00137  4.039581  0.002  -0.10462  -0.15673  0.002484  4.000988  0.002
C  C105  1  0.44158971  0.15974625  0.49817349  1  -0.140542  0.011323  3.764958  0.011  -0.160401  0.001864  4.015943  0.002  -0.165983  0.001374  4.038711  0.002  -0.104674  -0.156509  0.002457  4.000168  0.002
C  C106  1  0.94151787  0.34023782  0.50184376  1  -0.140798  0.01129  3.765237  0.011  -0.160695  0.001865  4.016259  0.002  -0.16627  0.001369  4.039017  0.002  -0.104825  -0.156807  0.002478  4.000439  0.002
C  C107  1  0.55836782  0.65979826  0.00181062  1  -0.140649  0.011275  3.765381  0.011  -0.160576  0.001859  4.016312  0.002  -0.166147  0.001368  4.039059  0.002  -0.104687  -0.156688  0.002471  4.000529  0.002
C  C108  1  0.06749425  0.95307294  0.98782320  1  -0.054956  -0.012063  3.780286  -0.008  -0.073519  -0.002021  4.043677  -0.001  -0.073322  -0.002303  4.065829  -0.001  -0.096623  -0.073362  -0.001758  4.028767  -0.001
C  C109  1  0.43258899  0.04686576  0.48783834  1  -0.054956  -0.0121  3.779454  -0.008  -0.07358  -0.002024  4.042905  -0.001  -0.0734  -0.002308  4.065093  -0.001  -0.096519  -0.073484  -0.001787  4.027993  -0.001
C  C110  1  0.93247697  0.45311348  0.51217611  1  -0.054828  -0.012068  3.779859  -0.008  -0.07345  -0.002025  4.043305  -0.001  -0.073261  -0.002302  4.065465  -0.001  -0.096485  -0.073325  -0.001703  4.02838  -0.001
C  C111  1  0.56739685  0.54691759  0.01213750  1  -0.055146  -0.012055  3.779947  -0.008  -0.073654  -0.00202  4.043243  -0.001  -0.07347  -0.002302  4.065415  -0.001  -0.096493  -0.073549  -0.001768  4.028312  -0.001
C  C112  1  0.02546393  0.00231767  0.90941530  1  -0.08388  0.010485  3.768399  0.01  -0.106659  0.00133  4.034643  0.001  -0.112423  0.000966  4.058842  0.001  -0.104291  -0.102968  0.001852  4.018563  0.002
C  C113  1  0.47459512  0.99763029  0.40942109  1  -0.083354  0.010538  3.76778  0.01  -0.106198  0.001341  4.034046  0.001  -0.111962  0.00097  4.058243  0.001  -0.104175  -0.102504  0.001851  4.017969  0.002
C  C114  1  0.97451614  0.50236144  0.59058209  1  -0.083529  0.010498  3.767594  0.01  -0.106394  0.001331  4.033902  0.001  -0.112155  0.000967  4.058091  0.001  -0.104165  -0.102685  0.001827  4.017794  0.002
C  C115  1  0.52537491  0.49766857  0.09055349  1  -0.083086  0.010483  3.767845  0.01  -0.105891  0.001332  4.034041  0.001  -0.111651  0.000964  4.058235  0.001  -0.104115  -0.102194  0.001828  4.017973  0.002
C  C116  1  0.96771357  0.93673062  0.84272415  1  -0.0947  -0.009719  3.736436  -0.007  -0.115907  -0.001117  3.989957  -0.001  -0.115194  -0.001566  4.011135  -0.001  -0.089507  -0.115938  -0.000756  3.975334  -0.001
C  C117  1  0.53229525  0.06323809  0.34272304  1  -0.094764  -0.009757  3.736148  -0.007  -0.115957  -0.001129  3.989752  -0.001  -0.115241  -0.001571  4.010928  -0.001  -0.089375  -0.115985  -0.00072  3.975096  -0.001
C  C118  1  0.03227482  0.43676450  0.65727726  1  -0.094756  -0.009723  3.73607  -0.007  -0.116019  -0.001117  3.989627  -0.001  -0.115293  -0.001565  4.010793  -0.001  -0.089509  -0.116035  -0.000766  3.974973  -0.001
C  C119  1  0.46765533  0.56325709  0.15725388  1  -0.094937  -0.009711  3.736542  -0.007  -0.116297  -0.00112  3.990127  -0.001  -0.115588  -0.001563  4.011293  -0.001  -0.089511  -0.116315  -0.000746  3.975484  -0.001
N  N120  1  0.01953035  0.49687666  0.03848199  1  -0.407099  0.094009  3.367227  0.118  -0.367149  0.060678  3.687085  0.082  -0.408392  0.049834  3.704344  0.073  -0.383233  -0.342492  0.06562  3.677738  0.084
N  N121  1  0.48041315  0.50306085  0.53847149  1  -0.406753  0.094003  3.366481  0.118  -0.366727  0.060677  3.686343  0.082  -0.408021  0.049834  3.703604  0.073  -0.383056  -0.342106  0.065598  3.677034  0.084
N  N122  1  0.98045500  0.99692672  0.46154989  1  -0.406522  0.094006  3.36685  0.118  -0.366603  0.060676  3.686753  0.082  -0.407894  0.049835  3.704036  0.073  -0.382988  -0.341984  0.065683  3.677421  0.084
N  N123  1  0.51958081  0.00311539  0.96150932  1  -0.407246  0.093987  3.367196  0.118  -0.367096  0.060669  3.687004  0.082  -0.40835  0.049828  3.704268  0.073  -0.383275  -0.342464  0.065638  3.677671  0.084
O  O124  1  0.12822555  0.27471105  0.01331036  1  -0.608807  0.071571  2.061492  0.096  -0.583205  0.051761  2.344761  0.077  -0.624577  0.038768  2.326208  0.063  -0.328301  -0.555367  0.060661  2.357557  0.085
O  O125  1  0.37184141  0.72525573  0.51327793  1  -0.60834  0.071538  2.061979  0.096  -0.582579  0.051742  2.345412  0.077  -0.624005  0.038755  2.326873  0.063  -0.327933  -0.554783  0.060654  2.358166  0.085
O  O126  1  0.87184414  0.77475110  0.48674870  1  -0.608048  0.071584  2.062023  0.096  -0.58227  0.051759  2.34527  0.077  -0.623698  0.038769  2.326796  0.063  -0.327696  -0.55443  0.060677  2.358016  0.085
O  O127  1  0.62822406  0.22529456  0.98667442  1  -0.60872  0.071551  2.061737  0.096  -0.583106  0.051751  2.345112  0.077  -0.624463  0.038763  2.32654  0.063  -0.328298  -0.555326  0.06074  2.357909  0.085
O  O128  1  0.34463214  0.23169205  0.11036955  1  -0.572726  0.055612  2.095111  0.072  -0.528278  0.038553  2.36804  0.055  -0.566008  0.030029  2.3531  0.046  -0.313664  -0.502337  0.044551  2.377935  0.06
O  O129  1  0.15552890  0.76836643  0.61037403  1  -0.572785  0.055558  2.095138  0.072  -0.527998  0.038519  2.368089  0.055  -0.56578  0.030002  2.353179  0.046  -0.313551  -0.502065  0.044526  2.378  0.06
O  O130  1  0.65558767  0.73162639  0.38965162  1  -0.572104  0.055548  2.094536  0.072  -0.527719  0.038512  2.367754  0.055  -0.565474  0.029994  2.352738  0.046  -0.313511  -0.501808  0.044537  2.377656  0.06
O  O131  1  0.84467863  0.26829966  0.88962256  1  -0.572328  0.055619  2.095233  0.072  -0.528042  0.038558  2.368341  0.055  -0.565768  0.030032  2.35338  0.046  -0.313515  -0.502084  0.044534  2.378234  0.06
O  O132  1  0.90214045  0.48254326  0.86821486  1  -0.534551  0.117516  2.105451  0.155  -0.512906  0.075815  2.399714  0.112  -0.560406  0.056076  2.395611  0.09  -0.319703  -0.482195  0.088031  2.403195  0.122
O  O133  1  0.59775460  0.51742487  0.36818155  1  -0.534513  0.11755  2.105642  0.155  -0.513117  0.075828  2.400127  0.112  -0.560631  0.056086  2.395899  0.09  -0.319893  -0.482433  0.08807  2.403591  0.122
O  O134  1  0.09790644  0.98258337  0.63181476  1  -0.534736  0.117516  2.105532  0.155  -0.513106  0.075812  2.399961  0.112  -0.560604  0.056073  2.395756  0.09  -0.319643  -0.482369  0.087997  2.403433  0.122
O  O135  1  0.40216531  0.01745519  0.13178307  1  -0.534634  0.117569  2.105354  0.155  -0.513025  0.075834  2.399568  0.112  -0.560545  0.056093  2.395508  0.09  -0.319751  -0.482292  0.08798  2.403018  0.122
