# generated using pymatgen
data_Cu2H16C19(N2O)4
_symmetry_space_group_name_H-M   'P 1'
_cell_length_a   9.75410547
_cell_length_b   10.96388541
_cell_length_c   12.19530190
_cell_angle_alpha   66.73391951
_cell_angle_beta   78.54471937
_cell_angle_gamma   64.34098032
_symmetry_Int_Tables_number   1
_chemical_formula_structural   Cu2H16C19(N2O)4
_chemical_formula_sum   'Cu4 H32 C38 N16 O8'
_cell_volume   1079.39280979
_cell_formula_units_Z   2
loop_
 _symmetry_equiv_pos_site_id
 _symmetry_equiv_pos_as_xyz
  1  'x, y, z'
loop_
 _atom_site_type_symbol
 _atom_site_label
 _atom_site_symmetry_multiplicity
 _atom_site_fract_x
 _atom_site_fract_y
 _atom_site_fract_z
 _atom_site_occupancy
 _atom_site_hle17_ddec_charge
 _atom_site_hle17_ddec_spin_density
 _atom_site_hle17_ddec_sum_bond_order
 _atom_site_hle17_magmom
 _atom_site_hse06_10hf_ddec_charge
 _atom_site_hse06_10hf_ddec_spin_density
 _atom_site_hse06_10hf_ddec_sum_bond_order
 _atom_site_hse06_10hf_magmom
 _atom_site_hse06_ddec_charge
 _atom_site_hse06_ddec_spin_density
 _atom_site_hse06_ddec_sum_bond_order
 _atom_site_hse06_magmom
 _atom_site_pbe_cm5_charge
 _atom_site_pbe_ddec_charge
 _atom_site_pbe_ddec_spin_density
 _atom_site_pbe_ddec_sum_bond_order
 _atom_site_pbe_magmom
Cu  Cu0  1  0.36085381  0.14232766  0.50348878  1  0.887176  -0.586605  1.897317  -0.408  0.91003  -0.763742  2.312942  -0.592  1.015614  -0.869922  2.22547  -0.699  0.740729  0.849145  -0.673935  2.370044  -0.511
Cu  Cu1  1  0.63914561  0.85767070  0.49651241  1  0.887225  0.586617  1.8973  0.408  0.910061  0.763747  2.312919  0.592  1.015669  0.86993  2.225406  0.699  0.74074  0.849213  0.673959  2.369948  0.511
Cu  Cu2  1  0.31741852  0.39108833  0.61006829  1  0.803755  0.665021  1.887697  0.457  0.786057  0.763493  2.294798  0.585  0.875229  0.850074  2.227512  0.676  0.75276  0.735284  0.698046  2.339783  0.523
Cu  Cu3  1  0.68258091  0.60891004  0.38993454  1  0.803792  -0.665027  1.887699  -0.457  0.786076  -0.763501  2.294826  -0.585  0.875263  -0.850075  2.227516  -0.676  0.752755  0.735358  -0.698054  2.339742  -0.523
H  H4  1  0.04668649  0.88888415  0.27347266  1  0.104163  -0.00027  0.948287  0.0  0.11882  5.2e-05  1.010417  0.0  0.121664  3.9e-05  1.007748  0.0  0.098996  0.117502  5.9e-05  1.011096  0.0
H  H5  1  0.95331204  0.11111638  0.72652871  1  0.104164  0.000272  0.948286  0.0  0.118812  -5.1e-05  1.01045  0.0  0.121657  -4e-05  1.007783  0.0  0.098992  0.117488  -5.9e-05  1.011127  0.0
H  H6  1  0.14925197  0.72161519  0.38165565  1  0.130421  -0.000234  0.962258  0.0  0.14104  -7.4e-05  1.024825  0.0  0.143712  -0.000113  1.02434  0.0  0.105086  0.139317  -4.1e-05  1.024874  0.0
H  H7  1  0.85074701  0.27838426  0.61834604  1  0.130377  0.000237  0.962289  0.0  0.141015  7.4e-05  1.024861  0.0  0.143688  0.000113  1.024375  0.0  0.105062  0.139289  4.1e-05  1.024905  0.0
H  H8  1  0.00896985  0.91251787  0.08133026  1  0.086721  -0.000129  0.967184  0.0  0.100166  -0.000129  1.02538  0.0  0.102293  -8.1e-05  1.02538  0.0  0.097716  0.098356  -0.000113  1.025833  0.0
H  H9  1  0.99102763  0.08748265  0.91867128  1  0.086712  0.000127  0.967218  0.0  0.100147  0.000129  1.025421  0.0  0.102275  8e-05  1.025421  0.0  0.097708  0.098337  0.000114  1.025878  0.0
H  H10  1  0.09012253  0.82011861  0.91204245  1  0.086576  -0.00011  0.953137  0.0  0.097165  -0.000105  1.01483  0.0  0.099846  -9.1e-05  1.013159  0.0  0.09945  0.095179  -0.000183  1.016218  0.0
H  H11  1  0.90987764  0.17988299  0.08795827  1  0.086559  0.000103  0.95315  0.0  0.097129  0.000105  1.014866  0.0  0.09981  9e-05  1.013195  0.0  0.099439  0.095147  0.000183  1.016256  0.0
H  H12  1  0.25638836  0.56043904  0.95017425  1  0.093789  4.3e-05  0.951018  0.0  0.10352  0.000126  1.010045  0.0  0.106133  8.7e-05  1.01007  0.0  0.099  0.101552  0.000122  1.010322  0.0
H  H13  1  0.74361480  0.43956041  0.04982676  1  0.093781  -3.8e-05  0.950985  0.0  0.103501  -0.000127  1.01003  0.0  0.106116  -8.7e-05  1.010058  0.0  0.099004  0.101538  -0.000122  1.01031  0.0
H  H14  1  0.33728490  0.39652541  0.15685372  1  0.092376  0.000192  0.972824  0.0  0.10026  0.000106  1.039278  0.0  0.102905  7.3e-05  1.038181  0.0  0.098528  0.098375  0.000145  1.040032  0.0
H  H15  1  0.66271572  0.60347511  0.84314650  1  0.092388  -0.000194  0.97281  0.0  0.100259  -0.000106  1.039275  0.0  0.102903  -7.3e-05  1.03818  0.0  0.098538  0.098374  -0.000145  1.040026  0.0
H  H16  1  0.36410105  0.66098139  0.53813930  1  0.08048  0.001028  0.970735  0.002  0.085141  0.000922  1.044998  0.002  0.087353  0.000681  1.041957  0.001  0.111527  0.083259  0.001167  1.047428  0.002
H  H17  1  0.63589878  0.33901586  0.46185566  1  0.080508  -0.001031  0.970709  -0.002  0.085126  -0.000922  1.045021  -0.002  0.087355  -0.000681  1.041963  -0.001  0.111532  0.083247  -0.001168  1.04745  -0.002
H  H18  1  0.21997441  0.90569982  0.55411343  1  0.110432  0.000421  0.95773  0.0  0.119264  0.000441  1.019631  0.0  0.12202  0.000373  1.019418  0.0  0.107693  0.117121  0.000562  1.020429  0.001
H  H19  1  0.78002674  0.09430173  0.44587403  1  0.110466  -0.000421  0.957648  0.0  0.119258  -0.000441  1.019598  0.0  0.122012  -0.000374  1.019383  0.0  0.107713  0.117116  -0.000562  1.020387  -0.001
H  H20  1  0.95986265  0.96095826  0.65438610  1  0.087755  0.000421  0.971974  0.0  0.09707  0.000171  1.038168  0.0  0.099323  9.7e-05  1.036603  0.0  0.104108  0.095479  0.000211  1.039231  0.0
H  H21  1  0.04014032  0.03904655  0.34560481  1  0.08778  -0.00042  0.971907  0.0  0.097055  -0.000172  1.038143  0.0  0.099288  -9.7e-05  1.036597  0.0  0.10413  0.09547  -0.000211  1.039194  0.0
H  H22  1  0.85581019  0.76873324  0.73541738  1  0.106907  0.00044  0.953015  0.001  0.116013  0.00039  1.015276  0.001  0.119118  0.00027  1.013963  0.001  0.108273  0.114062  0.000713  1.01562  0.001
H  H23  1  0.14419177  0.23127160  0.26458106  1  0.10686  -0.000438  0.953072  -0.001  0.116003  -0.00039  1.015284  -0.001  0.119108  -0.00027  1.013972  -0.001  0.108256  0.114052  -0.000713  1.015628  -0.001
H  H24  1  0.01365412  0.52894464  0.71080233  1  0.088327  0.000908  0.963045  0.001  0.094392  0.000803  1.031215  0.001  0.096637  0.00058  1.029059  0.001  0.116697  0.092806  0.001043  1.032584  0.002
H  H25  1  0.98634607  0.47105697  0.28920084  1  0.088317  -0.000907  0.963018  -0.001  0.094377  -0.000804  1.031195  -0.001  0.096627  -0.00058  1.029042  -0.001  0.116684  0.092792  -0.001043  1.032565  -0.002
H  H26  1  0.24159129  0.11184542  0.04924937  1  0.108089  0.000498  0.95013  0.001  0.117631  0.000469  1.009462  0.001  0.120086  0.000329  1.009325  0.0  0.10884  0.115449  0.000536  1.010573  0.001
H  H27  1  0.75840858  0.88815187  0.95075213  1  0.108132  -0.0005  0.950095  -0.001  0.117675  -0.000469  1.009434  -0.001  0.120129  -0.00033  1.009296  0.0  0.108861  0.115489  -0.000536  1.010546  -0.001
H  H28  1  0.18841707  0.22675894  0.82940705  1  0.08242  0.001222  0.973372  0.002  0.089502  0.001177  1.038889  0.002  0.090451  0.000844  1.038806  0.001  0.115694  0.088921  0.001387  1.038459  0.002
H  H29  1  0.81158295  0.77324051  0.17059447  1  0.082427  -0.001223  0.973388  -0.002  0.089511  -0.001178  1.038897  -0.002  0.09046  -0.000845  1.038815  -0.001  0.11571  0.088932  -0.001387  1.038468  -0.002
H  H30  1  0.52382719  0.38703927  0.75613955  1  0.081386  0.001037  0.947864  0.002  0.084512  0.000894  1.021481  0.002  0.08616  0.000618  1.01938  0.001  0.115137  0.082979  0.001084  1.023293  0.002
H  H31  1  0.47617195  0.61296236  0.24386462  1  0.081312  -0.001035  0.947932  -0.002  0.084506  -0.000894  1.02148  -0.002  0.086153  -0.000619  1.019381  -0.001  0.11514  0.082975  -0.001084  1.023296  -0.002
H  H32  1  0.58657115  0.28421209  0.97235049  1  0.104384  0.000583  0.988329  0.001  0.111457  0.000582  1.053036  0.001  0.112983  0.000422  1.055331  0.001  0.104802  0.110441  0.00071  1.051285  0.001
H  H33  1  0.41342635  0.71578845  0.02765433  1  0.104398  -0.00058  0.988346  -0.001  0.111498  -0.000582  1.053017  -0.001  0.113024  -0.000423  1.055312  -0.001  0.104825  0.110474  -0.00071  1.051288  -0.001
H  H34  1  0.44345703  0.14144796  0.12124374  1  0.091475  0.000371  0.964513  0.001  0.098455  5.5e-05  1.030728  0.0  0.100918  3e-06  1.028755  0.0  0.105239  0.096555  9.6e-05  1.032226  0.0
H  H35  1  0.55654031  0.85855041  0.87875943  1  0.091475  -0.000366  0.964504  -0.001  0.098464  -5.5e-05  1.030694  0.0  0.100927  -3e-06  1.02872  0.0  0.10526  0.096561  -9.6e-05  1.032192  0.0
C  C36  1  0.91933577  0.75783448  0.36848472  1  0.709387  -0.003215  3.817107  -0.006  0.677453  -0.000264  4.112828  -0.003  0.71554  -0.000737  4.106006  -0.003  0.209759  0.652012  0.000345  4.116993  -0.003
C  C37  1  0.08066529  0.24216496  0.63151499  1  0.709408  0.003216  3.817086  0.006  0.67746  0.000265  4.112857  0.003  0.715547  0.000739  4.106034  0.003  0.209775  0.652016  -0.000346  4.117026  0.003
C  C38  1  0.06818582  0.77364529  0.31017284  1  -0.318722  0.011007  3.697578  0.011  -0.361712  0.006437  3.932737  0.007  -0.368597  0.004167  3.938564  0.005  -0.167946  -0.356686  0.008187  3.92755  0.009
C  C39  1  0.93181211  0.22635415  0.68982821  1  -0.318645  -0.011021  3.697561  -0.011  -0.361664  -0.00644  3.932759  -0.007  -0.368556  -0.004169  3.938596  -0.005  -0.167924  -0.356613  -0.00819  3.927539  -0.009
C  C40  1  0.12953182  0.70933645  0.21359718  1  0.128902  0.000853  3.714696  0.001  0.138685  0.000215  3.951622  0.0  0.141897  1.2e-05  3.975527  0.0  -0.000159  0.136635  0.00042  3.935519  0.0
C  C41  1  0.87046910  0.29066083  0.78640497  1  0.128849  -0.000787  3.714744  -0.001  0.138652  -0.000217  3.951665  0.0  0.141865  -1.1e-05  3.97557  0.0  -0.000172  0.136593  -0.000421  3.935551  0.0
C  C42  1  0.08271147  0.79919177  0.09675175  1  -0.146887  -0.000793  3.756933  -0.001  -0.164352  -0.000743  4.007329  -0.001  -0.169904  -0.000462  4.030537  0.0  -0.097802  -0.159994  0.000333  3.990763  0.0
C  C43  1  0.91728855  0.20080767  0.90324896  1  -0.146856  0.000733  3.756993  0.001  -0.164307  0.000742  4.007367  0.001  -0.169861  0.000459  4.030577  0.0  -0.097789  -0.159953  -0.000332  3.990805  0.0
C  C44  1  0.12605472  0.74752081  0.00232916  1  -0.051502  -0.000739  3.792698  -0.001  -0.070301  -0.000174  4.05063  0.0  -0.069572  -0.00014  4.070649  0.0  -0.088151  -0.071334  -5.9e-05  4.036997  0.0
C  C45  1  0.87394739  0.25247863  0.99767038  1  -0.051528  0.00083  3.792728  0.001  -0.070314  0.000178  4.050658  0.0  -0.069586  0.000142  4.070679  0.0  -0.088172  -0.071354  6e-05  4.037035  0.0
C  C46  1  0.21890404  0.60186851  0.02351269  1  -0.077746  0.004052  3.77846  0.004  -0.09195  0.001335  4.030828  0.001  -0.095611  0.000772  4.052141  0.001  -0.094269  -0.08905  0.001739  4.016779  0.002
C  C47  1  0.78110016  0.39813094  0.97648733  1  -0.077672  -0.004144  3.778409  -0.004  -0.091855  -0.001335  4.030768  -0.001  -0.095522  -0.000773  4.052089  -0.001  -0.094234  -0.088966  -0.001738  4.016729  -0.002
C  C48  1  0.26509993  0.51033454  0.13896152  1  -0.069975  -0.001257  3.743061  -0.001  -0.091196  0.000248  3.988278  0.0  -0.090016  0.000193  4.00853  0.0  -0.086246  -0.092121  0.000675  3.974791  0.001
C  C49  1  0.73490219  0.48966491  0.86103966  1  -0.07  0.001334  3.743082  0.001  -0.091216  -0.00025  3.988314  0.0  -0.090037  -0.000193  4.008568  0.0  -0.086256  -0.092145  -0.000675  3.974825  -0.001
C  C50  1  0.22171939  0.56196675  0.23464887  1  -0.113227  0.001463  3.686826  0.001  -0.098453  0.000275  3.918507  0.0  -0.109056  0.000212  3.93976  0.0  -0.01555  -0.091933  -0.000221  3.904561  0.0
C  C51  1  0.77828213  0.43803161  0.76535198  1  -0.11321  -0.001543  3.686859  -0.001  -0.09843  -0.00027  3.918534  0.0  -0.109034  -0.000209  3.93978  0.0  -0.015558  -0.091909  0.00022  3.904572  0.0
C  C52  1  0.27233731  0.45322637  0.35712640  1  0.671831  0.00057  3.8241  0.001  0.632608  0.000307  4.112847  0.0  0.675026  9.8e-05  4.103617  0.0  0.222977  0.604314  0.000685  4.117783  0.001
C  C53  1  0.72766123  0.54677416  0.64287579  1  0.671869  -0.000545  3.824053  -0.001  0.632624  -0.000308  4.112827  0.0  0.675053  -0.000102  4.103583  0.0  0.222977  0.604324  -0.000686  4.117751  -0.001
C  C54  1  0.25122809  0.68896618  0.58146338  1  0.10758  -0.004786  3.698503  -0.005  0.082559  6.2e-05  3.945921  0.0  0.090419  -0.001195  3.965707  -0.002  0.039593  0.07782  0.001162  3.933154  0.001
C  C55  1  0.74877041  0.31103432  0.41853227  1  0.107598  0.00481  3.69858  0.005  0.082599  -6.2e-05  3.945991  0.0  0.090447  0.001194  3.965773  0.002  0.039611  0.077859  -0.001163  3.933231  -0.001
C  C56  1  0.17090626  0.82480156  0.59077008  1  -0.11098  0.008569  3.730097  0.009  -0.119062  0.004115  3.969383  0.005  -0.126087  0.003912  3.991421  0.005  -0.080634  -0.114563  0.004472  3.95483  0.005
C  C57  1  0.82909447  0.17520109  0.40922198  1  -0.111059  -0.008584  3.730254  -0.009  -0.1191  -0.004114  3.969533  -0.005  -0.126117  -0.003911  3.991563  -0.005  -0.08066  -0.114594  -0.004472  3.954976  -0.005
C  C58  1  0.02708760  0.85496631  0.64719981  1  -0.004091  -0.007708  3.717969  -0.007  -0.019913  -0.002829  3.957189  -0.003  -0.015825  -0.003151  3.975564  -0.003  -0.062525  -0.022522  -0.00235  3.94517  -0.002
C  C59  1  0.97291328  0.14503850  0.35279226  1  -0.004087  0.007719  3.717946  0.007  -0.019867  0.002829  3.95716  0.003  -0.015767  0.00315  3.975542  0.003  -0.062504  -0.022478  0.00235  3.94515  0.002
C  C60  1  0.96866291  0.74831462  0.69275576  1  -0.111624  0.008769  3.724377  0.009  -0.121141  0.004127  3.966131  0.005  -0.128399  0.003838  3.986199  0.005  -0.082009  -0.116783  0.004073  3.952625  0.005
C  C61  1  0.03133844  0.25168914  0.30724072  1  -0.111629  -0.008789  3.724427  -0.009  -0.121174  -0.004126  3.966173  -0.005  -0.128429  -0.003838  3.986238  -0.005  -0.082051  -0.116814  -0.004073  3.952672  -0.005
C  C62  1  0.05506291  0.61500286  0.67968696  1  0.140479  -0.00644  3.652413  -0.006  0.112115  -0.001142  3.898647  -0.002  0.122219  -0.002309  3.915947  -0.003  0.050032  0.10583  -0.000268  3.887369  -0.001
C  C63  1  0.94493577  0.38499983  0.32031280  1  0.14056  0.00645  3.652279  0.006  0.112188  0.001141  3.898536  0.002  0.122284  0.00231  3.915844  0.003  0.050094  0.105905  0.000268  3.887263  0.001
C  C64  1  0.30550648  0.17282555  0.98685517  1  -0.113548  0.010605  3.735828  0.011  -0.121304  0.004724  3.975295  0.005  -0.128993  0.004499  3.997882  0.005  -0.077692  -0.116508  0.00487  3.960525  0.006
C  C65  1  0.69449295  0.82717281  0.01314684  1  -0.113611  -0.010578  3.73592  -0.011  -0.121382  -0.004721  3.975382  -0.005  -0.12907  -0.004501  3.997965  -0.005  -0.077708  -0.116582  -0.00487  3.960609  -0.006
C  C66  1  0.27638755  0.23463155  0.86565783  1  0.122788  -0.006996  3.685117  -0.007  0.096346  -0.000511  3.930807  -0.002  0.10477  -0.001982  3.951494  -0.003  0.044717  0.091241  0.000576  3.916523  0.0
C  C67  1  0.72361202  0.76536897  0.13434255  1  0.122782  0.006979  3.685278  0.007  0.09635  0.000509  3.930953  0.002  0.104775  0.001982  3.951638  0.003  0.044695  0.091243  -0.000576  3.916674  0.0
C  C68  1  0.46363016  0.32607989  0.82434314  1  0.117556  -0.008046  3.689426  -0.008  0.089244  -0.001291  3.94474  -0.002  0.097462  -0.00261  3.964721  -0.004  0.047454  0.083946  -0.000274  3.931772  -0.001
C  C69  1  0.53636986  0.67391956  0.17565920  1  0.117675  0.008033  3.689424  0.008  0.089312  0.001289  3.944753  0.002  0.097531  0.002609  3.964733  0.004  0.047466  0.084011  0.000274  3.931796  0.001
C  C70  1  0.49833690  0.26810522  0.94435418  1  -0.114438  0.010441  3.726639  0.01  -0.120934  0.004602  3.965377  0.005  -0.128233  0.004396  3.98817  0.005  -0.079014  -0.115976  0.004738  3.949425  0.005
C  C71  1  0.50166104  0.73189422  0.05564850  1  -0.114522  -0.010436  3.726685  -0.01  -0.121071  -0.004599  3.965485  -0.005  -0.128371  -0.004397  3.988278  -0.005  -0.079072  -0.11611  -0.004738  3.949528  -0.005
C  C72  1  0.41835823  0.18965501  0.02678945  1  -0.004031  -0.009957  3.722792  -0.009  -0.021092  -0.003424  3.963854  -0.003  -0.017413  -0.003841  3.982433  -0.004  -0.0634  -0.023142  -0.003024  3.951044  -0.003
C  C73  1  0.58164120  0.81034336  0.97321337  1  -0.004012  0.009929  3.722716  0.009  -0.021058  0.003423  3.963788  0.003  -0.017378  0.003842  3.982363  0.004  -0.06342  -0.023103  0.003024  3.950968  0.003
N  N74  1  0.35459739  0.30937177  0.78620652  1  -0.302919  0.091132  3.380731  0.111  -0.251456  0.069104  3.669406  0.091  -0.283967  0.058406  3.69514  0.081  -0.346204  -0.232604  0.073594  3.653975  0.094
N  N75  1  0.64540369  0.69062768  0.21379647  1  -0.30291  -0.091116  3.380703  -0.111  -0.251452  -0.069101  3.669402  -0.091  -0.283968  -0.058404  3.695135  -0.081  -0.346186  -0.232611  -0.073592  3.653981  -0.094
N  N76  1  0.19337334  0.58669524  0.62450338  1  -0.300022  0.071451  3.343101  0.086  -0.246305  0.056257  3.631948  0.074  -0.276266  0.048327  3.653818  0.067  -0.352137  -0.229741  0.058865  3.619847  0.074
N  N77  1  0.80662458  0.41330420  0.37549685  1  -0.300074  -0.071463  3.343063  -0.086  -0.246329  -0.056254  3.631892  -0.074  -0.276295  -0.048326  3.653773  -0.067  -0.35216  -0.229775  -0.058864  3.619794  -0.074
N  N78  1  0.67569707  0.04204421  0.72789660  1  -0.336621  0.118157  2.356393  0.128  -0.357229  0.050484  2.590362  0.057  -0.363266  0.042071  2.600231  0.05  -0.168736  -0.352688  0.057001  2.582856  0.062
N  N79  1  0.32430280  0.95795307  0.27210490  1  -0.336595  -0.118142  2.356552  -0.128  -0.357213  -0.050475  2.590503  -0.057  -0.363242  -0.042064  2.600365  -0.05  -0.168708  -0.352679  -0.056993  2.583  -0.062
N  N80  1  0.57943595  0.12799338  0.66131120  1  0.391489  -0.026007  4.182539  -0.04  0.443146  -0.00161  4.494246  -0.007  0.463623  -0.00371  4.527626  -0.009  0.082891  0.430245  0.00111  4.472477  -0.004
N  N81  1  0.42056048  0.87200714  0.33868888  1  0.391484  0.025993  4.182635  0.04  0.443169  0.001606  4.494304  0.007  0.463643  0.003711  4.527681  0.009  0.082876  0.430265  -0.001113  4.472538  0.004
N  N82  1  0.48297308  0.21481558  0.58893613  1  -0.567882  0.080512  2.885082  0.095  -0.626196  0.036742  3.280433  0.046  -0.673825  0.023375  3.289558  0.031  -0.349462  -0.599073  0.044738  3.277492  0.054
N  N83  1  0.51702590  0.78518387  0.41106638  1  -0.567912  -0.080508  2.885046  -0.095  -0.626239  -0.036746  3.280389  -0.046  -0.673878  -0.023382  3.289509  -0.031  -0.34946  -0.599126  -0.044743  3.277437  -0.054
N  N84  1  0.53486276  0.06704056  0.39427603  1  -0.560724  0.018958  2.937051  0.022  -0.609959  0.010291  3.333774  0.013  -0.669721  0.007009  3.346741  0.009  -0.35978  -0.575849  0.009632  3.328705  0.012
N  N85  1  0.46513546  0.93295563  0.60572449  1  -0.56081  -0.018931  2.936871  -0.022  -0.610052  -0.010295  3.333629  -0.013  -0.669817  -0.007014  3.346595  -0.009  -0.359816  -0.575941  -0.009631  3.328555  -0.011
N  N86  1  0.58112205  0.13415507  0.30071968  1  0.408143  -0.006572  4.137171  -0.01  0.457686  -0.001048  4.440748  -0.003  0.480513  -0.001676  4.47683  -0.003  0.097465  0.443562  0.000118  4.416288  -0.001
N  N87  1  0.41887512  0.86584112  0.69928101  1  0.408281  0.006559  4.136961  0.01  0.457817  0.001048  4.440557  0.003  0.480644  0.001679  4.476636  0.003  0.097541  0.443692  -0.000117  4.416088  0.001
N  N88  1  0.62468805  0.19896579  0.21070489  1  -0.296223  0.025325  2.342367  0.028  -0.313387  0.012544  2.567216  0.015  -0.323281  0.010349  2.579916  0.013  -0.138038  -0.306619  0.011284  2.557833  0.013
N  N89  1  0.37531061  0.80102932  0.78929513  1  -0.296304  -0.025334  2.342407  -0.028  -0.313453  -0.01254  2.567239  -0.015  -0.323348  -0.01035  2.57994  -0.013  -0.138085  -0.306681  -0.011298  2.557851  -0.012
O  O90  1  0.83282891  0.85553631  0.41314392  1  -0.608813  0.087125  2.067714  0.111  -0.583102  0.059019  2.352073  0.084  -0.629404  0.044918  2.344335  0.068  -0.331274  -0.553834  0.065395  2.35802  0.09
O  O91  1  0.16716841  0.14446204  0.58685516  1  -0.608812  -0.087126  2.067735  -0.111  -0.583096  -0.059021  2.35211  -0.085  -0.629394  -0.04492  2.344378  -0.068  -0.331246  -0.553825  -0.065396  2.358088  -0.09
O  O92  1  0.89238524  0.65580329  0.36849772  1  -0.62622  0.002354  2.036015  0.003  -0.592533  0.001135  2.297282  0.002  -0.623201  0.000466  2.286296  0.001  -0.317908  -0.572661  0.001886  2.304576  0.003
O  O93  1  0.10761522  0.34419507  0.63150248  1  -0.626243  -0.002352  2.036012  -0.003  -0.592559  -0.001134  2.297299  -0.002  -0.623219  -0.000468  2.286312  -0.001  -0.317939  -0.572677  -0.001887  2.304599  -0.003
O  O94  1  0.30838207  0.49147920  0.42969270  1  -0.593795  0.060587  2.076469  0.077  -0.557227  0.045714  2.350287  0.064  -0.59712  0.037109  2.338783  0.055  -0.312759  -0.530561  0.050171  2.357405  0.068
O  O95  1  0.69161632  0.50851917  0.57031029  1  -0.593838  -0.060603  2.07641  -0.077  -0.557267  -0.045715  2.350252  -0.064  -0.597168  -0.037109  2.338739  -0.055  -0.312772  -0.530612  -0.050178  2.35736  -0.068
O  O96  1  0.27532779  0.32926217  0.37551875  1  -0.59479  -0.061734  2.135058  -0.079  -0.561519  -0.047942  2.41898  -0.068  -0.606155  -0.038113  2.40989  -0.057  -0.313471  -0.533155  -0.051961  2.425199  -0.071
O  O97  1  0.72467073  0.67073835  0.62448099  1  -0.594856  0.061724  2.135136  0.079  -0.56156  0.047942  2.41905  0.068  -0.606199  0.03811  2.409935  0.057  -0.31349  -0.533205  0.051968  2.425246  0.071
