# generated using pymatgen
data_Cd3H48C28S4(N10Cl)2
_symmetry_space_group_name_H-M   'P 1'
_cell_length_a   8.54693921
_cell_length_b   11.22531246
_cell_length_c   13.06800000
_cell_angle_alpha   73.81964050
_cell_angle_beta   86.44980963
_cell_angle_gamma   77.66849834
_symmetry_Int_Tables_number   1
_chemical_formula_structural   Cd3H48C28S4(N10Cl)2
_chemical_formula_sum   'Cd3 H48 C28 S4 N20 Cl2'
_cell_volume   1176.32339569
_cell_formula_units_Z   1
loop_
 _symmetry_equiv_pos_site_id
 _symmetry_equiv_pos_as_xyz
  1  'x, y, z'
loop_
 _atom_site_type_symbol
 _atom_site_label
 _atom_site_symmetry_multiplicity
 _atom_site_fract_x
 _atom_site_fract_y
 _atom_site_fract_z
 _atom_site_occupancy
 _atom_site_hle17_bader_spin_density
 _atom_site_hle17_ddec_charge
 _atom_site_hle17_ddec_spin_density
 _atom_site_hle17_ddec_sum_bond_order
 _atom_site_hle17_magmom
 _atom_site_hse06_10hf_bader_spin_density
 _atom_site_hse06_10hf_ddec_charge
 _atom_site_hse06_10hf_ddec_spin_density
 _atom_site_hse06_10hf_ddec_sum_bond_order
 _atom_site_hse06_10hf_magmom
 _atom_site_hse06_bader_spin_density
 _atom_site_hse06_ddec_charge
 _atom_site_hse06_ddec_spin_density
 _atom_site_hse06_ddec_sum_bond_order
 _atom_site_hse06_magmom
 _atom_site_pbe_bader_charge
 _atom_site_pbe_bader_spin_density
 _atom_site_pbe_cm5_charge
 _atom_site_pbe_ddec_charge
 _atom_site_pbe_ddec_spin_density
 _atom_site_pbe_ddec_sum_bond_order
 _atom_site_pbe_magmom
Cd  Cd0  1  0.96267088  0.57928347  0.77067554  1  0  1.014062  0  1.941537  0  0  0.827152  0  2.421643  0  0  0.874068  0  2.379139  0  1.221319  0  0.729461  0.794275  0  2.450483  0
Cd  Cd1  1  0.03732296  0.42071873  0.22931668  1  0  1.014034  0  1.94152  0  0  0.827115  0  2.421684  0  0  0.874031  0  2.379178  0  1.221215  0  0.729469  0.794246  0  2.45051  0
Cd  Cd2  1  0.00000295  0.50000205  0.49999453  1  0  0.953848  0  1.933377  0  0  0.753203  0  2.408848  0  0  0.800555  0  2.368961  0  1.203126  0  0.700278  0.720202  0  2.43563  0
H  H3  1  0.42604704  0.87902504  0.43619796  1  0  0.264174  0  0.963404  0  0  0.248452  0  1.042887  0  0  0.254083  0  1.03797  0  0.446156  0  0.277074  0.24438  0  1.046462  0
H  H4  1  0.57395808  0.12097432  0.56380749  1  0  0.264127  0  0.963459  0  0  0.248393  0  1.042953  0  0  0.254024  0  1.038036  0  0.446082  0  0.277031  0.244321  0  1.046528  0
H  H5  1  0.55525386  0.77403229  0.52841418  1  0  0.279346  0  0.938558  0  0  0.26794  0  1.007897  0  0  0.273209  0  1.002901  0  0.451004  0  0.280972  0.264134  0  1.011542  0
H  H6  1  0.44475083  0.22596423  0.47158815  1  0  0.279333  0  0.938478  0  0  0.267911  0  1.007851  0  0  0.273181  0  1.002853  0  0.451068  0  0.280965  0.264105  0  1.011497  0
H  H7  1  0.35268383  0.00799742  0.82656223  1  0  0.263022  0  0.969642  0  0  0.248328  0  1.048887  0  0  0.253929  0  1.044128  0  0.451314  0  0.272722  0.244256  0  1.052411  0
H  H8  1  0.64731186  0.99200668  0.17344017  1  0  0.262992  0  0.969668  0  0  0.248307  0  1.048902  0  0  0.253907  0  1.044144  0  0.451254  0  0.27271  0.244233  0  1.052427  0
H  H9  1  0.21285584  0.02455517  0.91917475  1  0  0.278415  0  0.893923  0  0  0.277811  0  0.943082  0  0  0.282454  0  0.939197  0  0.436891  0  0.314587  0.274561  0  0.945708  0
H  H10  1  0.78712955  0.97544798  0.08082218  1  0  0.278372  0  0.89393  0  0  0.277776  0  0.943082  0  0  0.28242  0  0.939196  0  0.436911  0  0.314533  0.274521  0  0.945713  0
H  H11  1  0.23911648  0.64223364  0.33891166  1  0  0.100037  0  0.95338  0  0  0.113576  0  1.015412  0  0  0.115198  0  1.015416  0  0.093154  0  0.09335  0.112394  0  1.015528  0
H  H12  1  0.76089617  0.35776383  0.66109012  1  0  0.099973  0  0.95344  0  0  0.113686  0  1.015294  0  0  0.115298  0  1.015292  0  0.092977  0  0.093419  0.112502  0  1.01541  0
H  H13  1  0.31014587  0.78349955  0.32170462  1  0  0.080622  0  0.994092  0  0  0.091118  0  1.063698  0  0  0.093329  0  1.062687  0  0.070126  0  0.083712  0.089628  0  1.064363  0
H  H14  1  0.68987713  0.21649413  0.67829842  1  0  0.080549  0  0.994258  0  0  0.091045  0  1.063905  0  0  0.093247  0  1.062885  0  0.069979  0  0.083682  0.089553  0  1.064571  0
H  H15  1  0.52445095  0.62509686  0.27348094  1  0  0.104446  0  0.942423  0  0  0.128809  0  0.997727  0  0  0.130014  0  0.998126  0  0.040001  0  0.088175  0.127962  0  0.997425  0
H  H16  1  0.47556421  0.37488640  0.72652643  1  0  0.104395  0  0.942741  0  0  0.128789  0  0.997978  0  0  0.129996  0  0.998377  0  0.039888  0  0.088208  0.127942  0  0.997677  0
H  H17  1  0.50556170  0.51112679  0.39584957  1  0  0.099328  0  0.973887  0  0  0.116545  0  1.041801  0  0  0.117558  0  1.043046  0  0.016134  0  0.080306  0.115773  0  1.040989  0
H  H18  1  0.49443884  0.48886310  0.60415834  1  0  0.099279  0  0.973778  0  0  0.116542  0  1.041642  0  0  0.117556  0  1.042883  0  0.016444  0  0.080285  0.11577  0  1.04083  0
H  H19  1  0.58471456  0.64574951  0.39413770  1  0  0.089121  0  0.974431  0  0  0.102334  0  1.05179  0  0  0.103875  0  1.051985  0  0.037517  0  0.07596  0.101099  0  1.051908  0
H  H20  1  0.41530133  0.35423090  0.60587491  1  0  0.089163  0  0.974526  0  0  0.10239  0  1.051879  0  0  0.103911  0  1.052102  0  0.037684  0  0.075991  0.101158  0  1.051993  0
H  H21  1  0.17688808  0.77870337  0.77746828  1  0  0.101395  0  0.935365  0  0  0.116418  0  0.994193  0  0  0.117667  0  0.99406  0  0.088844  0  0.102537  0.115512  0  0.994328  0
H  H22  1  0.82311358  0.22129125  0.22253386  1  0  0.101404  0  0.935302  0  0  0.116434  0  0.994132  0  0  0.11768  0  0.993997  0  0.088849  0  0.102558  0.115529  0  0.994264  0
H  H23  1  0.30730115  0.86962981  0.69504746  1  0  0.087036  0  0.96129  0  0  0.096602  0  1.035038  0  0  0.098091  0  1.034548  0  0.070188  0  0.096029  0.095461  0  1.035539  0
H  H24  1  0.69269626  0.13036766  0.30495570  1  0  0.08702  0  0.961366  0  0  0.096582  0  1.035116  0  0  0.098067  0  1.034626  0  0.070139  0  0.096046  0.095441  0  1.035616  0
H  H25  1  0.44069816  0.72250443  0.86443280  1  0  0.098383  0  0.960761  0  0  0.121924  0  1.018487  0  0  0.122944  0  1.019159  0  0.03479  0  0.084627  0.121156  0  1.018039  0
H  H26  1  0.55930369  0.27749398  0.13556843  1  0  0.098341  0  0.960738  0  0  0.121881  0  1.018479  0  0  0.122903  0  1.01915  0  0.034634  0  0.084611  0.121117  0  1.018027  0
H  H27  1  0.54120968  0.69216466  0.74842645  1  0  0.096838  0  0.984182  0  0  0.11313  0  1.05509  0  0  0.114101  0  1.056377  0  0.068363  0  0.073275  0.112352  0  1.05427  0
H  H28  1  0.45879119  0.30783754  0.25157467  1  0  0.096765  0  0.984248  0  0  0.113075  0  1.055158  0  0  0.114046  0  1.056448  0  0.068365  0  0.073242  0.112295  0  1.054344  0
H  H29  1  0.41522579  0.59110949  0.82265008  1  0  0.096103  0  0.97039  0  0  0.115122  0  1.036119  0  0  0.116307  0  1.0367  0  0.077958  0  0.079192  0.114228  0  1.035784  0
H  H30  1  0.58477958  0.40888892  0.17735100  1  0  0.096023  0  0.970431  0  0  0.115045  0  1.036167  0  0  0.116222  0  1.036759  0  0.077881  0  0.079166  0.114153  0  1.035831  0
H  H31  1  0.26968214  0.07104330  0.61196375  1  0  0.089429  0  0.933519  0  0  0.103923  0  0.996661  0  0  0.105764  0  0.995549  0  0.057567  0  0.098277  0.102569  0  0.997541  0
H  H32  1  0.73032089  0.92895512  0.38803819  1  0  0.089423  0  0.933434  0  0  0.103915  0  0.996599  0  0  0.105754  0  0.99549  0  0.057617  0  0.098279  0.102563  0  0.997479  0
H  H33  1  0.13583791  0.19456023  0.52571551  1  0  0.100297  0  0.953  0  0  0.113987  0  1.014092  0  0  0.115803  0  1.013689  0  0.136066  0  0.095208  0.112616  0  1.014501  0
H  H34  1  0.86416936  0.80543535  0.47428312  1  0  0.100277  0  0.953017  0  0  0.113984  0  1.014104  0  0  0.115802  0  1.013697  0  0.136121  0  0.095222  0.112616  0  1.01451  0
H  H35  1  0.04454073  0.98207033  0.58008073  1  0  0.102666  0  0.95393  0  0  0.127079  0  1.007744  0  0  0.128027  0  1.008593  0  0.01484  0  0.089779  0.126374  0  1.007179  0
H  H36  1  0.95546699  0.01792809  0.41991872  1  0  0.102693  0  0.953979  0  0  0.127151  0  1.007732  0  0  0.1281  0  1.008581  0  0.014407  0  0.08979  0.126442  0  1.007175  0
H  H37  1  0.90220351  0.10482786  0.61455918  1  0  0.087573  0  0.99346  0  0  0.105448  0  1.062283  0  0  0.106233  0  1.063627  0  0.049583  0  0.080064  0.10484  0  1.061385  0
H  H38  1  0.09780069  0.89517056  0.38543277  1  0  0.087556  0  0.99345  0  0  0.105447  0  1.062282  0  0  0.106236  0  1.063629  0  0.049526  0  0.080069  0.104838  0  1.061386  0
H  H39  1  0.02784733  0.99089032  0.71368308  1  0  0.101123  0  0.975265  0  0  0.116438  0  1.045775  0  0  0.118081  0  1.045622  0  0.080548  0  0.086429  0.115209  0  1.045893  0
H  H40  1  0.97215144  0.00911093  0.28631529  1  0  0.101103  0  0.97536  0  0  0.116422  0  1.045879  0  0  0.118069  0  1.045725  0  0.080495  0  0.086441  0.115205  0  1.045984  0
H  H41  1  0.15202047  0.17012257  0.99650430  1  0  0.085173  0  0.921861  0  0  0.100846  0  0.979176  0  0  0.102668  0  0.977875  0  0.037684  0  0.099863  0.099568  0  0.980098  0
H  H42  1  0.84797263  0.82988248  0.00349263  1  0  0.085187  0  0.921924  0  0  0.10086  0  0.979231  0  0  0.102682  0  0.97793  0  0.03773  0  0.099874  0.099584  0  0.980154  0
H  H43  1  0.11896700  0.33593796  0.96513928  1  0  0.107499  0  0.961333  0  0  0.122105  0  1.02174  0  0  0.12227  0  1.023926  0  0.102825  0  0.104661  0.121974  0  1.020258  0
H  H44  1  0.88102234  0.66406804  0.03485604  1  0  0.107479  0  0.961237  0  0  0.122032  0  1.021713  0  0  0.1222  0  1.023906  0  0.102992  0  0.104646  0.121904  0  1.020231  0
H  H45  1  0.39111222  0.23127973  0.04483739  1  0  0.103509  0  0.98323  0  0  0.122467  0  1.047422  0  0  0.123166  0  1.049074  0  0.04081  0  0.086448  0.121896  0  1.046342  0
H  H46  1  0.60887872  0.76872911  0.95516178  1  0  0.103526  0  0.983222  0  0  0.122465  0  1.047435  0  0  0.123166  0  1.049086  0  0.040768  0  0.086445  0.121895  0  1.046356  0
H  H47  1  0.40511986  0.33448518  0.91570385  1  0  0.104683  0  0.956184  0  0  0.124287  0  1.01979  0  0  0.125683  0  1.019979  0  0.06529  0  0.086898  0.123215  0  1.019762  0
H  H48  1  0.59487202  0.66552461  0.08429123  1  0  0.104527  0  0.956066  0  0  0.124108  0  1.019732  0  0  0.125515  0  1.019913  0  0.066073  0  0.086829  0.123038  0  1.019702  0
H  H49  1  0.44609920  0.16737811  0.93438565  1  0  0.083529  0  0.968816  0  0  0.098328  0  1.041688  0  0  0.100614  0  1.040384  0  0.023424  0  0.074894  0.096663  0  1.042586  0
H  H50  1  0.55389458  0.83262884  0.06561310  1  0  0.08349  0  0.968741  0  0  0.098281  0  1.041625  0  0  0.100567  0  1.040324  0  0.023327  0  0.074895  0.09662  0  1.042519  0
C  C51  1  0.17559006  0.56098200  0.99033207  1  0  0.312766  0  4.000957  0  0  0.293229  0  4.296293  0  0  0.315692  0  4.310215  0  0.586322  0  0.156129  0.277952  0  4.286717  0
C  C52  1  0.82439239  0.43903252  0.00965766  1  0  0.312567  0  4.000856  0  0  0.29305  0  4.296201  0  0  0.315513  0  4.310124  0  0.585142  0  0.156031  0.277772  0  4.286619  0
C  C53  1  0.73656466  0.87492067  0.76433823  1  0  0.3251  0  4.015214  0  0  0.307958  0  4.309339  0  0  0.329476  0  4.323501  0  0.564592  0  0.150775  0.29326  0  4.299459  0
C  C54  1  0.26341882  0.12508533  0.23566575  1  0  0.325013  0  4.015488  0  0  0.307867  0  4.309616  0  0  0.329386  0  4.323777  0  0.564131  0  0.150734  0.293169  0  4.299736  0
C  C55  1  0.27457292  0.68361570  0.48110088  1  0  0.29671  0  3.677177  0  0  0.262199  0  3.954534  0  0  0.278042  0  3.967959  0  0.939446  0  0.231826  0.251673  0  3.945408  0
C  C56  1  0.72543479  0.31638272  0.51889934  1  0  0.296905  0  3.67697  0  0  0.262259  0  3.954546  0  0  0.278088  0  3.967965  0  0.938982  0  0.231841  0.251733  0  3.94542  0
C  C57  1  0.32397971  0.68424685  0.36993445  1  0  -0.175331  0  3.749815  0  0  -0.206769  0  3.99708  0  0  -0.210344  0  4.008052  0  -0.009995  0  -0.165184  -0.204365  0  3.989773  0
C  C58  1  0.67603768  0.31574588  0.63006750  1  0  -0.175304  0  3.749832  0  0  -0.20691  0  3.997325  0  0  -0.210433  0  4.008237  0  -0.009446  0  -0.165289  -0.204503  0  3.990017  0
C  C59  1  0.49528741  0.61266907  0.35826284  1  0  -0.256752  0  3.662489  0  0  -0.330587  0  3.906788  0  0  -0.332542  0  3.916537  0  -0.043752  0  -0.25031  -0.328965  0  3.900255  0
C  C60  1  0.50472448  0.38731324  0.64174719  1  0  -0.256684  0  3.662827  0  0  -0.33058  0  3.907121  0  0  -0.332537  0  3.916869  0  -0.044241  0  -0.250306  -0.328959  0  3.900584  0
C  C61  1  0.25309009  0.72588668  0.63801038  1  0  0.324816  0  3.658687  0  0  0.292501  0  3.930728  0  0  0.308117  0  3.943929  0  0.978152  0  0.242006  0.28216  0  3.921621  0
C  C62  1  0.74691079  0.27411553  0.36198921  1  0  0.324923  0  3.658638  0  0  0.29256  0  3.930729  0  0  0.308177  0  3.943915  0  0.978128  0  0.24208  0.282216  0  3.921624  0
C  C63  1  0.28498967  0.77354708  0.72779399  1  0  -0.163685  0  3.741569  0  0  -0.198266  0  3.992061  0  0  -0.200976  0  4.00347  0  0.007154  0  -0.157192  -0.196313  0  3.984171  0
C  C64  1  0.71500867  0.22645134  0.27220814  1  0  -0.163788  0  3.741498  0  0  -0.198379  0  3.992083  0  0  -0.201072  0  4.003463  0  0.00715  0  -0.157269  -0.196424  0  3.984192  0
C  C65  1  0.42955225  0.68961826  0.79419245  1  0  -0.278218  0  3.702511  0  0  -0.356077  0  3.947774  0  0  -0.358759  0  3.959013  0  -0.112744  0  -0.253889  -0.353893  0  3.939974  0
C  C66  1  0.57044843  0.31038015  0.20580882  1  0  -0.277994  0  3.7025  0  0  -0.35587  0  3.947741  0  0  -0.358551  0  3.958986  0  -0.112487  0  -0.253825  -0.353686  0  3.939932  0
C  C67  1  0.13873917  0.21067542  0.68181859  1  0  0.311365  0  3.652154  0  0  0.275757  0  3.929818  0  0  0.291089  0  3.943404  0  0.956145  0  0.233591  0.26553  0  3.920552  0
C  C68  1  0.86126121  0.78932869  0.31817750  1  0  0.311549  0  3.651997  0  0  0.275943  0  3.929685  0  0  0.291277  0  3.943267  0  0.956113  0  0.233582  0.265716  0  3.920422  0
C  C69  1  0.14865433  0.13114665  0.60684719  1  0  -0.157325  0  3.716499  0  0  -0.19156  0  3.970641  0  0  -0.193932  0  3.980786  0  -0.031902  0  -0.155747  -0.1898  0  3.963548  0
C  C70  1  0.85134895  0.86885082  0.39315344  1  0  -0.157283  0  3.716326  0  0  -0.191561  0  3.970573  0  0  -0.193931  0  3.980713  0  -0.031894  0  -0.155746  -0.189803  0  3.963483  0
C  C71  1  0.02334883  0.04743959  0.63042305  1  0  -0.270897  0  3.680196  0  0  -0.346821  0  3.925419  0  0  -0.349049  0  3.935663  0  -0.082998  0  -0.248648  -0.344998  0  3.918253  0
C  C72  1  0.97665536  0.95255882  0.36957272  1  0  -0.270908  0  3.68028  0  0  -0.34691  0  3.925562  0  0  -0.349148  0  3.935811  0  -0.082576  0  -0.248691  -0.345094  0  3.918387  0
C  C73  1  0.15418599  0.26484917  0.83091452  1  0  0.296966  0  3.686193  0  0  0.261313  0  3.96745  0  0  0.276409  0  3.981181  0  0.947182  0  0.230019  0.251288  0  3.958067  0
C  C74  1  0.84580692  0.73515208  0.16907950  1  0  0.297105  0  3.686357  0  0  0.26147  0  3.967557  0  0  0.276563  0  3.981291  0  0.947087  0  0.230028  0.251447  0  3.958175  0
C  C75  1  0.19095512  0.25362114  0.94314531  1  0  -0.163743  0  3.741495  0  0  -0.199195  0  3.998388  0  0  -0.201885  0  4.010539  0  0.022581  0  -0.15419  -0.197345  0  3.990015  0
C  C76  1  0.80903700  0.74638770  0.05685152  1  0  -0.163755  0  3.741389  0  0  -0.199099  0  3.998094  0  0  -0.201796  0  4.010252  0  0.022279  0  -0.154127  -0.197258  0  3.989734  0
C  C77  1  0.36948907  0.24588054  0.96005408  1  0  -0.280076  0  3.695963  0  0  -0.354775  0  3.940617  0  0  -0.357236  0  3.950444  0  -0.068138  0  -0.24746  -0.352732  0  3.933832  0
C  C78  1  0.63050447  0.75412735  0.03994291  1  0  -0.279865  0  3.695639  0  0  -0.354573  0  3.940357  0  0  -0.357038  0  3.950167  0  -0.068734  0  -0.247423  -0.35253  0  3.933568  0
S  S79  1  0.24675279  0.55498702  0.10482241  1  0  -0.333884  0  2.11387  0  0  -0.297685  0  2.417045  0  0  -0.31567  0  2.41101  0  0.058661  0  -0.140605  -0.285231  0  2.420664  0
S  S80  1  0.75324143  0.44502277  0.89517410  1  0  -0.33374  0  2.114062  0  0  -0.297548  0  2.417251  0  0  -0.315536  0  2.411225  0  0.059204  0  -0.140553  -0.28509  0  2.420867  0
S  S81  1  0.60630640  0.00663561  0.75590336  1  0  -0.41723  0  2.065237  0  0  -0.385965  0  2.349192  0  0  -0.401183  0  2.341271  0  -0.019202  0  -0.164426  -0.375084  0  2.354266  0
S  S82  1  0.39369096  0.99336660  0.24410938  1  0  -0.417198  0  2.065166  0  0  -0.385933  0  2.349101  0  0  -0.401151  0  2.341178  0  -0.019185  0  -0.164392  -0.375053  0  2.354176  0
N  N83  1  0.12532625  0.56419651  0.90708268  1  0  -0.535045  0  2.900843  0  0  -0.47437  0  3.178075  0  0  -0.49625  0  3.18429  0  -1.302286  0  -0.392375  -0.459548  0  3.173792  0
N  N84  1  0.87465830  0.43581896  0.09291133  1  0  -0.534912  0  2.900451  0  0  -0.474287  0  3.177741  0  0  -0.496171  0  3.183954  0  -1.301522  0  -0.392319  -0.459483  0  3.173495  0
N  N85  1  0.83477185  0.78104412  0.77193280  1  0  -0.543521  0  2.868129  0  0  -0.483558  0  3.139577  0  0  -0.505856  0  3.147113  0  -1.277685  0  -0.39126  -0.468231  0  3.134382  0
N  N86  1  0.16520934  0.21895713  0.22806322  1  0  -0.543424  0  2.868404  0  0  -0.48346  0  3.139865  0  0  -0.505757  0  3.147401  0  -1.277243  0  -0.391257  -0.468134  0  3.134668  0
N  N87  1  0.15216053  0.65198994  0.63642567  1  0  -0.3002  0  3.111381  0  0  -0.253186  0  3.397967  0  0  -0.269324  0  3.415267  0  -0.768303  0  -0.242416  -0.242296  0  3.386141  0
N  N88  1  0.84784411  0.34801132  0.36357323  1  0  -0.300152  0  3.111323  0  0  -0.253119  0  3.397888  0  0  -0.26926  0  3.415187  0  -0.76827  0  -0.242395  -0.242228  0  3.386062  0
N  N89  1  0.16468633  0.62663019  0.53856966  1  0  -0.302586  0  3.154515  0  0  -0.248905  0  3.443217  0  0  -0.265614  0  3.46165  0  -0.75273  0  -0.246093  -0.237651  0  3.430561  0
N  N90  1  0.83532071  0.37336633  0.46143104  1  0  -0.302671  0  3.154416  0  0  -0.248935  0  3.443156  0  0  -0.265645  0  3.461596  0  -0.752869  0  -0.246096  -0.237678  0  3.430493  0
N  N91  1  0.33192204  0.74754576  0.54187991  1  0  -0.024843  0  3.52124  0  0  0.05593  0  3.745782  0  0  0.041497  0  3.767554  0  -0.880037  0  -0.143635  0.065246  0  3.731033  0
N  N92  1  0.66808641  0.25244981  0.45812249  1  0  -0.024948  0  3.521202  0  0  0.0559  0  3.745729  0  0  0.041465  0  3.767505  0  -0.879486  0  -0.143679  0.065216  0  3.730981  0
N  N93  1  0.44112880  0.82806010  0.51492001  1  0  -0.494469  0  2.932842  0  0  -0.496267  0  3.166775  0  0  -0.504045  0  3.166062  0  -0.745241  0  -0.496981  -0.490502  0  3.16728  0
N  N94  1  0.55887589  0.17193642  0.48508385  1  0  -0.494383  0  2.932764  0  0  -0.496155  0  3.166676  0  0  -0.503931  0  3.165964  0  -0.745232  0  -0.496907  -0.49039  0  3.167182  0
N  N95  1  0.09642462  0.36869240  0.75513106  1  0  -0.307078  0  3.130818  0  0  -0.261933  0  3.421001  0  0  -0.277525  0  3.438531  0  -0.752482  0  -0.239546  -0.251255  0  3.408872  0
N  N96  1  0.90357298  0.63130886  0.24486660  1  0  -0.307113  0  3.130964  0  0  -0.26197  0  3.421126  0  0  -0.277563  0  3.438659  0  -0.752414  0  -0.239554  -0.251292  0  3.408997  0
N  N97  1  0.08868683  0.33526132  0.66206248  1  0  -0.309214  0  3.132576  0  0  -0.258979  0  3.423176  0  0  -0.274738  0  3.440516  0  -0.747125  0  -0.241739  -0.248295  0  3.41122  0
N  N98  1  0.91131336  0.66473899  0.33793529  1  0  -0.309314  0  3.132619  0  0  -0.259056  0  3.423197  0  0  -0.274815  0  3.440536  0  -0.746929  0  -0.241747  -0.248371  0  3.411241  0
N  N99  1  0.18117396  0.16410105  0.78723557  1  0  -0.022171  0  3.520443  0  0  0.059795  0  3.74681  0  0  0.045643  0  3.768988  0  -0.880861  0  -0.142733  0.068877  0  3.731774  0
N  N100  1  0.81882105  0.83590116  0.21276196  1  0  -0.022463  0  3.52053  0  0  0.05948  0  3.74695  0  0  0.045328  0  3.769126  0  -0.880831  0  -0.142783  0.06856  0  3.731914  0
N  N101  1  0.23097540  0.03504497  0.83939570  1  0  -0.474062  0  2.908234  0  0  -0.476107  0  3.130817  0  0  -0.484604  0  3.131483  0  -0.749278  0  -0.484698  -0.469769  0  3.130246  0
N  N102  1  0.76902054  0.96495818  0.16060310  1  0  -0.473873  0  2.908226  0  0  -0.475927  0  3.130759  0  0  -0.484429  0  3.131429  0  -0.749315  0  -0.484595  -0.469583  0  3.130187  0
Cl  Cl103  1  0.76927909  0.60585434  0.60738026  1  0  -0.552199  0  1.013996  0  0  -0.484502  0  1.299174  0  0  -0.501901  0  1.277391  0  -0.649408  0  -0.269877  -0.471968  0  1.314047  0
Cl  Cl104  1  0.23072350  0.39414123  0.39261472  1  0  -0.552174  0  1.013927  0  0  -0.484438  0  1.299055  0  0  -0.501836  0  1.277273  0  -0.649552  0  -0.269864  -0.471905  0  1.313928  0
