# generated using pymatgen
data_H8PbC10(BrN)2
_symmetry_space_group_name_H-M   'P 1'
_cell_length_a   8.29670382
_cell_length_b   9.23032252
_cell_length_c   9.22964971
_cell_angle_alpha   64.05572189
_cell_angle_beta   78.44408160
_cell_angle_gamma   78.45339045
_symmetry_Int_Tables_number   1
_chemical_formula_structural   H8PbC10(BrN)2
_chemical_formula_sum   'H16 Pb2 C20 Br4 N4'
_cell_volume   617.60136909
_cell_formula_units_Z   2
loop_
 _symmetry_equiv_pos_site_id
 _symmetry_equiv_pos_as_xyz
  1  'x, y, z'
loop_
 _atom_site_type_symbol
 _atom_site_label
 _atom_site_symmetry_multiplicity
 _atom_site_fract_x
 _atom_site_fract_y
 _atom_site_fract_z
 _atom_site_occupancy
 _atom_site_pbe_bader_spin_density
 _atom_site_pbe_cm5_charge
 _atom_site_pbe_ddec_charge
 _atom_site_pbe_ddec_spin_density
 _atom_site_pbe_ddec_sum_bond_order
 _atom_site_pbe_magmom
H  H0  1  0.93606203  0.33040901  0.98547424  1  0  0.101173  0.072429  0  1.048275  0
H  H1  1  0.56381938  0.01464328  0.66961809  1  0  0.101362  0.073031  0  1.048045  0
H  H2  1  0.06390123  0.66948402  0.01447916  1  0  0.101145  0.072543  0  1.048182  0
H  H3  1  0.43610422  0.98532672  0.33036239  1  0  0.101391  0.072981  0  1.048039  0
H  H4  1  0.80570801  0.62115234  0.85758350  1  0  0.091944  0.108417  0  1.04809  0
H  H5  1  0.69417476  0.14253638  0.37881381  1  0  0.092041  0.108373  0  1.048113  0
H  H6  1  0.19422597  0.37877556  0.14246150  1  0  0.092041  0.10854  0  1.047963  0
H  H7  1  0.30583919  0.85748528  0.62119361  1  0  0.091962  0.108277  0  1.048138  0
H  H8  1  0.92886764  0.79874443  0.57503107  1  0  0.09677  0.108194  0  1.009986  0
H  H9  1  0.57108290  0.42503847  0.20120120  1  0  0.096903  0.108262  0  1.009744  0
H  H10  1  0.07118847  0.20126462  0.42505890  1  0  0.096839  0.108379  0  1.009977  0
H  H11  1  0.42895514  0.57502454  0.79878678  1  0  0.096852  0.108222  0  1.009918  0
H  H12  1  0.16379447  0.68152317  0.43438764  1  0  0.101638  0.109572  0  1.0288  0
H  H13  1  0.33617624  0.56561068  0.31847666  1  0  0.101668  0.109582  0  1.02906  0
H  H14  1  0.83616325  0.31852446  0.56553598  1  0  0.101606  0.109591  0  1.029284  0
H  H15  1  0.66379355  0.43441937  0.68152520  1  0  0.101673  0.109668  0  1.029115  0
Pb  Pb16  1  0.25004266  0.06207046  0.93795725  1  0  0.417617  0.73811  0  2.249943  0
Pb  Pb17  1  0.75001917  0.93795157  0.06208151  1  0  0.417742  0.738184  0  2.249255  0
C  C18  1  0.98303128  0.41311543  0.86334299  1  0  0.045928  0.087971  0  3.953456  0
C  C19  1  0.51689019  0.13676878  0.58691270  1  0  0.045844  0.087359  0  3.952793  0
C  C20  1  0.01694000  0.58684739  0.13664080  1  0  0.046032  0.087994  0  3.953568  0
C  C21  1  0.48309191  0.86324275  0.41306051  1  0  0.045743  0.08712  0  3.953302  0
C  C22  1  0.91167096  0.57393676  0.79223685  1  0  -0.081818  -0.112631  0  3.950491  0
C  C23  1  0.58823790  0.20788225  0.42604407  1  0  -0.082144  -0.11304  0  3.951272  0
C  C24  1  0.08829202  0.42603261  0.20780078  1  0  -0.081875  -0.112808  0  3.951162  0
C  C25  1  0.41175660  0.79213786  0.57393069  1  0  -0.081949  -0.112687  0  3.950806  0
C  C26  1  0.97895103  0.67156889  0.63606215  1  0  -0.067697  -0.015998  0  3.948782  0
C  C27  1  0.52099248  0.36401707  0.32840948  1  0  -0.067518  -0.015499  0  3.948487  0
C  C28  1  0.02108531  0.32841301  0.36399576  1  0  -0.06764  -0.016061  0  3.949197  0
C  C29  1  0.47902009  0.63600574  0.67159117  1  0  -0.067515  -0.015404  0  3.948592  0
C  C30  1  0.11235166  0.60514807  0.55662931  1  0  -0.079284  -0.149265  0  3.933798  0
C  C31  1  0.38758410  0.44340969  0.39487046  1  0  -0.079327  -0.149372  0  3.933901  0
C  C32  1  0.88763806  0.39487091  0.44335655  1  0  -0.079225  -0.149281  0  3.933767  0
C  C33  1  0.61239885  0.55660451  0.60512958  1  0  -0.079405  -0.149676  0  3.93322  0
C  C34  1  0.17867956  0.44228828  0.63552985  1  0  0.12265  0.166943  0  3.975554  0
C  C35  1  0.32125907  0.36456998  0.55775358  1  0  0.122524  0.166955  0  3.975871  0
C  C36  1  0.82131310  0.55777358  0.36447869  1  0  0.12243  0.166767  0  3.975753  0
C  C37  1  0.67875694  0.63546455  0.44219033  1  0  0.122714  0.167061  0  3.975203  0
Br  Br38  1  0.02925028  0.98146353  0.76662888  1  0  -0.242256  -0.490192  0  1.159404  0
Br  Br39  1  0.47104223  0.23343326  0.01848757  1  0  -0.242383  -0.490473  0  1.159162  0
Br  Br40  1  0.97086968  0.01839624  0.23352789  1  0  -0.242306  -0.490216  0  1.159012  0
Br  Br41  1  0.52897197  0.76657784  0.98142807  1  0  -0.242439  -0.490523  0  1.158696  0
N  N42  1  0.11354088  0.34966219  0.78778415  1  0  -0.297808  -0.254477  0  3.469775  0
N  N43  1  0.38639853  0.21234655  0.65036670  1  0  -0.297898  -0.254296  0  3.469703  0
N  N44  1  0.88647676  0.65034091  0.21219184  1  0  -0.297795  -0.254441  0  3.469709  0
N  N45  1  0.61358115  0.78769290  0.34959129  1  0  -0.297949  -0.254186  0  3.469755  0
