# generated using pymatgen
data_CdH6C7SNClO2
_symmetry_space_group_name_H-M   'P 1'
_cell_length_a   8.53164191
_cell_length_b   14.78342196
_cell_length_c   14.78344184
_cell_angle_alpha   116.40836651
_cell_angle_beta   101.07284685
_cell_angle_gamma   101.07249974
_symmetry_Int_Tables_number   1
_chemical_formula_structural   CdH6C7SNClO2
_chemical_formula_sum   'Cd6 H36 C42 S6 N6 Cl6 O12'
_cell_volume   1555.12064066
_cell_formula_units_Z   6
loop_
 _symmetry_equiv_pos_site_id
 _symmetry_equiv_pos_as_xyz
  1  'x, y, z'
loop_
 _atom_site_type_symbol
 _atom_site_label
 _atom_site_symmetry_multiplicity
 _atom_site_fract_x
 _atom_site_fract_y
 _atom_site_fract_z
 _atom_site_occupancy
 _atom_site_hle17_bader_spin_density
 _atom_site_hle17_ddec_charge
 _atom_site_hle17_ddec_spin_density
 _atom_site_hle17_ddec_sum_bond_order
 _atom_site_hle17_magmom
 _atom_site_hse06_10hf_bader_spin_density
 _atom_site_hse06_10hf_ddec_charge
 _atom_site_hse06_10hf_ddec_spin_density
 _atom_site_hse06_10hf_ddec_sum_bond_order
 _atom_site_hse06_10hf_magmom
 _atom_site_hse06_bader_spin_density
 _atom_site_hse06_ddec_charge
 _atom_site_hse06_ddec_spin_density
 _atom_site_hse06_ddec_sum_bond_order
 _atom_site_hse06_magmom
 _atom_site_pbe_bader_spin_density
 _atom_site_pbe_cm5_charge
 _atom_site_pbe_ddec_charge
 _atom_site_pbe_ddec_spin_density
 _atom_site_pbe_ddec_sum_bond_order
 _atom_site_pbe_magmom
Cd  Cd0  1  0.56832480  0.25053516  0.57169080  1  0  1.104088  0  1.805922  0  0  0.929791  0  2.268318  0  0  0.982997  0  2.216635  0  0  0.685163  0.891919  0  2.303615  0
Cd  Cd1  1  0.31755864  0.32099318  0.74943933  1  0  1.103911  0  1.804825  0  0  0.9298  0  2.266962  0  0  0.982973  0  2.215332  0  0  0.685283  0.891944  0  2.302229  0
Cd  Cd2  1  0.99649780  0.42827794  0.67894617  1  0  1.10316  0  1.806099  0  0  0.928862  0  2.268372  0  0  0.982068  0  2.21674  0  0  0.684889  0.890984  0  2.303641  0
Cd  Cd3  1  0.81755781  0.74943765  0.32099341  1  0  1.10389  0  1.804831  0  0  0.929779  0  2.266966  0  0  0.982951  0  2.21534  0  0  0.685281  0.891924  0  2.302234  0
Cd  Cd4  1  0.49649818  0.67894657  0.42827728  1  0  1.103161  0  1.806113  0  0  0.928879  0  2.268393  0  0  0.982082  0  2.216758  0  0  0.684908  0.891001  0  2.303664  0
Cd  Cd5  1  0.06832660  0.57169375  0.25053681  1  0  1.104105  0  1.805874  0  0  0.929814  0  2.268255  0  0  0.983018  0  2.216575  0  0  0.685172  0.891943  0  2.303551  0
H  H6  1  0.91783800  0.47139282  0.00098326  1  0  0.079202  0  0.96115  0  0  0.088444  0  1.024864  0  0  0.090443  0  1.022925  0  0  0.104023  0.086924  0  1.026314  0
H  H7  1  0.44554800  0.52973244  0.52872599  1  0  0.078988  0  0.961421  0  0  0.088089  0  1.025257  0  0  0.090139  0  1.023251  0  0  0.10366  0.086556  0  1.026726  0
H  H8  1  0.91668803  0.99917424  0.47048195  1  0  0.078691  0  0.960831  0  0  0.08813  0  1.02426  0  0  0.090022  0  1.022446  0  0  0.104194  0.08669  0  1.02564  0
H  H9  1  0.94554854  0.52872777  0.52973200  1  0  0.078991  0  0.961402  0  0  0.088092  0  1.025238  0  0  0.090147  0  1.023226  0  0  0.103662  0.086558  0  1.026708  0
H  H10  1  0.41669227  0.47048424  0.99917816  1  0  0.078723  0  0.960911  0  0  0.08816  0  1.024327  0  0  0.09005  0  1.022518  0  0  0.104207  0.086721  0  1.025706  0
H  H11  1  0.41783894  0.00098274  0.47139240  1  0  0.079148  0  0.961074  0  0  0.088422  0  1.024769  0  0  0.090385  0  1.022871  0  0  0.103984  0.086901  0  1.02622  0
H  H12  1  0.82579810  0.30352237  0.83283842  1  0  0.117276  0  0.968884  0  0  0.128667  0  1.027323  0  0  0.131366  0  1.027265  0  0  0.107735  0.126692  0  1.02756  0
H  H13  1  0.52169497  0.52944631  0.69654105  1  0  0.117397  0  0.968099  0  0  0.128342  0  1.027038  0  0  0.131026  0  1.027021  0  0  0.107501  0.126371  0  1.027255  0
H  H14  1  0.99290763  0.16728134  0.47075970  1  0  0.117108  0  0.968139  0  0  0.127887  0  1.027504  0  0  0.130545  0  1.027532  0  0  0.106607  0.125929  0  1.027726  0
H  H15  1  0.02169549  0.69654344  0.52944575  1  0  0.11737  0  0.968162  0  0  0.12833  0  1.027077  0  0  0.131013  0  1.027061  0  0  0.107479  0.126358  0  1.027295  0
H  H16  1  0.49290932  0.47076074  0.16728483  1  0  0.117162  0  0.968149  0  0  0.127935  0  1.027485  0  0  0.130591  0  1.027515  0  0  0.106626  0.125976  0  1.027707  0
H  H17  1  0.32579779  0.83283772  0.30352189  1  0  0.117258  0  0.968922  0  0  0.128653  0  1.027357  0  0  0.131345  0  1.027307  0  0  0.107739  0.126678  0  1.027593  0
H  H18  1  0.01623980  0.16016688  0.01299262  1  0  0.106399  0  0.938716  0  0  0.119525  0  0.991521  0  0  0.123327  0  0.990074  0  0  0.10529  0.116816  0  0.992702  0
H  H19  1  0.85595492  0.85277047  0.83963171  1  0  0.107173  0  0.937798  0  0  0.120158  0  0.990664  0  0  0.123953  0  0.989251  0  0  0.105015  0.117402  0  0.991882  0
H  H20  1  0.00326136  0.98694084  0.14718168  1  0  0.108033  0  0.938529  0  0  0.120945  0  0.991541  0  0  0.124758  0  0.990071  0  0  0.105393  0.11824  0  0.992711  0
H  H21  1  0.35595771  0.83963195  0.85276986  1  0  0.107162  0  0.937853  0  0  0.120148  0  0.990721  0  0  0.123946  0  0.989304  0  0  0.105023  0.117391  0  0.99194  0
H  H22  1  0.50325803  0.14718184  0.98694243  1  0  0.108033  0  0.938524  0  0  0.120962  0  0.991517  0  0  0.124775  0  0.990047  0  0  0.105401  0.118257  0  0.992688  0
H  H23  1  0.51623083  0.01298849  0.16016251  1  0  0.106373  0  0.938746  0  0  0.119522  0  0.991524  0  0  0.123327  0  0.990074  0  0  0.10531  0.116814  0  0.992705  0
H  H24  1  0.09539715  0.33660452  0.17562791  1  0  0.073072  0  0.967259  0  0  0.077219  0  1.040855  0  0  0.079952  0  1.037665  0  0  0.101651  0.075229  0  1.043115  0
H  H25  1  0.75859033  0.83890635  0.66320086  1  0  0.073361  0  0.966506  0  0  0.077673  0  1.03991  0  0  0.080443  0  1.036673  0  0  0.101361  0.075635  0  1.042219  0
H  H26  1  0.91990051  0.82436102  0.16103627  1  0  0.073243  0  0.966958  0  0  0.077336  0  1.040609  0  0  0.08011  0  1.037355  0  0  0.101346  0.075321  0  1.042896  0
H  H27  1  0.25859151  0.66320103  0.83890521  1  0  0.073326  0  0.966501  0  0  0.077629  0  1.039914  0  0  0.080397  0  1.03668  0  0  0.101355  0.075595  0  1.042219  0
H  H28  1  0.41989971  0.16103726  0.82436367  1  0  0.073187  0  0.966966  0  0  0.077269  0  1.040639  0  0  0.080043  0  1.037385  0  0  0.101311  0.075253  0  1.042928  0
H  H29  1  0.59539663  0.17562435  0.33660185  1  0  0.073091  0  0.967242  0  0  0.077249  0  1.040827  0  0  0.079984  0  1.037637  0  0  0.101667  0.075259  0  1.043088  0
H  H30  1  0.74019087  0.03861733  0.61535938  1  0  0.147934  0  0.940013  0  0  0.16228  0  0.996505  0  0  0.165183  0  0.994951  0  0  0.101668  0.160222  0  0.99777  0
H  H31  1  0.70090569  0.57674872  0.96129495  1  0  0.148363  0  0.939518  0  0  0.162249  0  0.996557  0  0  0.165158  0  0.994968  0  0  0.100912  0.160153  0  0.997829  0
H  H32  1  0.12525839  0.38472612  0.42334419  1  0  0.147008  0  0.941029  0  0  0.161288  0  0.99769  0  0  0.164226  0  0.996061  0  0  0.101002  0.159178  0  0.99899  0
H  H33  1  0.20090599  0.96129743  0.57674970  1  0  0.148365  0  0.93954  0  0  0.162243  0  0.996588  0  0  0.165153  0  0.994997  0  0  0.1009  0.160146  0  0.997859  0
H  H34  1  0.62526212  0.42334405  0.38472739  1  0  0.146972  0  0.941027  0  0  0.161244  0  0.997697  0  0  0.16418  0  0.99607  0  0  0.100972  0.159129  0  0.998994  0
H  H35  1  0.24018863  0.61535628  0.03861486  1  0  0.147892  0  0.940048  0  0  0.162216  0  0.996568  0  0  0.165121  0  0.995015  0  0  0.101637  0.160158  0  0.997832  0
H  H36  1  0.66261775  0.13843678  0.69537078  1  0  0.116381  0  0.990259  0  0  0.124004  0  1.060974  0  0  0.126507  0  1.05957  0  0  0.088413  0.12228  0  1.062014  0
H  H37  1  0.52362592  0.55697194  0.86145312  1  0  0.115125  0  0.990695  0  0  0.123155  0  1.060984  0  0  0.12564  0  1.059574  0  0  0.087864  0.121406  0  1.062024  0
H  H38  1  0.96750663  0.30485864  0.44314072  1  0  0.115117  0  0.991121  0  0  0.122616  0  1.062004  0  0  0.125132  0  1.060565  0  0  0.087018  0.120851  0  1.063065  0
H  H39  1  0.02362939  0.86145572  0.55697326  1  0  0.115038  0  0.990774  0  0  0.123083  0  1.061048  0  0  0.125566  0  1.059641  0  0  0.087825  0.121332  0  1.062087  0
H  H40  1  0.46750773  0.44314252  0.30486189  1  0  0.115028  0  0.991213  0  0  0.122519  0  1.062111  0  0  0.125034  0  1.060674  0  0  0.086984  0.120755  0  1.063164  0
H  H41  1  0.16261650  0.69536841  0.13843465  1  0  0.116372  0  0.990296  0  0  0.123991  0  1.06101  0  0  0.126496  0  1.059607  0  0  0.088403  0.122266  0  1.062051  0
C  C42  1  0.93732601  0.40046779  0.00044151  1  0  0.144877  0  3.723862  0  0  0.112846  0  3.97743  0  0  0.122098  0  3.99516  0  0  0.04038  0.106817  0  3.965364  0
C  C43  1  0.53612713  0.60006612  0.59956720  1  0  0.14355  0  3.725436  0  0  0.11161  0  3.978728  0  0  0.12084  0  3.996439  0  0  0.040248  0.105581  0  3.966678  0
C  C44  1  0.93685791  0.99967120  0.40010400  1  0  0.145332  0  3.722707  0  0  0.113406  0  3.976409  0  0  0.122751  0  3.994057  0  0  0.041139  0.107296  0  3.964381  0
C  C45  1  0.03612871  0.59956901  0.60006525  1  0  0.143575  0  3.725429  0  0  0.111631  0  3.978709  0  0  0.120857  0  3.996419  0  0  0.040248  0.105601  0  3.966659  0
C  C46  1  0.43686154  0.40010684  0.99967326  1  0  0.145211  0  3.722614  0  0  0.113273  0  3.9763  0  0  0.122618  0  3.993943  0  0  0.041089  0.107163  0  3.964273  0
C  C47  1  0.43732549  0.00043944  0.40046525  1  0  0.145003  0  3.723781  0  0  0.112956  0  3.977342  0  0  0.122234  0  3.995079  0  0  0.040444  0.106927  0  3.965276  0
C  C48  1  0.88586754  0.30503565  0.90550683  1  0  -0.165105  0  3.70604  0  0  -0.182853  0  3.952918  0  0  -0.192262  0  3.974594  0  0  -0.095131  -0.176823  0  3.938571  0
C  C49  1  0.58030750  0.60057218  0.69499297  1  0  -0.165033  0  3.706487  0  0  -0.182212  0  3.953602  0  0  -0.191635  0  3.975228  0  0  -0.09484  -0.176188  0  3.939299  0
C  C50  1  0.98051015  0.09459447  0.39962462  1  0  -0.164808  0  3.704953  0  0  -0.182322  0  3.951771  0  0  -0.191674  0  3.973364  0  0  -0.094299  -0.176332  0  3.937506  0
C  C51  1  0.08030884  0.69499391  0.60057124  1  0  -0.165061  0  3.706542  0  0  -0.182244  0  3.953661  0  0  -0.191669  0  3.97529  0  0  -0.094836  -0.17622  0  3.939356  0
C  C52  1  0.48051336  0.39962579  0.09459872  1  0  -0.164864  0  3.704898  0  0  -0.18232  0  3.951673  0  0  -0.19167  0  3.973266  0  0  -0.094279  -0.176335  0  3.937404  0
C  C53  1  0.38587171  0.90550710  0.30503567  1  0  -0.165119  0  3.706146  0  0  -0.182864  0  3.953047  0  0  -0.192267  0  3.974707  0  0  -0.095131  -0.176835  0  3.9387  0
C  C54  1  0.91308171  0.21469101  0.90656773  1  0  0.088067  0  3.79832  0  0  0.10287  0  4.05406  0  0  0.111177  0  4.074403  0  0  0.008858  0.097396  0  4.040054  0
C  C55  1  0.69807269  0.69191688  0.78525421  1  0  0.08951  0  3.798752  0  0  0.103427  0  4.055622  0  0  0.111833  0  4.075806  0  0  0.008645  0.097903  0  4.0417  0
C  C56  1  0.00662806  0.09347229  0.30818470  1  0  0.088356  0  3.798328  0  0  0.103625  0  4.053486  0  0  0.111842  0  4.073917  0  0  0.009587  0.098153  0  4.039515  0
C  C57  1  0.19807377  0.78525625  0.69191661  1  0  0.089537  0  3.798683  0  0  0.103429  0  4.055597  0  0  0.111835  0  4.075782  0  0  0.008649  0.097905  0  4.041674  0
C  C58  1  0.50662907  0.30818581  0.09347385  1  0  0.088423  0  3.798247  0  0  0.103662  0  4.053417  0  0  0.111878  0  4.073847  0  0  0.009588  0.098204  0  4.039426  0
C  C59  1  0.41307784  0.90656520  0.21468900  1  0  0.088101  0  3.798091  0  0  0.102875  0  4.053885  0  0  0.111183  0  4.074225  0  0  0.008919  0.0974  0  4.039878  0
C  C60  1  0.99073350  0.22682588  0.00630539  1  0  -0.177247  0  3.736867  0  0  -0.19292  0  3.981078  0  0  -0.201918  0  4.000883  0  0  -0.09458  -0.187081  0  3.967794  0
C  C61  1  0.76365403  0.77946237  0.77305098  1  0  -0.178737  0  3.736879  0  0  -0.194001  0  3.981019  0  0  -0.203036  0  4.000821  0  0  -0.094585  -0.188094  0  3.967729  0
C  C62  1  0.98451854  0.99368350  0.22056262  1  0  -0.179446  0  3.739421  0  0  -0.195122  0  3.983121  0  0  -0.204121  0  4.003018  0  0  -0.095731  -0.189272  0  3.969813  0
C  C63  1  0.26365621  0.77305204  0.77946204  1  0  -0.178766  0  3.736862  0  0  -0.194027  0  3.981008  0  0  -0.203063  0  4.000803  0  0  -0.094613  -0.188121  0  3.96772  0
C  C64  1  0.48452058  0.22056472  0.99368805  1  0  -0.179502  0  3.739317  0  0  -0.1952  0  3.983047  0  0  -0.204198  0  4.002941  0  0  -0.095799  -0.189355  0  3.969736  0
C  C65  1  0.49072802  0.00630100  0.22682245  1  0  -0.177131  0  3.736837  0  0  -0.192814  0  3.981055  0  0  -0.201813  0  4.000863  0  0  -0.094593  -0.186979  0  3.967779  0
C  C66  1  0.03609546  0.32514794  0.09740897  1  0  0.136581  0  3.739691  0  0  0.10485  0  3.995721  0  0  0.11402  0  4.013346  0  0  0.037332  0.098883  0  3.983615  0
C  C67  1  0.71059100  0.77221656  0.67473960  1  0  0.136314  0  3.740104  0  0  0.104531  0  3.995962  0  0  0.113687  0  4.0136  0  0  0.03857  0.098615  0  3.983806  0
C  C68  1  0.93878247  0.90260193  0.22779249  1  0  0.136344  0  3.740148  0  0  0.10498  0  3.99592  0  0  0.114152  0  4.013494  0  0  0.039088  0.099043  0  3.983778  0
C  C69  1  0.21059240  0.67474093  0.77221615  1  0  0.136419  0  3.74005  0  0  0.104638  0  3.995908  0  0  0.113795  0  4.013545  0  0  0.038578  0.098718  0  3.983749  0
C  C70  1  0.43878361  0.22779394  0.90260500  1  0  0.136422  0  3.740085  0  0  0.105066  0  3.995839  0  0  0.114237  0  4.013416  0  0  0.039171  0.099126  0  3.983702  0
C  C71  1  0.53609196  0.09740640  0.32514413  1  0  0.136458  0  3.739819  0  0  0.104716  0  3.995868  0  0  0.113884  0  4.013497  0  0  0.037232  0.098748  0  3.98376  0
C  C72  1  0.77723107  0.11644658  0.68849398  1  0  -0.328226  0  3.639812  0  0  -0.357621  0  3.887452  0  0  -0.363375  0  3.893399  0  0  -0.161794  -0.353882  0  3.883519  0
C  C73  1  0.66016137  0.57198916  0.88344345  1  0  -0.328852  0  3.640093  0  0  -0.357603  0  3.886483  0  0  -0.363396  0  3.892602  0  0  -0.161137  -0.353586  0  3.882044  0
C  C74  1  0.08900226  0.31162569  0.42803399  1  0  -0.325673  0  3.64073  0  0  -0.354764  0  3.887938  0  0  -0.360586  0  3.89405  0  0  -0.160551  -0.350781  0  3.883606  0
C  C75  1  0.16016526  0.88344624  0.57199112  1  0  -0.328755  0  3.640058  0  0  -0.357473  0  3.886403  0  0  -0.363271  0  3.892535  0  0  -0.161076  -0.353451  0  3.881956  0
C  C76  1  0.58900379  0.42803479  0.31162735  1  0  -0.325547  0  3.640747  0  0  -0.354609  0  3.887915  0  0  -0.360433  0  3.894042  0  0  -0.160492  -0.350597  0  3.883537  0
C  C77  1  0.27722902  0.68849156  0.11644497  1  0  -0.328126  0  3.639799  0  0  -0.357476  0  3.887403  0  0  -0.363241  0  3.893363  0  0  -0.161738  -0.353737  0  3.883467  0
C  C78  1  0.90546169  0.19788297  0.67995176  1  0  0.724951  0  3.842009  0  0  0.67596  0  4.138636  0  0  0.711103  0  4.131406  0  0  0.206902  0.652043  0  4.142697  0
C  C79  1  0.70701228  0.48188206  0.80202156  1  0  0.731418  0  3.836336  0  0  0.682164  0  4.133316  0  0  0.71731  0  4.125953  0  0  0.210008  0.658197  0  4.137484  0
C  C80  1  0.22555136  0.32002007  0.51802563  1  0  0.726985  0  3.834549  0  0  0.678001  0  4.131064  0  0  0.713106  0  4.123833  0  0  0.210116  0.65408  0  4.135144  0
C  C81  1  0.20701588  0.80202435  0.48188388  1  0  0.731377  0  3.836411  0  0  0.682067  0  4.133484  0  0  0.717214  0  4.126123  0  0  0.209947  0.658098  0  4.137652  0
C  C82  1  0.72555042  0.51802535  0.32001966  1  0  0.72699  0  3.834565  0  0  0.678009  0  4.131073  0  0  0.713116  0  4.123843  0  0  0.210148  0.65408  0  4.135152  0
C  C83  1  0.40546071  0.67995059  0.19788203  1  0  0.724973  0  3.841917  0  0  0.675959  0  4.138569  0  0  0.711107  0  4.131339  0  0  0.206918  0.652041  0  4.142631  0
S  S84  1  0.85832683  0.09056394  0.79337972  1  0  0.054588  0  2.385645  0  0  0.048358  0  2.698799  0  0  0.043056  0  2.699117  0  0  0.025263  0.05224  0  2.698746  0
S  S85  1  0.76744838  0.70272983  0.90930625  1  0  0.053687  0  2.384862  0  0  0.047463  0  2.698047  0  0  0.042156  0  2.698332  0  0  0.0251  0.051266  0  2.697917  0
S  S86  1  0.06513790  0.20662707  0.29723601  1  0  0.054015  0  2.385549  0  0  0.047475  0  2.6984  0  0  0.042257  0  2.698726  0  0  0.025601  0.051287  0  2.698265  0
S  S87  1  0.26745116  0.90930711  0.70273103  1  0  0.053713  0  2.38483  0  0  0.047488  0  2.698023  0  0  0.042185  0  2.698306  0  0  0.025132  0.05129  0  2.697891  0
S  S88  1  0.56513578  0.29723604  0.20662845  1  0  0.053977  0  2.385487  0  0  0.047438  0  2.698331  0  0  0.042215  0  2.698666  0  0  0.025591  0.051236  0  2.698181  0
S  S89  1  0.35832088  0.79337640  0.09056058  1  0  0.054553  0  2.385583  0  0  0.048323  0  2.698736  0  0  0.043025  0  2.699055  0  0  0.025244  0.052209  0  2.69868  0
N  N90  1  0.01095108  0.41177890  0.09552752  1  0  -0.357014  0  3.267855  0  0  -0.279642  0  3.534749  0  0  -0.301357  0  3.553484  0  0  -0.343154  -0.264841  0  3.521616  0
N  N91  1  0.59860132  0.68377257  0.58818554  1  0  -0.355676  0  3.269548  0  0  -0.278279  0  3.536333  0  0  -0.299993  0  3.555099  0  0  -0.343361  -0.263483  0  3.523184  0
N  N92  1  0.91541317  0.90453968  0.31631842  1  0  -0.356712  0  3.267153  0  0  -0.279896  0  3.534709  0  0  -0.301586  0  3.553398  0  0  -0.344945  -0.265109  0  3.521616  0
N  N93  1  0.09860216  0.58818790  0.68377178  1  0  -0.355732  0  3.269503  0  0  -0.278318  0  3.536273  0  0  -0.300034  0  3.555038  0  0  -0.343349  -0.263522  0  3.523124  0
N  N94  1  0.41541671  0.31632028  0.90454246  1  0  -0.356632  0  3.267129  0  0  -0.279817  0  3.534671  0  0  -0.301507  0  3.553359  0  0  -0.344925  -0.265029  0  3.521577  0
N  N95  1  0.51094928  0.09552678  0.41177676  1  0  -0.357048  0  3.267879  0  0  -0.279692  0  3.534813  0  0  -0.301403  0  3.553531  0  0  -0.34314  -0.264889  0  3.521679  0
Cl  Cl96  1  0.37262473  0.14490258  0.63117484  1  0  -0.549819  0  1.024521  0  0  -0.483125  0  1.30775  0  0  -0.502245  0  1.282905  0  0  -0.260578  -0.469505  0  1.324753  0
Cl  Cl97  1  0.22735731  0.48610671  0.85500594  1  0  -0.549503  0  1.025168  0  0  -0.483114  0  1.308542  0  0  -0.502205  0  1.283696  0  0  -0.260476  -0.469508  0  1.325546  0
Cl  Cl98  1  0.74144889  0.36877151  0.51385178  1  0  -0.549786  0  1.025816  0  0  -0.482857  0  1.308865  0  0  -0.502027  0  1.28409  0  0  -0.260256  -0.469214  0  1.325825  0
Cl  Cl99  1  0.72735854  0.85500585  0.48610680  1  0  -0.5495  0  1.025184  0  0  -0.483129  0  1.308585  0  0  -0.502222  0  1.283738  0  0  -0.260479  -0.46951  0  1.325566  0
Cl  Cl100  1  0.24144825  0.51385282  0.36877234  1  0  -0.549794  0  1.025835  0  0  -0.482867  0  1.308884  0  0  -0.502039  0  1.284109  0  0  -0.260265  -0.469224  0  1.325846  0
Cl  Cl101  1  0.87262373  0.63117571  0.14490251  1  0  -0.549822  0  1.024519  0  0  -0.483131  0  1.307744  0  0  -0.502257  0  1.282904  0  0  -0.260582  -0.46951  0  1.324746  0
O  O102  1  0.84686185  0.25593608  0.64713008  1  0  -0.694685  0  2.096456  0  0  -0.615754  0  2.371633  0  0  -0.648657  0  2.357828  0  0  -0.336645  -0.592455  0  2.380051  0
O  O103  1  0.59030469  0.39107080  0.74386475  1  0  -0.69787  0  2.097016  0  0  -0.618529  0  2.372073  0  0  -0.651475  0  2.358288  0  0  -0.337386  -0.595218  0  2.380494  0
O  O104  1  0.19949327  0.35269484  0.60883489  1  0  -0.695897  0  2.093755  0  0  -0.616458  0  2.368097  0  0  -0.649401  0  2.354416  0  0  -0.33805  -0.593122  0  2.376378  0
O  O105  1  0.09030589  0.74386636  0.39107252  1  0  -0.697883  0  2.097073  0  0  -0.618499  0  2.372102  0  0  -0.651446  0  2.358317  0  0  -0.337366  -0.59519  0  2.38053  0
O  O106  1  0.69949486  0.60883439  0.35269557  1  0  -0.695867  0  2.093731  0  0  -0.616459  0  2.36812  0  0  -0.649386  0  2.354398  0  0  -0.338052  -0.593134  0  2.376431  0
O  O107  1  0.34686186  0.64713021  0.25593598  1  0  -0.694718  0  2.096409  0  0  -0.615797  0  2.371631  0  0  -0.648689  0  2.357793  0  0  -0.33666  -0.592498  0  2.380049  0
O  O108  1  0.05667972  0.20244255  0.70422043  1  0  -0.620657  0  2.059625  0  0  -0.56241  0  2.317083  0  0  -0.590899  0  2.307718  0  0  -0.320873  -0.542433  0  2.322721  0
O  O109  1  0.85374683  0.50142206  0.79754885  1  0  -0.622963  0  2.056387  0  0  -0.564811  0  2.314174  0  0  -0.5933  0  2.304756  0  0  -0.322069  -0.54484  0  2.319874  0
O  O110  1  0.35259852  0.29579316  0.49839887  1  0  -0.621897  0  2.056  0  0  -0.563732  0  2.31356  0  0  -0.592201  0  2.304189  0  0  -0.322389  -0.543773  0  2.319221  0
O  O111  1  0.35375012  0.79755091  0.50142286  1  0  -0.622933  0  2.056417  0  0  -0.564778  0  2.314251  0  0  -0.593268  0  2.304837  0  0  -0.322049  -0.544808  0  2.31995  0
O  O112  1  0.85259849  0.49839690  0.29579169  1  0  -0.621909  0  2.055961  0  0  -0.56375  0  2.313522  0  0  -0.59222  0  2.304149  0  0  -0.322418  -0.543791  0  2.319189  0
O  O113  1  0.55667911  0.70421980  0.20244151  1  0  -0.620663  0  2.059569  0  0  -0.562404  0  2.317028  0  0  -0.590896  0  2.307664  0  0  -0.320891  -0.542427  0  2.322666  0
