# generated using pymatgen
data_CdH9C4NO6
_symmetry_space_group_name_H-M   'P 1'
_cell_length_a   5.44654828
_cell_length_b   9.74561867
_cell_length_c   14.77767096
_cell_angle_alpha   89.99854621
_cell_angle_beta   89.99827815
_cell_angle_gamma   89.99934971
_symmetry_Int_Tables_number   1
_chemical_formula_structural   CdH9C4NO6
_chemical_formula_sum   'Cd4 H36 C16 N4 O24'
_cell_volume   784.39851639
_cell_formula_units_Z   4
loop_
 _symmetry_equiv_pos_site_id
 _symmetry_equiv_pos_as_xyz
  1  'x, y, z'
loop_
 _atom_site_type_symbol
 _atom_site_label
 _atom_site_symmetry_multiplicity
 _atom_site_fract_x
 _atom_site_fract_y
 _atom_site_fract_z
 _atom_site_occupancy
 _atom_site_hle17_bader_spin_density
 _atom_site_hle17_ddec_charge
 _atom_site_hle17_ddec_spin_density
 _atom_site_hle17_ddec_sum_bond_order
 _atom_site_hle17_magmom
 _atom_site_hse06_10hf_bader_spin_density
 _atom_site_hse06_10hf_ddec_charge
 _atom_site_hse06_10hf_ddec_spin_density
 _atom_site_hse06_10hf_ddec_sum_bond_order
 _atom_site_hse06_10hf_magmom
 _atom_site_hse06_bader_spin_density
 _atom_site_hse06_ddec_charge
 _atom_site_hse06_ddec_spin_density
 _atom_site_hse06_ddec_sum_bond_order
 _atom_site_hse06_magmom
 _atom_site_pbe_bader_spin_density
 _atom_site_pbe_cm5_charge
 _atom_site_pbe_ddec_charge
 _atom_site_pbe_ddec_spin_density
 _atom_site_pbe_ddec_sum_bond_order
 _atom_site_pbe_magmom
Cd  Cd0  1  0.15826829  0.74156266  0.05151045  1  0  1.203469  0  1.600424  0  0  1.01872  0  2.038043  0  0  1.074195  0  1.982748  0  0  0.765936  0.979227  0  2.075892  0
Cd  Cd1  1  0.84173723  0.24156558  0.94848871  1  0  1.203451  0  1.600465  0  0  1.018724  0  2.038103  0  0  1.074197  0  1.982811  0  0  0.765897  0.979232  0  2.07595  0
Cd  Cd2  1  0.84171468  0.74157316  0.55149836  1  0  1.203346  0  1.600735  0  0  1.018711  0  2.038326  0  0  1.074174  0  1.98303  0  0  0.765898  0.979221  0  2.076174  0
Cd  Cd3  1  0.15829085  0.24156944  0.44850148  1  0  1.203362  0  1.600687  0  0  1.018672  0  2.038328  0  0  1.07414  0  1.983029  0  0  0.76589  0.979181  0  2.076175  0
H  H4  1  0.59498343  0.62488723  0.12955121  1  0  0.425046  0  0.879288  0  0  0.389542  0  0.950039  0  0  0.401834  0  0.932193  0  0  0.284476  0.380871  0  0.962579  0
H  H5  1  0.40504714  0.12489204  0.87044926  1  0  0.425024  0  0.879344  0  0  0.38951  0  0.950111  0  0  0.401803  0  0.932264  0  0  0.284469  0.380837  0  0.962657  0
H  H6  1  0.40501976  0.62490078  0.62954846  1  0  0.424983  0  0.879409  0  0  0.389542  0  0.950074  0  0  0.401831  0  0.93223  0  0  0.284434  0.380868  0  0.962621  0
H  H7  1  0.59497408  0.12490312  0.37045472  1  0  0.424893  0  0.879542  0  0  0.389439  0  0.950223  0  0  0.401728  0  0.932379  0  0  0.284383  0.380766  0  0.962768  0
H  H8  1  0.47062959  0.49757795  0.07836558  1  0  0.425499  0  0.875414  0  0  0.396196  0  0.935721  0  0  0.407126  0  0.919891  0  0  0.286845  0.388457  0  0.946899  0
H  H9  1  0.52939136  0.99758141  0.92163735  1  0  0.425514  0  0.875406  0  0  0.396221  0  0.935687  0  0  0.407148  0  0.919862  0  0  0.286879  0.388483  0  0.946863  0
H  H10  1  0.52937942  0.49759810  0.57835881  1  0  0.425382  0  0.875583  0  0  0.396107  0  0.935837  0  0  0.407035  0  0.920012  0  0  0.286804  0.388368  0  0.947016  0
H  H11  1  0.47064154  0.99758691  0.42163735  1  0  0.425582  0  0.875301  0  0  0.396244  0  0.935696  0  0  0.407178  0  0.919854  0  0  0.286822  0.388506  0  0.946875  0
H  H12  1  0.36919289  0.81705315  0.88450194  1  0  0.430414  0  0.877603  0  0  0.393989  0  0.949767  0  0  0.405888  0  0.932772  0  0  0.291682  0.38568  0  0.961554  0
H  H13  1  0.63081069  0.31704241  0.11549662  1  0  0.430354  0  0.877658  0  0  0.39389  0  0.949896  0  0  0.405797  0  0.932892  0  0  0.291604  0.385578  0  0.961687  0
H  H14  1  0.63079091  0.81704457  0.38450025  1  0  0.430401  0  0.877609  0  0  0.393932  0  0.949851  0  0  0.405838  0  0.932849  0  0  0.291672  0.385622  0  0.961641  0
H  H15  1  0.36919981  0.31706023  0.61549830  1  0  0.430436  0  0.877556  0  0  0.393975  0  0.949792  0  0  0.405872  0  0.932799  0  0  0.291659  0.385668  0  0.961578  0
H  H16  1  0.59845331  0.77960485  0.94777015  1  0  0.426246  0  0.877921  0  0  0.392339  0  0.945415  0  0  0.403856  0  0.928983  0  0  0.291577  0.384325  0  0.956785  0
H  H17  1  0.40155675  0.27959757  0.05223445  1  0  0.426234  0  0.877938  0  0  0.392327  0  0.945432  0  0  0.403846  0  0.928999  0  0  0.291522  0.384311  0  0.956805  0
H  H18  1  0.40152974  0.77961478  0.44776953  1  0  0.42624  0  0.877928  0  0  0.392347  0  0.945398  0  0  0.403865  0  0.928966  0  0  0.291563  0.384331  0  0.956769  0
H  H19  1  0.59845094  0.27961227  0.55222560  1  0  0.426217  0  0.877964  0  0  0.392317  0  0.945447  0  0  0.40383  0  0.929021  0  0  0.291525  0.384303  0  0.956815  0
H  H20  1  0.42520931  0.84167899  0.20570299  1  0  0.259414  0  0.959233  0  0  0.249222  0  1.014102  0  0  0.255308  0  1.011031  0  0  0.290262  0.244872  0  1.016355  0
H  H21  1  0.57478262  0.34169205  0.79429853  1  0  0.259345  0  0.959328  0  0  0.24918  0  1.014197  0  0  0.255266  0  1.011124  0  0  0.290267  0.244829  0  1.016449  0
H  H22  1  0.57474507  0.84169072  0.70569980  1  0  0.259383  0  0.959111  0  0  0.249247  0  1.013972  0  0  0.255333  0  1.010899  0  0  0.290295  0.244896  0  1.016225  0
H  H23  1  0.42524870  0.34168750  0.29430104  1  0  0.259361  0  0.959161  0  0  0.249219  0  1.014027  0  0  0.255305  0  1.010953  0  0  0.290281  0.244867  0  1.016286  0
H  H24  1  0.99825261  0.97915485  0.25859009  1  0  0.109138  0  0.927207  0  0  0.123764  0  0.985945  0  0  0.125649  0  0.985317  0  0  0.114621  0.122321  0  0.986522  0
H  H25  1  0.00173393  0.47916641  0.74139962  1  0  0.109176  0  0.927064  0  0  0.12372  0  0.98591  0  0  0.125608  0  0.985284  0  0  0.114583  0.122278  0  0.986488  0
H  H26  1  0.00173960  0.97916000  0.75858482  1  0  0.109099  0  0.926952  0  0  0.12368  0  0.985828  0  0  0.125573  0  0.985196  0  0  0.114556  0.122234  0  0.986404  0
H  H27  1  0.99824695  0.47915100  0.24141165  1  0  0.109015  0  0.927031  0  0  0.123681  0  0.985806  0  0  0.125572  0  0.985177  0  0  0.114569  0.122236  0  0.986385  0
H  H28  1  0.15169025  0.84326602  0.31158173  1  0  0.112064  0  0.932894  0  0  0.125054  0  0.994741  0  0  0.1277  0  0.993074  0  0  0.116315  0.123035  0  0.996203  0
H  H29  1  0.84830163  0.34326541  0.68841976  1  0  0.112046  0  0.933033  0  0  0.125032  0  0.994859  0  0  0.127693  0  0.993176  0  0  0.11629  0.123022  0  0.996309  0
H  H30  1  0.84827891  0.84325494  0.81157633  1  0  0.112108  0  0.932943  0  0  0.125152  0  0.994764  0  0  0.127766  0  0.993136  0  0  0.116356  0.123137  0  0.996215  0
H  H31  1  0.15170380  0.34324366  0.18842990  1  0  0.112033  0  0.9331  0  0  0.125088  0  0.994913  0  0  0.127714  0  0.993274  0  0  0.116311  0.123075  0  0.996364  0
H  H32  1  0.49668970  0.01540173  0.10528921  1  0  0.112275  0  0.9126  0  0  0.127874  0  0.972412  0  0  0.129873  0  0.97133  0  0  0.118657  0.126365  0  0.973302  0
H  H33  1  0.50332350  0.51540017  0.89471176  1  0  0.112216  0  0.912645  0  0  0.127833  0  0.972466  0  0  0.129836  0  0.97138  0  0  0.1186  0.126326  0  0.973366  0
H  H34  1  0.50330742  0.01540866  0.60527798  1  0  0.112479  0  0.912441  0  0  0.12796  0  0.972397  0  0  0.12996  0  0.971312  0  0  0.118644  0.126457  0  0.973291  0
H  H35  1  0.49669292  0.51539939  0.39471352  1  0  0.112395  0  0.912484  0  0  0.127968  0  0.972339  0  0  0.129967  0  0.971256  0  0  0.118689  0.126461  0  0.973235  0
H  H36  1  0.34313799  0.09441124  0.19674355  1  0  0.104893  0  0.927944  0  0  0.114948  0  0.995866  0  0  0.117836  0  0.993459  0  0  0.108452  0.112758  0  0.997683  0
H  H37  1  0.65686215  0.59442373  0.80326421  1  0  0.104834  0  0.927944  0  0  0.114945  0  0.99583  0  0  0.117832  0  0.993424  0  0  0.108451  0.112755  0  0.997645  0
H  H38  1  0.65682725  0.09441747  0.69672596  1  0  0.104793  0  0.928292  0  0  0.114961  0  0.996066  0  0  0.117843  0  0.993663  0  0  0.108458  0.112772  0  0.997883  0
H  H39  1  0.34316922  0.59441442  0.30326759  1  0  0.104829  0  0.928204  0  0  0.114913  0  0.996094  0  0  0.117794  0  0.993692  0  0  0.108442  0.112722  0  0.99791  0
C  C40  1  0.85882325  0.78050958  0.22727296  1  0  0.692741  0  3.830145  0  0  0.634702  0  4.143187  0  0  0.667857  0  4.136224  0  0  0.216401  0.612137  0  4.147294  0
C  C41  1  0.14118311  0.28051520  0.77272825  1  0  0.692777  0  3.830131  0  0  0.634807  0  4.14306  0  0  0.667969  0  4.136087  0  0  0.216486  0.612241  0  4.147169  0
C  C42  1  0.14114922  0.78050177  0.72726826  1  0  0.692726  0  3.830309  0  0  0.634863  0  4.143217  0  0  0.668028  0  4.136238  0  0  0.216614  0.612291  0  4.147324  0
C  C43  1  0.85885163  0.28049428  0.27273363  1  0  0.692649  0  3.830439  0  0  0.63481  0  4.143304  0  0  0.667973  0  4.136336  0  0  0.216573  0.612241  0  4.147409  0
C  C44  1  0.07436474  0.87632434  0.24625763  1  0  -0.14388  0  3.641509  0  0  -0.196446  0  3.896233  0  0  -0.197951  0  3.904299  0  0  -0.075607  -0.195393  0  3.890917  0
C  C45  1  0.92563363  0.37633219  0.75373789  1  0  -0.143871  0  3.641297  0  0  -0.196348  0  3.895972  0  0  -0.197872  0  3.904041  0  0  -0.075514  -0.195302  0  3.890654  0
C  C46  1  0.92560180  0.87632625  0.74625276  1  0  -0.143962  0  3.641009  0  0  -0.196626  0  3.895996  0  0  -0.198106  0  3.904058  0  0  -0.075699  -0.195562  0  3.89066  0
C  C47  1  0.07438740  0.37632003  0.25374952  1  0  -0.143712  0  3.641175  0  0  -0.196481  0  3.896212  0  0  -0.197985  0  3.904301  0  0  -0.075626  -0.195425  0  3.890883  0
C  C48  1  0.32050862  0.01852387  0.14208820  1  0  -0.140718  0  3.662641  0  0  -0.195971  0  3.92216  0  0  -0.197359  0  3.929992  0  0  -0.075429  -0.194946  0  3.916663  0
C  C49  1  0.67949716  0.51852802  0.85791746  1  0  -0.140651  0  3.662401  0  0  -0.195978  0  3.922038  0  0  -0.197364  0  3.929861  0  0  -0.075468  -0.19496  0  3.916549  0
C  C50  1  0.67947427  0.01853409  0.64207173  1  0  -0.140899  0  3.662898  0  0  -0.196175  0  3.922481  0  0  -0.197558  0  3.930298  0  0  -0.075445  -0.195164  0  3.917013  0
C  C51  1  0.32052416  0.51852908  0.35792243  1  0  -0.140925  0  3.662858  0  0  -0.19619  0  3.922414  0  0  -0.197574  0  3.930231  0  0  -0.075525  -0.195165  0  3.91693  0
C  C52  1  0.12549555  0.06854190  0.07561960  1  0  0.668926  0  3.868534  0  0  0.617168  0  4.173128  0  0  0.649927  0  4.168562  0  0  0.202682  0.594921  0  4.175427  0
C  C53  1  0.87450158  0.56854982  0.92438521  1  0  0.668777  0  3.868227  0  0  0.617017  0  4.17286  0  0  0.649774  0  4.168288  0  0  0.202628  0.594768  0  4.175156  0
C  C54  1  0.87447886  0.06855840  0.57561190  1  0  0.668888  0  3.868248  0  0  0.617218  0  4.172712  0  0  0.649971  0  4.16814  0  0  0.202639  0.59497  0  4.175013  0
C  C55  1  0.12552195  0.56855281  0.42438209  1  0  0.668925  0  3.868279  0  0  0.617263  0  4.172748  0  0  0.650025  0  4.168172  0  0  0.202672  0.595011  0  4.175052  0
N  N56  1  0.26811789  0.88066152  0.17674967  1  0  -0.393609  0  3.269423  0  0  -0.320497  0  3.515035  0  0  -0.339912  0  3.528528  0  0  -0.492007  -0.307154  0  3.505484  0
N  N57  1  0.73187854  0.38066661  0.82325322  1  0  -0.393513  0  3.269181  0  0  -0.320487  0  3.514889  0  0  -0.339897  0  3.52838  0  0  -0.491964  -0.307145  0  3.505341  0
N  N58  1  0.73184713  0.88066432  0.67674144  1  0  -0.393476  0  3.268628  0  0  -0.320487  0  3.514446  0  0  -0.339889  0  3.527927  0  0  -0.492018  -0.307149  0  3.504891  0
N  N59  1  0.26814746  0.38066689  0.32325603  1  0  -0.393349  0  3.268666  0  0  -0.320326  0  3.514457  0  0  -0.339729  0  3.527943  0  0  -0.491933  -0.306989  0  3.504901  0
O  O60  1  0.86148025  0.69960373  0.15935427  1  0  -0.651927  0  2.061744  0  0  -0.573348  0  2.306509  0  0  -0.603295  0  2.294317  0  0  -0.314874  -0.552379  0  2.314174  0
O  O61  1  0.13852819  0.19959756  0.84064763  1  0  -0.651977  0  2.061554  0  0  -0.573399  0  2.30627  0  0  -0.603362  0  2.294088  0  0  -0.314898  -0.552433  0  2.313949  0
O  O62  1  0.13849093  0.69960312  0.65933944  1  0  -0.65183  0  2.061618  0  0  -0.573334  0  2.306349  0  0  -0.603296  0  2.294182  0  0  -0.314851  -0.552357  0  2.314001  0
O  O63  1  0.86150834  0.19959510  0.34066517  1  0  -0.65185  0  2.061469  0  0  -0.573364  0  2.306229  0  0  -0.603315  0  2.294041  0  0  -0.314871  -0.552388  0  2.313878  0
O  O64  1  0.67891243  0.78560869  0.28149621  1  0  -0.635492  0  2.003594  0  0  -0.574881  0  2.230532  0  0  -0.599807  0  2.220033  0  0  -0.318878  -0.557515  0  2.237123  0
O  O65  1  0.32109930  0.28562991  0.71850829  1  0  -0.635423  0  2.003801  0  0  -0.574899  0  2.230768  0  0  -0.599814  0  2.220255  0  0  -0.318962  -0.557536  0  2.237362  0
O  O66  1  0.32104426  0.78560313  0.78149570  1  0  -0.635456  0  2.003735  0  0  -0.575002  0  2.230686  0  0  -0.59992  0  2.220179  0  0  -0.319022  -0.557637  0  2.237281  0
O  O67  1  0.67895095  0.28558930  0.21851016  1  0  -0.63545  0  2.0039  0  0  -0.574969  0  2.230823  0  0  -0.599895  0  2.220318  0  0  -0.319005  -0.557606  0  2.237418  0
O  O68  1  0.13418833  0.19762386  0.05543463  1  0  -0.671601  0  2.053801  0  0  -0.591247  0  2.296897  0  0  -0.622467  0  2.285752  0  0  -0.324489  -0.569444  0  2.303681  0
O  O69  1  0.86579630  0.69762181  0.94457002  1  0  -0.671472  0  2.054208  0  0  -0.591042  0  2.297187  0  0  -0.622266  0  2.286075  0  0  -0.324448  -0.569242  0  2.303974  0
O  O70  1  0.86582120  0.19763424  0.55543987  1  0  -0.671474  0  2.054282  0  0  -0.591049  0  2.297179  0  0  -0.622278  0  2.286099  0  0  -0.324399  -0.569258  0  2.303969  0
O  O71  1  0.13417995  0.69762579  0.44456748  1  0  -0.671449  0  2.054226  0  0  -0.591076  0  2.297204  0  0  -0.622295  0  2.28607  0  0  -0.324423  -0.56928  0  2.303994  0
O  O72  1  0.96961788  0.98749608  0.04301019  1  0  -0.622643  0  1.921019  0  0  -0.560707  0  2.148986  0  0  -0.587021  0  2.139697  0  0  -0.31624  -0.542295  0  2.154697  0
O  O73  1  0.03039415  0.48748908  0.95700374  1  0  -0.62271  0  1.920437  0  0  -0.560726  0  2.148322  0  0  -0.587071  0  2.139085  0  0  -0.316213  -0.542312  0  2.154035  0
O  O74  1  0.03036315  0.98748263  0.54298973  1  0  -0.622777  0  1.920219  0  0  -0.560828  0  2.148081  0  0  -0.587165  0  2.138825  0  0  -0.316306  -0.542412  0  2.153793  0
O  O75  1  0.96961951  0.48748304  0.45699713  1  0  -0.622793  0  1.920333  0  0  -0.560891  0  2.148249  0  0  -0.587217  0  2.13897  0  0  -0.316301  -0.542476  0  2.153964  0
O  O76  1  0.43445563  0.58654770  0.10835757  1  0  -0.860145  0  1.866222  0  0  -0.796824  0  2.074121  0  0  -0.819565  0  2.037095  0  0  -0.599539  -0.780727  0  2.099721  0
O  O77  1  0.56555940  0.08655097  0.89164423  1  0  -0.860146  0  1.866262  0  0  -0.796778  0  2.07411  0  0  -0.819519  0  2.03709  0  0  -0.599564  -0.78068  0  2.09971  0
O  O78  1  0.56552832  0.58655845  0.60835650  1  0  -0.859995  0  1.866559  0  0  -0.796675  0  2.074258  0  0  -0.819412  0  2.037244  0  0  -0.599458  -0.78058  0  2.099859  0
O  O79  1  0.43447019  0.08655868  0.39165003  1  0  -0.860112  0  1.866392  0  0  -0.796747  0  2.074092  0  0  -0.819488  0  2.037074  0  0  -0.599447  -0.780654  0  2.099686  0
O  O80  1  0.43818234  0.83099653  0.94753710  1  0  -0.850068  0  1.900145  0  0  -0.773588  0  2.09776  0  0  -0.799659  0  2.062865  0  0  -0.570779  -0.755095  0  2.121574  0
O  O81  1  0.56182639  0.33099157  0.05245919  1  0  -0.84999  0  1.900235  0  0  -0.773468  0  2.097859  0  0  -0.799524  0  2.0629  0  0  -0.570666  -0.754976  0  2.121675  0
O  O82  1  0.56181592  0.83099545  0.44754359  1  0  -0.850027  0  1.900113  0  0  -0.773587  0  2.097856  0  0  -0.79964  0  2.062893  0  0  -0.570765  -0.755094  0  2.12167  0
O  O83  1  0.43817261  0.33100189  0.55245541  1  0  -0.850028  0  1.900151  0  0  -0.773591  0  2.097822  0  0  -0.799642  0  2.062916  0  0  -0.5707  -0.755103  0  2.121623  0
