# generated using pymatgen
data_LiH9C5O2
_symmetry_space_group_name_H-M   'P 1'
_cell_length_a   4.96602403
_cell_length_b   8.23692922
_cell_length_c   14.68208256
_cell_angle_alpha   88.42058706
_cell_angle_beta   90.00502245
_cell_angle_gamma   90.00785971
_symmetry_Int_Tables_number   1
_chemical_formula_structural   LiH9C5O2
_chemical_formula_sum   'Li4 H36 C20 O8'
_cell_volume   600.33930693
_cell_formula_units_Z   4
loop_
 _symmetry_equiv_pos_site_id
 _symmetry_equiv_pos_as_xyz
  1  'x, y, z'
loop_
 _atom_site_type_symbol
 _atom_site_label
 _atom_site_symmetry_multiplicity
 _atom_site_fract_x
 _atom_site_fract_y
 _atom_site_fract_z
 _atom_site_occupancy
 _atom_site_pbe_bader_spin_density
 _atom_site_pbe_cm5_charge
 _atom_site_pbe_ddec_charge
 _atom_site_pbe_ddec_spin_density
 _atom_site_pbe_ddec_sum_bond_order
 _atom_site_pbe_magmom
Li  Li0  1  0.09606193  0.64791068  0.00405877  1  0  0.536263  0.813857  0  0.523146  0
Li  Li1  1  0.59607319  0.85211778  0.99594506  1  0  0.53629  0.813863  0  0.523189  0
Li  Li2  1  0.90391916  0.35210127  0.99593253  1  0  0.536253  0.81387  0  0.523116  0
Li  Li3  1  0.40394213  0.14789911  0.00405926  1  0  0.536294  0.813832  0  0.523245  0
H  H4  1  0.59412634  0.63755006  0.83125691  1  0  0.119474  0.124938  0  0.985454  0
H  H5  1  0.09415461  0.86253568  0.16875850  1  0  0.119517  0.124907  0  0.985329  0
H  H6  1  0.40584670  0.36247180  0.16874610  1  0  0.119467  0.124879  0  0.985509  0
H  H7  1  0.90587279  0.13748804  0.83123703  1  0  0.119538  0.124976  0  0.985306  0
H  H8  1  0.12373506  0.64015414  0.77560315  1  0  0.096905  0.08802  0  0.995146  0
H  H9  1  0.62375822  0.85984965  0.22437593  1  0  0.096878  0.088025  0  0.995126  0
H  H10  1  0.87625207  0.35985715  0.22439564  1  0  0.096907  0.087993  0  0.99514  0
H  H11  1  0.37628328  0.14015194  0.77562275  1  0  0.096813  0.087929  0  0.995091  0
H  H12  1  0.15381199  0.44289663  0.73544616  1  0  0.088896  0.075374  0  1.007878  0
H  H13  1  0.65383626  0.05710311  0.26455085  1  0  0.088921  0.07541  0  1.007791  0
H  H14  1  0.84617112  0.55710893  0.26456279  1  0  0.088942  0.075401  0  1.007817  0
H  H15  1  0.34617705  0.94289437  0.73545323  1  0  0.088913  0.075365  0  1.007904  0
H  H16  1  0.99617826  0.53839614  0.57893706  1  0  0.082955  0.104418  0  1.034632  0
H  H17  1  0.49617246  0.96153724  0.42105206  1  0  0.082888  0.104326  0  1.034561  0
H  H18  1  0.00381289  0.46155264  0.42106848  1  0  0.082852  0.104328  0  1.034609  0
H  H19  1  0.50383278  0.03843633  0.57894764  1  0  0.082822  0.104233  0  1.034624  0
H  H20  1  0.46536618  0.73636314  0.65741331  1  0  0.082371  0.064076  0  1.015176  0
H  H21  1  0.96535175  0.76366457  0.34258161  1  0  0.082454  0.064162  0  1.015396  0
H  H22  1  0.53458470  0.26364402  0.34257725  1  0  0.082382  0.064078  0  1.01519  0
H  H23  1  0.03469579  0.23634303  0.65741782  1  0  0.082426  0.064141  0  1.015426  0
H  H24  1  0.16724060  0.69917512  0.52061147  1  0  0.084525  0.112131  0  1.027657  0
H  H25  1  0.66721156  0.80075455  0.47936619  1  0  0.084573  0.112113  0  1.027762  0
H  H26  1  0.83271027  0.30077813  0.47938458  1  0  0.084561  0.112144  0  1.027717  0
H  H27  1  0.33280979  0.19922175  0.52063014  1  0  0.08458  0.112148  0  1.027671  0
H  H28  1  0.66207241  0.45321787  0.77796620  1  0  0.101233  0.109523  0  0.998758  0
H  H29  1  0.16210217  0.04686546  0.22206049  1  0  0.101415  0.109849  0  0.99882  0
H  H30  1  0.33792882  0.54680660  0.22203480  1  0  0.101278  0.109552  0  0.998836  0
H  H31  1  0.83792323  0.95315027  0.77794313  1  0  0.101369  0.109726  0  0.998879  0
H  H32  1  0.96822429  0.73896226  0.61813893  1  0  0.082284  0.103624  0  1.031428  0
H  H33  1  0.46819838  0.76098465  0.38182162  1  0  0.082234  0.103625  0  1.031598  0
H  H34  1  0.03172255  0.26099359  0.38185511  1  0  0.082254  0.10367  0  1.031437  0
H  H35  1  0.53184311  0.23899327  0.61816995  1  0  0.082286  0.103602  0  1.031614  0
H  H36  1  0.49099669  0.53677785  0.61861876  1  0  0.084514  0.071895  0  0.999096  0
H  H37  1  0.99099366  0.96324208  0.38139458  1  0  0.084498  0.071861  0  0.998985  0
H  H38  1  0.50899447  0.46321835  0.38138599  1  0  0.084504  0.071823  0  0.999055  0
H  H39  1  0.00901562  0.03676256  0.61861096  1  0  0.084542  0.071909  0  0.999044  0
C  C40  1  0.40873024  0.43109348  0.89551429  1  0  0.252703  0.718009  0  4.112589  0
C  C41  1  0.90880077  0.06896045  0.10448975  1  0  0.252731  0.718141  0  4.113101  0
C  C42  1  0.59125286  0.56891672  0.10448312  1  0  0.252771  0.718133  0  4.112446  0
C  C43  1  0.09121858  0.93105904  0.89551255  1  0  0.252638  0.718027  0  4.112909  0
C  C44  1  0.50069169  0.52288120  0.80995117  1  0  -0.150457  -0.311602  0  3.901903  0
C  C45  1  0.00071944  0.97718695  0.19006165  1  0  -0.150543  -0.311887  0  3.902101  0
C  C46  1  0.49930149  0.47713599  0.19004974  1  0  -0.150484  -0.31159  0  3.901946  0
C  C47  1  0.99930595  0.02283139  0.80993995  1  0  -0.150553  -0.311913  0  3.902284  0
C  C48  1  0.26697340  0.55652940  0.74419283  1  0  -0.162494  -0.12177  0  3.938524  0
C  C49  1  0.76699253  0.94349070  0.25580128  1  0  -0.162664  -0.121895  0  3.938288  0
C  C50  1  0.73301172  0.44347929  0.25580797  1  0  -0.162541  -0.121777  0  3.938366  0
C  C51  1  0.23303689  0.05651435  0.74419948  1  0  -0.162507  -0.1216  0  3.938425  0
C  C52  1  0.35136543  0.62253310  0.65035611  1  0  -0.168223  -0.097871  0  3.972565  0
C  C53  1  0.85135924  0.87747541  0.34964158  1  0  -0.168225  -0.097986  0  3.972692  0
C  C54  1  0.64860961  0.37746121  0.34964247  1  0  -0.168245  -0.097777  0  3.972694  0
C  C55  1  0.14867017  0.12252600  0.65035914  1  0  -0.168208  -0.097994  0  3.972866  0
C  C56  1  0.10848880  0.65176533  0.58836204  1  0  -0.246911  -0.357522  0  3.96174  0
C  C57  1  0.60847703  0.84818752  0.41161706  1  0  -0.246807  -0.357285  0  3.9619  0
C  C58  1  0.89147617  0.34819387  0.41163545  1  0  -0.246801  -0.357479  0  3.961983  0
C  C59  1  0.39154835  0.15179478  0.58838002  1  0  -0.246874  -0.357291  0  3.961945  0
O  O60  1  0.17493612  0.46201212  0.92603207  1  0  -0.440757  -0.741168  0  2.219463  0
O  O61  1  0.67497331  0.03804770  0.07397120  1  0  -0.440552  -0.741201  0  2.219751  0
O  O62  1  0.82504497  0.53799941  0.07396399  1  0  -0.440694  -0.741186  0  2.219434  0
O  O63  1  0.32503799  0.96197271  0.92603453  1  0  -0.4405  -0.741093  0  2.219628  0
O  O64  1  0.56457170  0.32529395  0.93272759  1  0  -0.443322  -0.75592  0  2.201022  0
O  O65  1  0.06468837  0.17474021  0.06726883  1  0  -0.443551  -0.756026  0  2.201171  0
O  O66  1  0.43540536  0.67471170  0.06726636  1  0  -0.443451  -0.75604  0  2.200941  0
O  O67  1  0.93532091  0.82527819  0.93273209  1  0  -0.443548  -0.756026  0  2.200986  0
