# generated using pymatgen
data_Ag2H11PbC19N7
_symmetry_space_group_name_H-M   'P 1'
_cell_length_a   9.92288997
_cell_length_b   9.92298700
_cell_length_c   11.52680568
_cell_angle_alpha   98.52726028
_cell_angle_beta   98.52665649
_cell_angle_gamma   109.72174345
_symmetry_Int_Tables_number   1
_chemical_formula_structural   Ag2H11PbC19N7
_chemical_formula_sum   'Ag4 H22 Pb2 C38 N14'
_cell_volume   1032.34659668
_cell_formula_units_Z   2
loop_
 _symmetry_equiv_pos_site_id
 _symmetry_equiv_pos_as_xyz
  1  'x, y, z'
loop_
 _atom_site_type_symbol
 _atom_site_label
 _atom_site_symmetry_multiplicity
 _atom_site_fract_x
 _atom_site_fract_y
 _atom_site_fract_z
 _atom_site_occupancy
 _atom_site_hle17_bader_spin_density
 _atom_site_hle17_ddec_charge
 _atom_site_hle17_ddec_spin_density
 _atom_site_hle17_ddec_sum_bond_order
 _atom_site_hle17_magmom
 _atom_site_hse06_10hf_bader_spin_density
 _atom_site_hse06_10hf_ddec_charge
 _atom_site_hse06_10hf_ddec_spin_density
 _atom_site_hse06_10hf_ddec_sum_bond_order
 _atom_site_hse06_10hf_magmom
 _atom_site_hse06_bader_spin_density
 _atom_site_hse06_ddec_charge
 _atom_site_hse06_ddec_spin_density
 _atom_site_hse06_ddec_sum_bond_order
 _atom_site_hse06_magmom
 _atom_site_pbe_bader_spin_density
 _atom_site_pbe_cm5_charge
 _atom_site_pbe_ddec_charge
 _atom_site_pbe_ddec_spin_density
 _atom_site_pbe_ddec_sum_bond_order
 _atom_site_pbe_magmom
Ag  Ag0  1  0.36474590  0.63525443  0.74999998  1  0  0.280571  0  1.922086  0  0  0.185513  0  2.372504  0  0  0.20014  0  2.332049  0  0  0.331325  0.178069  0  2.39896  0
Ag  Ag1  1  0.63525373  0.36474696  0.24999730  1  0  0.280571  0  1.922082  0  0  0.185508  0  2.372494  0  0  0.200138  0  2.332038  0  0  0.331319  0.178065  0  2.398951  0
Ag  Ag2  1  0.49999597  0.50000402  0.50000031  1  0  0.273325  0  1.936784  0  0  0.17486  0  2.392576  0  0  0.189594  0  2.355884  0  0  0.312401  0.166489  0  2.414982  0
Ag  Ag3  1  0.50000127  0.50000442  0.00000233  1  0  0.273284  0  1.936387  0  0  0.174783  0  2.39211  0  0  0.189536  0  2.355426  0  0  0.312369  0.166415  0  2.414509  0
H  H4  1  0.88871465  0.37270473  0.03832328  1  0  0.080042  0  0.955382  0  0  0.085534  0  1.024325  0  0  0.087296  0  1.023961  0  0  0.113811  0.084125  0  1.02507  0
H  H5  1  0.62729584  0.11128725  0.46167887  1  0  0.080023  0  0.955405  0  0  0.085524  0  1.024342  0  0  0.087287  0  1.023975  0  0  0.113807  0.084116  0  1.025085  0
H  H6  1  0.11128474  0.62729334  0.96167700  1  0  0.080044  0  0.95542  0  0  0.085544  0  1.024358  0  0  0.087306  0  1.023994  0  0  0.113818  0.084135  0  1.025103  0
H  H7  1  0.37270336  0.88871303  0.53832082  1  0  0.080026  0  0.955454  0  0  0.08551  0  1.024403  0  0  0.087273  0  1.024036  0  0  0.113798  0.084103  0  1.025148  0
H  H8  1  0.09141639  0.46184526  0.22332088  1  0  0.107434  0  0.98518  0  0  0.115001  0  1.047337  0  0  0.117261  0  1.048571  0  0  0.106514  0.11352  0  1.046351  0
H  H9  1  0.53815739  0.90858761  0.27667859  1  0  0.107383  0  0.985245  0  0  0.114979  0  1.047375  0  0  0.117244  0  1.048598  0  0  0.106523  0.113497  0  1.046393  0
H  H10  1  0.90858260  0.53815172  0.77667748  1  0  0.107395  0  0.985206  0  0  0.114989  0  1.047332  0  0  0.117251  0  1.048564  0  0  0.106499  0.113507  0  1.046352  0
H  H11  1  0.46183752  0.09140940  0.72332183  1  0  0.107417  0  0.985302  0  0  0.115051  0  1.047377  0  0  0.117307  0  1.048621  0  0  0.106565  0.113569  0  1.046391  0
H  H12  1  0.29336151  0.36315361  0.22765330  1  0  0.083862  0  0.961826  0  0  0.091928  0  1.031738  0  0  0.094307  0  1.029649  0  0  0.098925  0.090274  0  1.03298  0
H  H13  1  0.63684724  0.70664152  0.27234425  1  0  0.083827  0  0.961859  0  0  0.091932  0  1.031732  0  0  0.094311  0  1.029642  0  0  0.098923  0.090278  0  1.032974  0
H  H14  1  0.70663747  0.63684336  0.77234678  1  0  0.083847  0  0.961858  0  0  0.091913  0  1.031782  0  0  0.094292  0  1.029691  0  0  0.098911  0.090264  0  1.033018  0
H  H15  1  0.36315237  0.29335985  0.72765650  1  0  0.083855  0  0.961853  0  0  0.091953  0  1.031722  0  0  0.094332  0  1.029631  0  0  0.098927  0.090308  0  1.032954  0
H  H16  1  0.28328124  0.17758588  0.05398569  1  0  0.106939  0  0.979125  0  0  0.114979  0  1.042786  0  0  0.117631  0  1.04233  0  0  0.105139  0.113304  0  1.042722  0
H  H17  1  0.82241506  0.71672194  0.44601099  1  0  0.106936  0  0.979189  0  0  0.114988  0  1.042814  0  0  0.117639  0  1.042364  0  0  0.105161  0.113314  0  1.042751  0
H  H18  1  0.71672001  0.82241438  0.94601253  1  0  0.106935  0  0.979157  0  0  0.114984  0  1.042796  0  0  0.117637  0  1.042341  0  0  0.105154  0.113312  0  1.042727  0
H  H19  1  0.17758905  0.28328051  0.55398615  1  0  0.106927  0  0.979163  0  0  0.114988  0  1.042768  0  0  0.117639  0  1.042316  0  0  0.10517  0.113314  0  1.042702  0
H  H20  1  0.23588673  0.99367302  0.92947588  1  0  0.124256  0  0.92885  0  0  0.138635  0  0.978578  0  0  0.141584  0  0.977928  0  0  0.119126  0.136355  0  0.979521  0
H  H21  1  0.00632697  0.76411247  0.57052034  1  0  0.124245  0  0.928835  0  0  0.138645  0  0.978525  0  0  0.141593  0  0.977876  0  0  0.119133  0.136364  0  0.979471  0
H  H22  1  0.76411247  0.00632725  0.07052467  1  0  0.124239  0  0.928821  0  0  0.138619  0  0.978555  0  0  0.141569  0  0.977903  0  0  0.119115  0.136339  0  0.979496  0
H  H23  1  0.99367429  0.23588782  0.42947528  1  0  0.124204  0  0.928831  0  0  0.138576  0  0.978583  0  0  0.141525  0  0.977931  0  0  0.119091  0.136296  0  0.979525  0
H  H24  1  0.19770810  0.80228672  0.74999926  1  0  0.084633  0  0.964779  0  0  0.09464  0  1.032956  0  0  0.097787  0  1.029014  0  0  0.09855  0.092627  0  1.035037  0
H  H25  1  0.80229171  0.19771245  0.24999950  1  0  0.084572  0  0.964784  0  0  0.094581  0  1.032977  0  0  0.097729  0  1.029032  0  0  0.098522  0.092568  0  1.035056  0
Pb  Pb26  1  0.80220079  0.19779870  0.75000716  1  0  1.172302  0  1.664185  0  0  0.955561  0  2.086269  0  0  1.008323  0  2.054425  0  0  0.626251  0.918544  0  2.110458  0
Pb  Pb27  1  0.19779176  0.80218946  0.25000134  1  0  1.172302  0  1.664194  0  0  0.955561  0  2.086271  0  0  1.008323  0  2.054426  0  0  0.626232  0.918557  0  2.110445  0
C  C28  1  0.17779790  0.46486669  0.74375339  1  0  -0.052523  0  3.470313  0  0  -0.031784  0  3.809087  0  0  -0.027674  0  3.815682  0  0  -0.030545  -0.036048  0  3.805884  0
C  C29  1  0.53512783  0.82219556  0.75624152  1  0  -0.052487  0  3.469721  0  0  -0.031746  0  3.808508  0  0  -0.027628  0  3.815095  0  0  -0.030525  -0.036016  0  3.805307  0
C  C30  1  0.82220555  0.53513133  0.25624742  1  0  -0.052504  0  3.470225  0  0  -0.031758  0  3.808991  0  0  -0.027646  0  3.815578  0  0  -0.030495  -0.036026  0  3.805795  0
C  C31  1  0.46487254  0.17780247  0.24376236  1  0  -0.052455  0  3.469942  0  0  -0.031702  0  3.808715  0  0  -0.02759  0  3.815305  0  0  -0.030499  -0.035968  0  3.805514  0
C  C32  1  0.65827251  0.42333597  0.55559822  1  0  -0.082795  0  3.536867  0  0  -0.063318  0  3.887006  0  0  -0.061055  0  3.895355  0  0  -0.055096  -0.065506  0  3.880662  0
C  C33  1  0.57667515  0.34171298  0.94440901  1  0  -0.082641  0  3.537639  0  0  -0.063138  0  3.887724  0  0  -0.060889  0  3.89608  0  0  -0.054982  -0.065323  0  3.881374  0
C  C34  1  0.34171565  0.57666761  0.44441433  1  0  -0.082668  0  3.536968  0  0  -0.06319  0  3.887103  0  0  -0.060925  0  3.895443  0  0  -0.055037  -0.065378  0  3.880758  0
C  C35  1  0.42332773  0.65829165  0.05559259  1  0  -0.082658  0  3.537642  0  0  -0.063144  0  3.887709  0  0  -0.060896  0  3.896069  0  0  -0.054957  -0.06533  0  3.881362  0
C  C36  1  0.97930634  0.33332741  0.04506696  1  0  0.126809  0  3.716296  0  0  0.097965  0  3.96805  0  0  0.104315  0  3.987054  0  0  0.05346  0.093073  0  3.956222  0
C  C37  1  0.66667426  0.02069722  0.45493402  1  0  0.126861  0  3.716193  0  0  0.097999  0  3.967945  0  0  0.104348  0  3.986948  0  0  0.053456  0.093109  0  3.956117  0
C  C38  1  0.02069365  0.66666955  0.95493413  1  0  0.126827  0  3.716313  0  0  0.097956  0  3.96807  0  0  0.104306  0  3.987073  0  0  0.053455  0.093063  0  3.956243  0
C  C39  1  0.33332988  0.97930524  0.54506140  1  0  0.126816  0  3.716231  0  0  0.09799  0  3.967981  0  0  0.104342  0  3.986982  0  0  0.05346  0.093098  0  3.956153  0
C  C40  1  0.09217339  0.38327792  0.14693468  1  0  -0.117229  0  3.723704  0  0  -0.126305  0  3.963723  0  0  -0.134159  0  3.98875  0  0  -0.078619  -0.120226  0  3.946467  0
C  C41  1  0.61671791  0.90782590  0.35306374  1  0  -0.117156  0  3.723578  0  0  -0.12626  0  3.963588  0  0  -0.134119  0  3.988621  0  0  -0.078629  -0.120187  0  3.946334  0
C  C42  1  0.90782375  0.61671688  0.85306401  1  0  -0.117153  0  3.72364  0  0  -0.12624  0  3.963631  0  0  -0.134096  0  3.988658  0  0  -0.078607  -0.120163  0  3.946374  0
C  C43  1  0.38328147  0.09217215  0.64693741  1  0  -0.117185  0  3.723568  0  0  -0.126331  0  3.963593  0  0  -0.134192  0  3.988619  0  0  -0.078653  -0.120256  0  3.946339  0
C  C44  1  0.20306560  0.32682624  0.14964654  1  0  0.004756  0  3.726433  0  0  -0.008906  0  3.966558  0  0  -0.006957  0  3.988043  0  0  -0.06565  -0.009858  0  3.951262  0
C  C45  1  0.67317447  0.79693726  0.35035212  1  0  0.004774  0  3.726414  0  0  -0.008923  0  3.966538  0  0  -0.006974  0  3.98803  0  0  -0.065646  -0.009872  0  3.951243  0
C  C46  1  0.79693439  0.67317072  0.85035368  1  0  0.004675  0  3.726536  0  0  -0.009  0  3.966678  0  0  -0.007051  0  3.988165  0  0  -0.065697  -0.009955  0  3.951377  0
C  C47  1  0.32682717  0.20306408  0.64964889  1  0  0.004731  0  3.726395  0  0  -0.008958  0  3.966547  0  0  -0.007007  0  3.988032  0  0  -0.065675  -0.009915  0  3.951244  0
C  C48  1  0.19707846  0.22218071  0.05207146  1  0  -0.146728  0  3.705069  0  0  -0.165676  0  3.956184  0  0  -0.172298  0  3.977227  0  0  -0.080749  -0.160604  0  3.940642  0
C  C49  1  0.77782129  0.80292502  0.44792694  1  0  -0.146789  0  3.704972  0  0  -0.165718  0  3.956149  0  0  -0.172331  0  3.977174  0  0  -0.080783  -0.160635  0  3.940582  0
C  C50  1  0.80292090  0.77781732  0.94793229  1  0  -0.146723  0  3.705051  0  0  -0.165643  0  3.956196  0  0  -0.172267  0  3.977241  0  0  -0.080737  -0.160572  0  3.940657  0
C  C51  1  0.22218097  0.19707523  0.55207227  1  0  -0.146749  0  3.704988  0  0  -0.165658  0  3.956168  0  0  -0.172272  0  3.977204  0  0  -0.080767  -0.160581  0  3.940623  0
C  C52  1  0.07907316  0.17557818  0.95332223  1  0  0.17856  0  3.754442  0  0  0.172549  0  3.998864  0  0  0.179165  0  4.019082  0  0  0.124367  0.168134  0  3.984661  0
C  C53  1  0.82442298  0.92092998  0.54667644  1  0  0.17871  0  3.754218  0  0  0.172563  0  3.998751  0  0  0.179178  0  4.018969  0  0  0.124369  0.168151  0  3.98455  0
C  C54  1  0.92092769  0.82442099  0.04667492  1  0  0.178743  0  3.754263  0  0  0.172618  0  3.998793  0  0  0.179234  0  4.01901  0  0  0.124384  0.168204  0  3.984589  0
C  C55  1  0.17557967  0.07907134  0.45332557  1  0  0.178744  0  3.754346  0  0  0.172552  0  3.998938  0  0  0.179161  0  4.019156  0  0  0.124392  0.168137  0  3.984736  0
C  C56  1  0.06388764  0.06147784  0.84785431  1  0  0.193792  0  3.736658  0  0  0.186373  0  3.985599  0  0  0.193539  0  4.005267  0  0  0.131591  0.1818  0  3.972396  0
C  C57  1  0.93852276  0.93611240  0.65214685  1  0  0.193652  0  3.736805  0  0  0.186355  0  3.985628  0  0  0.193517  0  4.005309  0  0  0.131535  0.181779  0  3.972429  0
C  C58  1  0.93611316  0.93852129  0.15214890  1  0  0.193681  0  3.736721  0  0  0.186322  0  3.985626  0  0  0.193498  0  4.005287  0  0  0.131559  0.18175  0  3.972423  0
C  C59  1  0.06148339  0.06389002  0.34785056  1  0  0.193572  0  3.73698  0  0  0.186306  0  3.985786  0  0  0.193479  0  4.005448  0  0  0.131538  0.181728  0  3.972585  0
C  C60  1  0.15251765  0.97734928  0.85040320  1  0  -0.129194  0  3.664124  0  0  -0.149722  0  3.90973  0  0  -0.155956  0  3.930439  0  0  -0.071725  -0.146271  0  3.896645  0
C  C61  1  0.02264820  0.84748082  0.64959814  1  0  -0.129216  0  3.664203  0  0  -0.149763  0  3.909729  0  0  -0.156005  0  3.930454  0  0  -0.071755  -0.146313  0  3.896647  0
C  C62  1  0.84748275  0.02264877  0.14959808  1  0  -0.129222  0  3.664106  0  0  -0.149751  0  3.909684  0  0  -0.155998  0  3.930403  0  0  -0.071754  -0.146302  0  3.896597  0
C  C63  1  0.97735508  0.15251942  0.35040121  1  0  -0.129148  0  3.664125  0  0  -0.149702  0  3.90969  0  0  -0.155944  0  3.930406  0  0  -0.071738  -0.146249  0  3.896604  0
C  C64  1  0.13047110  0.86953251  0.74999902  1  0  0.01305  0  3.741305  0  0  0.001014  0  3.985707  0  0  0.003733  0  4.005072  0  0  -0.060934  -0.000146  0  3.972404  0
C  C65  1  0.86952972  0.13046664  0.25000073  1  0  0.013156  0  3.741214  0  0  0.00112  0  3.9856  0  0  0.003839  0  4.004969  0  0  -0.060878  -4.1e-05  0  3.972295  0
N  N66  1  0.06534419  0.37139026  0.73806125  1  0  -0.417972  0  2.972247  0  0  -0.352813  0  3.218901  0  0  -0.372139  0  3.239346  0  0  -0.335173  -0.339999  0  3.205906  0
N  N67  1  0.62861090  0.93466673  0.76193693  1  0  -0.418017  0  2.971648  0  0  -0.35287  0  3.218335  0  0  -0.3722  0  3.238776  0  0  -0.335183  -0.340051  0  3.205337  0
N  N68  1  0.93465970  0.62860888  0.26193630  1  0  -0.417969  0  2.972255  0  0  -0.352812  0  3.218916  0  0  -0.372141  0  3.239356  0  0  -0.335202  -0.339997  0  3.205927  0
N  N69  1  0.37138857  0.06533688  0.23805802  1  0  -0.418058  0  2.971805  0  0  -0.352908  0  3.218458  0  0  -0.372236  0  3.2389  0  0  -0.335217  -0.340093  0  3.205465  0
N  N70  1  0.74692891  0.37469144  0.58650968  1  0  -0.443173  0  2.914453  0  0  -0.384031  0  3.149815  0  0  -0.401294  0  3.170334  0  0  -0.352819  -0.371808  0  3.136055  0
N  N71  1  0.62530505  0.25307041  0.91349413  1  0  -0.443286  0  2.91546  0  0  -0.384154  0  3.150814  0  0  -0.40141  0  3.171332  0  0  -0.352937  -0.371934  0  3.137055  0
N  N72  1  0.25305607  0.62530896  0.41349076  1  0  -0.443308  0  2.914602  0  0  -0.384164  0  3.149968  0  0  -0.40143  0  3.170481  0  0  -0.352894  -0.371944  0  3.13621  0
N  N73  1  0.37469788  0.74693973  0.08650646  1  0  -0.44329  0  2.91543  0  0  -0.384165  0  3.150777  0  0  -0.401423  0  3.171298  0  0  -0.352975  -0.371945  0  3.137021  0
N  N74  1  0.97310072  0.23226832  0.95131123  1  0  -0.351363  0  3.22476  0  0  -0.280324  0  3.471513  0  0  -0.298738  0  3.49184  0  0  -0.296015  -0.267603  0  3.457926  0
N  N75  1  0.76773440  0.02690263  0.54868682  1  0  -0.351487  0  3.224761  0  0  -0.280399  0  3.47152  0  0  -0.298806  0  3.491845  0  0  -0.296027  -0.267676  0  3.457935  0
N  N76  1  0.02690279  0.76773523  0.04868598  1  0  -0.35149  0  3.224809  0  0  -0.28039  0  3.471555  0  0  -0.298802  0  3.491882  0  0  -0.296019  -0.267666  0  3.45797  0
N  N77  1  0.23226828  0.97309873  0.45131085  1  0  -0.35143  0  3.224861  0  0  -0.280349  0  3.471639  0  0  -0.298757  0  3.491966  0  0  -0.296039  -0.267626  0  3.458056  0
N  N78  1  0.95999048  0.04001547  0.74999678  1  0  -0.35466  0  3.177806  0  0  -0.291659  0  3.426059  0  0  -0.309137  0  3.444576  0  0  -0.280536  -0.280821  0  3.413156  0
N  N79  1  0.04001322  0.95998587  0.25000103  1  0  -0.354581  0  3.177981  0  0  -0.291585  0  3.426188  0  0  -0.309068  0  3.444701  0  0  -0.280477  -0.280749  0  3.413296  0
