# generated using pymatgen
data_Ni2H28C38N2O11
_symmetry_space_group_name_H-M   'P 1'
_cell_length_a   10.38597351
_cell_length_b   11.24277943
_cell_length_c   21.82299884
_cell_angle_alpha   93.85490846
_cell_angle_beta   90.00681613
_cell_angle_gamma   117.51883007
_symmetry_Int_Tables_number   1
_chemical_formula_structural   Ni2H28C38N2O11
_chemical_formula_sum   'Ni4 H56 C76 N4 O22'
_cell_volume   2253.39013871
_cell_formula_units_Z   2
loop_
 _symmetry_equiv_pos_site_id
 _symmetry_equiv_pos_as_xyz
  1  'x, y, z'
loop_
 _atom_site_type_symbol
 _atom_site_label
 _atom_site_symmetry_multiplicity
 _atom_site_fract_x
 _atom_site_fract_y
 _atom_site_fract_z
 _atom_site_occupancy
 _atom_site_pbe_bader_charge
 _atom_site_pbe_bader_spin_density
 _atom_site_pbe_cm5_charge
 _atom_site_pbe_ddec_charge
 _atom_site_pbe_ddec_spin_density
 _atom_site_pbe_ddec_sum_bond_order
 _atom_site_pbe_magmom
Ni  Ni0  1  0.72554567  0.97986175  0.67212554  1  1.189383  1.579022  0.623475  0.853854  1.779297  2.351572  1.566
Ni  Ni1  1  0.74568366  0.02039467  0.82795671  1  1.183929  1.579095  0.623246  0.853618  1.780203  2.35094  1.566
Ni  Ni2  1  0.27444242  0.02013498  0.32787588  1  1.189386  1.579022  0.623426  0.853766  1.779291  2.351677  1.566
Ni  Ni3  1  0.25432779  0.97959296  0.17204215  1  1.184203  1.579084  0.623241  0.853583  1.780198  2.351033  1.566
H  H4  1  0.81104875  0.07601379  0.57670445  1  0.616482  -0.00074  0.305518  0.390171  -0.000674  0.922417  0.0
H  H5  1  0.73509549  0.92408752  0.92325920  1  0.608073  -0.000734  0.305643  0.390176  -0.000675  0.92263  0.0
H  H6  1  0.18895854  0.92400208  0.42329892  1  0.61652  -0.00074  0.305481  0.390167  -0.000674  0.922516  0.0
H  H7  1  0.26490654  0.07590819  0.07674173  1  0.607956  -0.000735  0.30562  0.390151  -0.000675  0.922627  0.0
H  H8  1  0.94323449  0.07393094  0.60787012  1  0.618612  -0.000681  0.317217  0.402355  -0.000642  0.88421  0.0
H  H9  1  0.86936031  0.92635300  0.89204384  1  0.619259  -0.000696  0.316779  0.402091  -0.000641  0.884736  0.0
H  H10  1  0.05676341  0.92607386  0.39213246  1  0.618695  -0.000681  0.317214  0.402381  -0.000642  0.884235  0.0
H  H11  1  0.13065145  0.07364678  0.10795904  1  0.619296  -0.000696  0.316752  0.402072  -0.000641  0.884772  0.0
H  H12  1  0.52496236  0.92036277  0.76421844  1  0.644912  0.000147  0.288692  0.383185  0.000623  0.962604  0.0
H  H13  1  0.60436499  0.07944988  0.73572732  1  0.650703  0.000156  0.289124  0.383761  0.000619  0.961784  0.0
H  H14  1  0.47503410  0.07964491  0.23577872  1  0.644918  0.000147  0.288667  0.383174  0.000623  0.962637  0.0
H  H15  1  0.39565232  0.92056098  0.26427681  1  0.650612  0.000156  0.289066  0.383725  0.000619  0.961848  0.0
H  H16  1  0.21012447  0.20173477  0.82405206  1  0.096766  0.000307  0.109652  0.115414  0.000186  0.984175  0.0
H  H17  1  0.00827842  0.79824782  0.67599227  1  0.080439  0.000308  0.109576  0.115187  0.000185  0.984349  0.0
H  H18  1  0.78988969  0.79824670  0.17594157  1  0.097355  0.000307  0.109763  0.115498  0.000186  0.984157  0.0
H  H19  1  0.99171813  0.20174079  0.32400570  1  0.079676  0.000308  0.109605  0.115222  0.000185  0.9844  0.0
H  H20  1  0.47338601  0.37080394  0.82391281  1  0.081262  0.000169  0.10348  0.102192  6.7e-05  0.990335  0.0
H  H21  1  0.10207061  0.62893810  0.67617434  1  0.083037  0.000169  0.103534  0.101713  6.8e-05  0.989623  0.0
H  H22  1  0.52662783  0.62918846  0.17607565  1  0.081785  0.000169  0.103449  0.102209  6.7e-05  0.990438  0.0
H  H23  1  0.89792591  0.37105046  0.32382180  1  0.083142  0.000169  0.10353  0.101716  6.8e-05  0.98985  0.0
H  H24  1  0.55761912  0.54296170  0.74811195  1  0.063092  1e-06  0.09986  0.094603  -1.7e-05  1.041436  0.0
H  H25  1  0.01414080  0.45701063  0.75203693  1  0.063925  1e-06  0.100004  0.094938  -1.7e-05  1.041373  0.0
H  H26  1  0.44238734  0.45704287  0.25188099  1  0.063111  1e-06  0.099837  0.09463  -1.7e-05  1.041528  0.0
H  H27  1  0.98585874  0.54298398  0.24795985  1  0.063913  1e-06  0.099986  0.094955  -1.7e-05  1.041132  0.0
H  H28  1  0.12373059  0.36726262  0.66703555  1  0.064089  0.000256  0.10268  0.106802  0.000132  1.016307  0.0
H  H29  1  0.75656175  0.63325640  0.83313357  1  0.101489  0.000249  0.102736  0.106659  0.000132  1.015977  0.0
H  H30  1  0.87626006  0.63274115  0.33296607  1  0.064154  0.000256  0.102693  0.106812  0.000132  1.01624  0.0
H  H31  1  0.24343392  0.36673623  0.16686452  1  0.101691  0.000249  0.102749  0.106716  0.000132  1.016087  0.0
H  H32  1  0.53783075  0.73010178  0.72495133  1  0.122472  0.001991  0.12046  0.095794  0.000541  1.039025  0.001
H  H33  1  0.80743884  0.26999972  0.77515984  1  0.12561  0.001982  0.12081  0.096441  0.000538  1.038304  0.001
H  H34  1  0.46216136  0.26990105  0.27505348  1  0.122732  0.00199  0.120471  0.095789  0.000541  1.039115  0.001
H  H35  1  0.19257259  0.73000709  0.22484280  1  0.125424  0.001982  0.120801  0.096401  0.000538  1.038365  0.001
H  H36  1  0.57037494  0.85788265  0.54970606  1  0.119796  0.002127  0.121365  0.099192  0.000694  0.995086  0.002
H  H37  1  0.71208259  0.14241440  0.95040341  1  0.118176  0.002122  0.121461  0.099075  0.00069  0.995551  0.002
H  H38  1  0.42962796  0.14213021  0.45029722  1  0.119685  0.002126  0.121342  0.099116  0.000693  0.995185  0.002
H  H39  1  0.28794219  0.85758640  0.04959996  1  0.118995  0.002122  0.121493  0.099129  0.00069  0.995581  0.002
H  H40  1  0.27216065  0.44488178  0.57884323  1  0.081595  -8e-06  0.110927  0.114387  -0.000105  0.993398  0.0
H  H41  1  0.82715945  0.55539978  0.92119436  1  0.084433  -5e-06  0.110752  0.113957  -0.000104  0.994058  0.0
H  H42  1  0.72783545  0.55512905  0.42115953  1  0.080991  -8e-06  0.110934  0.114499  -0.000105  0.993397  0.0
H  H43  1  0.17281497  0.44458694  0.07880906  1  0.084329  -5e-06  0.110797  0.114071  -0.000104  0.994007  0.0
H  H44  1  0.33793646  0.41528954  0.48503856  1  0.05582  -3.1e-05  0.100362  0.098975  -4.2e-05  1.013753  0.0
H  H45  1  0.92289281  0.58479953  0.01502833  1  0.076627  -3.1e-05  0.10075  0.099812  -4.2e-05  1.01339  0.0
H  H46  1  0.66204878  0.58471111  0.51495885  1  0.055628  -3.1e-05  0.10037  0.098926  -4.2e-05  1.013905  0.0
H  H47  1  0.07710139  0.41517091  0.98496635  1  0.076606  -3.1e-05  0.100697  0.099709  -4.2e-05  1.013345  0.0
H  H48  1  0.28682554  0.37318409  0.37299555  1  0.089461  0.000152  0.101327  0.10523  2.5e-05  1.014682  0.0
H  H49  1  0.91418880  0.62690571  0.12710840  1  0.086799  0.000153  0.101222  0.104995  2.6e-05  1.014668  0.0
H  H50  1  0.71317101  0.62682763  0.62700219  1  0.089254  0.000152  0.101373  0.105378  2.5e-05  1.014652  0.0
H  H51  1  0.08581456  0.37309075  0.87288156  1  0.08669  0.000153  0.101176  0.104901  2.6e-05  1.014694  0.0
H  H52  1  0.30973503  0.56079078  0.31064756  1  0.06399  1.6e-05  0.099658  0.097011  -1.4e-05  1.047248  0.0
H  H53  1  0.74932053  0.43928167  0.18945267  1  0.063467  1.6e-05  0.099951  0.097332  -1.4e-05  1.047261  0.0
H  H54  1  0.69025967  0.43922495  0.68934984  1  0.064119  1.6e-05  0.099616  0.096916  -1.4e-05  1.047288  0.0
H  H55  1  0.25068508  0.56072699  0.81054314  1  0.063338  1.6e-05  0.09995  0.097383  -1.4e-05  1.047267  0.0
H  H56  1  0.40222321  0.82174092  0.47498786  1  0.081939  0.000356  0.101499  0.104597  0.000229  1.01638  0.0
H  H57  1  0.58007771  0.17853914  0.02511975  1  0.094986  0.000355  0.101228  0.104073  0.00023  1.017242  0.0
H  H58  1  0.59778294  0.17826882  0.52501120  1  0.081917  0.000356  0.101458  0.104558  0.000229  1.016292  0.0
H  H59  1  0.41991675  0.82144145  0.97487935  1  0.0948  0.000355  0.101207  0.10408  0.00023  1.017076  0.0
C  C60  1  0.99462169  0.17702964  0.74665901  1  1.548592  0.000266  0.212255  0.581095  -0.0005  4.191319  -0.001
C  C61  1  0.81783516  0.82341734  0.75352238  1  1.563195  0.000172  0.212366  0.581312  -0.000503  4.192039  -0.001
C  C62  1  0.00539349  0.82297313  0.25334305  1  1.548642  0.000265  0.212308  0.580962  -0.000502  4.191456  -0.001
C  C63  1  0.18217062  0.17657432  0.24647706  1  1.562773  0.000168  0.212385  0.581333  -0.000504  4.192165  -0.001
C  C64  1  0.25065120  0.27562402  0.78977249  1  -0.034475  0.000191  -0.076082  -0.08277  -0.000135  3.948561  0.0
C  C65  1  0.97491692  0.72454365  0.71034367  1  -0.016054  0.000194  -0.075955  -0.082716  -0.00015  3.950029  0.0
C  C66  1  0.74935520  0.72437468  0.21022716  1  -0.034759  0.000192  -0.076145  -0.082817  -0.000134  3.948896  0.0
C  C67  1  0.02508609  0.27545210  0.28965864  1  -0.015259  0.000194  -0.075953  -0.082735  -0.00015  3.950136  0.0
C  C68  1  0.39636351  0.37103403  0.78999461  1  -0.032655  0.000648  -0.083036  -0.064727  0.000309  4.00244  0.0
C  C69  1  0.02501249  0.62899926  0.71013612  1  -0.03734  0.000652  -0.083195  -0.06405  0.000311  4.0025  0.0
C  C70  1  0.60364469  0.62896250  0.20999810  1  -0.033341  0.000649  -0.08312  -0.06477  0.000309  4.002612  0.0
C  C71  1  0.97498954  0.37099455  0.28986933  1  -0.037855  0.000652  -0.08321  -0.06406  0.00031  4.002923  0.0
C  C72  1  0.44387853  0.46768293  0.74710910  1  -0.009113  -0.001069  -0.078966  -0.110292  -0.001217  3.939488  -0.001
C  C73  1  0.97579450  0.53236123  0.75302566  1  -0.005892  -0.001085  -0.078429  -0.110224  -0.001234  3.941381  -0.001
C  C74  1  0.55612336  0.53231058  0.25288351  1  -0.009487  -0.001069  -0.078857  -0.110359  -0.001216  3.93936  -0.001
C  C75  1  0.02420702  0.46763156  0.24697885  1  -0.005415  -0.001086  -0.078391  -0.11018  -0.001235  3.941073  -0.001
C  C76  1  0.34723322  0.46800172  0.70204624  1  -0.005479  0.001271  -0.007667  0.066352  0.000716  4.012398  0.001
C  C77  1  0.87887545  0.53214172  0.79806326  1  -0.02575  0.001274  -0.007133  0.066651  0.000717  4.014174  0.001
C  C78  1  0.65275968  0.53199692  0.29795112  1  -0.00516  0.001271  -0.00766  0.066503  0.000716  4.012079  0.001
C  C79  1  0.12112344  0.46784196  0.20193869  1  -0.025568  0.001275  -0.007102  0.066713  0.000717  4.013959  0.001
C  C80  1  0.20198143  0.36894009  0.70086441  1  -0.093467  0.000552  -0.085921  -0.153695  6.4e-05  3.95103  0.0
C  C81  1  0.83305489  0.63143200  0.79928424  1  -0.128783  0.000547  -0.086376  -0.153899  5.7e-05  3.951285  0.0
C  C82  1  0.79800926  0.63106568  0.29913682  1  -0.093961  0.000552  -0.085959  -0.153677  6.4e-05  3.951176  0.0
C  C83  1  0.16695337  0.36856271  0.20071666  1  -0.12898  0.000547  -0.08651  -0.154145  5.7e-05  3.951767  0.0
C  C84  1  0.15296250  0.27453017  0.74511708  1  -0.020907  0.011763  -0.020018  -0.035819  0.00708  3.988278  0.009
C  C85  1  0.87851203  0.72583564  0.75503402  1  -0.025788  0.01183  -0.020504  -0.036223  0.007087  3.99012  0.009
C  C86  1  0.84703734  0.72547466  0.25488688  1  -0.020517  0.011768  -0.020118  -0.036074  0.007083  3.988717  0.009
C  C87  1  0.12149680  0.27416212  0.24496880  1  -0.026038  0.011834  -0.020372  -0.036074  0.007089  3.989785  0.009
C  C88  1  0.39887619  0.57214503  0.65755648  1  0.01905  0.005494  0.001542  0.039534  0.003083  4.014481  0.004
C  C89  1  0.82615772  0.42796908  0.84250628  1  0.012911  0.005475  0.001202  0.038851  0.003071  4.015903  0.004
C  C90  1  0.60112417  0.42786469  0.34244211  1  0.019005  0.005493  0.001546  0.039554  0.003083  4.014581  0.004
C  C91  1  0.17384045  0.57202664  0.15749465  1  0.012799  0.005476  0.001143  0.038694  0.003072  4.015536  0.004
C  C92  1  0.50181986  0.70330205  0.67692864  1  0.515399  -0.005583  0.049538  0.04394  -0.006538  3.894111  -0.004
C  C93  1  0.79807767  0.29683930  0.82316300  1  0.548492  -0.005623  0.049127  0.043431  -0.006532  3.894701  -0.004
C  C94  1  0.49818206  0.29671078  0.32307371  1  0.515005  -0.005582  0.049469  0.043808  -0.006535  3.894518  -0.004
C  C95  1  0.20193230  0.70316652  0.17684007  1  0.546555  -0.005626  0.049163  0.043616  -0.006535  3.894348  -0.004
C  C96  1  0.51620943  0.77530688  0.57906193  1  0.415938  -0.004695  0.05103  0.04383  -0.005457  3.887948  -0.003
C  C97  1  0.74055291  0.22497292  0.92104941  1  0.457385  -0.004737  0.051354  0.044577  -0.005423  3.889588  -0.003
C  C98  1  0.48378177  0.22469991  0.42094025  1  0.416173  -0.004695  0.051082  0.044006  -0.005457  3.887313  -0.003
C  C99  1  0.25946546  0.77502274  0.07894923  1  0.457214  -0.00474  0.051321  0.044551  -0.005424  3.889464  -0.003
C  C100  1  0.41156290  0.64785414  0.55501396  1  0.06762  0.005819  -0.002006  0.032964  0.00328  4.019129  0.005
C  C101  1  0.76339293  0.35241598  0.94507154  1  0.034861  0.005889  -0.002314  0.032097  0.003273  4.021473  0.005
C  C102  1  0.58843423  0.35216067  0.44498708  1  0.067543  0.005819  -0.002077  0.032897  0.00328  4.018711  0.005
C  C103  1  0.23660315  0.64757170  0.05492961  1  0.035452  0.00589  -0.002234  0.032393  0.003273  4.021263  0.005
C  C104  1  0.35220957  0.54600294  0.59574526  1  -0.101448  -0.007407  -0.065584  -0.137178  -0.008336  3.906942  -0.005
C  C105  1  0.80582925  0.45420374  0.90431123  1  -0.109505  -0.007395  -0.065232  -0.136014  -0.008322  3.907985  -0.004
C  C106  1  0.64778767  0.45401786  0.40425413  1  -0.101069  -0.007407  -0.065566  -0.137266  -0.008336  3.906641  -0.005
C  C107  1  0.19415140  0.54578388  0.09568763  1  -0.109623  -0.007395  -0.065267  -0.136152  -0.008323  3.908018  -0.004
C  C108  1  0.37546005  0.62196628  0.48844797  1  0.00694  0.000695  -0.014348  0.055079  0.000385  4.037043  0.001
C  C109  1  0.75337847  0.37828984  0.01164211  1  -0.01994  0.000694  -0.014318  0.055726  0.000383  4.037546  0.001
C  C110  1  0.62453324  0.37804854  0.51155353  1  0.022189  0.000695  -0.014497  0.054753  0.000385  4.037081  0.001
C  C111  1  0.24661165  0.62168977  0.98835789  1  -0.020012  0.000694  -0.014464  0.055298  0.000384  4.037761  0.001
C  C112  1  0.34044463  0.49530744  0.45865549  1  -0.059946  -1.9e-05  -0.088285  -0.124358  -0.000123  3.966853  0.0
C  C113  1  0.84535768  0.50485709  0.04143415  1  -0.055868  -3.1e-05  -0.088414  -0.125434  -0.000133  3.966708  0.0
C  C114  1  0.65955692  0.50471234  0.54134341  1  -0.060153  -1.9e-05  -0.088109  -0.123962  -0.000124  3.966811  0.0
C  C115  1  0.15463636  0.49512842  0.95856052  1  -0.055517  -3.1e-05  -0.088252  -0.125179  -0.000133  3.966566  0.0
C  C116  1  0.31452026  0.47222480  0.39523131  1  -0.046438  0.000501  -0.09235  -0.079501  0.000245  4.013816  0.0
C  C117  1  0.84267872  0.52790828  0.10486472  1  -0.054347  0.000506  -0.092353  -0.079289  0.000247  4.012642  0.0
C  C118  1  0.68548273  0.52779595  0.60476578  1  -0.046591  0.000502  -0.092448  -0.079769  0.000245  4.013814  0.0
C  C119  1  0.15732238  0.47209135  0.89513175  1  -0.054336  0.000505  -0.092215  -0.079027  0.000246  4.012563  0.0
C  C120  1  0.32638395  0.57603935  0.36035438  1  -0.019647  0.000896  -0.081478  -0.088576  0.00046  3.960382  0.001
C  C121  1  0.75058548  0.42411070  0.13973225  1  -0.024095  0.000894  -0.081753  -0.088761  0.000454  3.959108  0.001
C  C122  1  0.67360923  0.42397335  0.63964248  1  -0.019509  0.000896  -0.081536  -0.088581  0.00046  3.9602  0.001
C  C123  1  0.24941753  0.57588893  0.86026422  1  -0.02394  0.000894  -0.081872  -0.088933  0.000454  3.959275  0.001
C  C124  1  0.35811492  0.70198360  0.38938721  1  0.003439  0.005715  -0.018449  -0.02672  0.003444  3.979955  0.004
C  C125  1  0.65614192  0.29823742  0.11069951  1  0.002687  0.005717  -0.019082  -0.027399  0.003454  3.979792  0.004
C  C126  1  0.64189577  0.29803328  0.61061664  1  0.003582  0.005715  -0.018495  -0.026763  0.003444  3.980095  0.004
C  C127  1  0.34385732  0.70176428  0.88929977  1  0.002543  0.005715  -0.019054  -0.027486  0.003453  3.979842  0.004
C  C128  1  0.38065456  0.72385249  0.45318024  1  -0.049425  0.000123  -0.087664  -0.150073  7e-06  3.94805  0.0
C  C129  1  0.65656888  0.27642448  0.04689376  1  -0.039555  0.000119  -0.086949  -0.149228  5e-06  3.947774  0.0
C  C130  1  0.61935028  0.27616040  0.54682487  1  -0.064345  0.000123  -0.087441  -0.149832  7e-06  3.947811  0.0
C  C131  1  0.34341906  0.72356618  0.95310611  1  -0.039404  0.000119  -0.086899  -0.149046  5e-06  3.947566  0.0
C  C132  1  0.36636695  0.81202911  0.35177109  1  1.548619  -0.000313  0.214295  0.590808  -0.000986  4.16414  -0.001
C  C133  1  0.55438178  0.18819911  0.14832337  1  1.561193  -0.000316  0.214549  0.590191  -0.000971  4.163184  -0.001
C  C134  1  0.63364423  0.18798878  0.64823233  1  1.548872  -0.000312  0.214345  0.590901  -0.000984  4.164176  -0.001
C  C135  1  0.44561258  0.81179862  0.85167762  1  1.561041  -0.000316  0.214657  0.590396  -0.00097  4.163002  -0.001
N  N136  1  0.55916334  0.80199819  0.63859260  1  -1.213071  0.073053  -0.329716  -0.221139  0.041827  3.643793  0.065
N  N137  1  0.75686164  0.19820655  0.86152895  1  -1.243049  0.072959  -0.330009  -0.221742  0.041785  3.643847  0.065
N  N138  1  0.44082165  0.19801160  0.36140875  1  -1.212755  0.073047  -0.329654  -0.221093  0.041823  3.643471  0.065
N  N139  1  0.24315240  0.80179009  0.13846880  1  -1.242011  0.072976  -0.330016  -0.221912  0.041791  3.6439  0.065
O  O140  1  0.91617011  0.15879823  0.69834065  1  -1.168219  0.057167  -0.32171  -0.58151  0.03137  2.33414  0.052
O  O141  1  0.75763413  0.84160594  0.80185426  1  -1.167586  0.057384  -0.321804  -0.581598  0.031481  2.334341  0.053
O  O142  1  0.08382971  0.84120462  0.30166462  1  -1.168411  0.057164  -0.321684  -0.581276  0.031372  2.334366  0.052
O  O143  1  0.24236254  0.15838676  0.19814704  1  -1.167715  0.057382  -0.321798  -0.58154  0.031477  2.334569  0.053
O  O144  1  0.95118463  0.12394675  0.79724605  1  -1.144031  0.070877  -0.30783  -0.547257  0.038961  2.368706  0.065
O  O145  1  0.82753350  0.87661201  0.70298341  1  -1.142888  0.070766  -0.307552  -0.546867  0.038924  2.37089  0.065
O  O146  1  0.04881797  0.87603279  0.20275119  1  -1.144037  0.070874  -0.307812  -0.547136  0.038959  2.368545  0.065
O  O147  1  0.17246203  0.12337458  0.29701450  1  -1.142437  0.070772  -0.307663  -0.547015  0.038929  2.371083  0.065
O  O148  1  0.39668819  0.80769697  0.29567002  1  -1.163894  0.003602  -0.310177  -0.522332  0.001456  2.173675  0.003
O  O149  1  0.58894083  0.19281328  0.20446976  1  -1.165176  0.00361  -0.310012  -0.52185  0.001462  2.173549  0.003
O  O150  1  0.60331661  0.19231586  0.70433234  1  -1.164089  0.003604  -0.310268  -0.522422  0.001458  2.17373  0.003
O  O151  1  0.41104956  0.80719959  0.79553443  1  -1.165196  0.003609  -0.310159  -0.522  0.001461  2.173513  0.003
O  O152  1  0.34132076  0.90387832  0.37910728  1  -1.1648  0.070833  -0.323705  -0.588905  0.038989  2.313926  0.065
O  O153  1  0.43764603  0.09607004  0.12097521  1  -1.176313  0.070951  -0.324294  -0.588524  0.03898  2.313181  0.065
O  O154  1  0.65866901  0.09612756  0.62089854  1  -1.16487  0.07084  -0.323765  -0.589003  0.038992  2.313864  0.065
O  O155  1  0.56236027  0.90392267  0.87902609  1  -1.176091  0.070952  -0.324316  -0.588621  0.038981  2.313018  0.065
O  O156  1  0.85224780  0.01516527  0.58499073  1  -1.176479  0.056519  -0.565036  -0.71124  0.031804  1.977237  0.048
O  O157  1  0.83712066  0.98503288  0.91497536  1  -1.168255  0.056652  -0.564758  -0.710931  0.031867  1.978099  0.048
O  O158  1  0.14773811  0.98483865  0.41501732  1  -1.176613  0.056524  -0.565021  -0.711296  0.031806  1.977172  0.048
O  O159  1  0.16288276  0.01495986  0.08502731  1  -1.168104  0.056647  -0.564694  -0.710868  0.031864  1.978116  0.048
O  O160  1  0.62068350  0.99998858  0.75000079  1  -1.227249  0.139772  -0.549667  -0.78306  0.078024  2.414226  0.126
O  O161  1  0.37931424  0.00001011  0.24999886  1  -1.227155  0.139783  -0.549631  -0.783071  0.07803  2.41433  0.126
