# generated using pymatgen
data_CuH8(C3N5)2
_symmetry_space_group_name_H-M   'P 1'
_cell_length_a   6.56084704
_cell_length_b   8.92663412
_cell_length_c   8.92656445
_cell_angle_alpha   94.36413014
_cell_angle_beta   90.00008184
_cell_angle_gamma   89.99976663
_symmetry_Int_Tables_number   1
_chemical_formula_structural   CuH8(C3N5)2
_chemical_formula_sum   'Cu2 H16 C12 N20'
_cell_volume   521.27988179
_cell_formula_units_Z   2
loop_
 _symmetry_equiv_pos_site_id
 _symmetry_equiv_pos_as_xyz
  1  'x, y, z'
loop_
 _atom_site_type_symbol
 _atom_site_label
 _atom_site_symmetry_multiplicity
 _atom_site_fract_x
 _atom_site_fract_y
 _atom_site_fract_z
 _atom_site_occupancy
 _atom_site_pbe_bader_charge
 _atom_site_pbe_bader_spin_density
 _atom_site_pbe_cm5_charge
 _atom_site_pbe_ddec_charge
 _atom_site_pbe_ddec_spin_density
 _atom_site_pbe_ddec_sum_bond_order
 _atom_site_pbe_magmom
Cu  Cu0  1  0.13228403  0.12271181  0.12271226  1  1.025457  0.509065  0.765087  0.702735  0.679434  2.391024  0.507
Cu  Cu1  1  0.63228666  0.87728813  0.87729064  1  1.025318  0.509122  0.765169  0.702794  0.679518  2.391376  0.507
H  H2  1  0.32952636  0.44530450  0.08327505  1  0.12261  0.00039  0.112073  0.109095  5.4e-05  1.04947  0.0
H  H3  1  0.82952083  0.55469194  0.91671471  1  0.12278  0.000389  0.111989  0.108969  5.4e-05  1.049077  0.0
H  H4  1  0.32953177  0.08327450  0.44530076  1  0.122899  0.00039  0.112001  0.109004  5.4e-05  1.049124  0.0
H  H5  1  0.82952000  0.91671632  0.55469194  1  0.122815  0.000389  0.111993  0.108976  5.4e-05  1.049143  0.0
H  H6  1  0.28226756  0.58403921  0.81617693  1  0.180996  0.001274  0.116666  0.117354  0.000958  1.079525  0.001
H  H7  1  0.78225220  0.41596486  0.18382363  1  0.181127  0.001273  0.116693  0.117378  0.000958  1.079427  0.001
H  H8  1  0.28227324  0.81617491  0.58403996  1  0.181025  0.001274  0.116636  0.117336  0.000958  1.079504  0.001
H  H9  1  0.78224957  0.18381680  0.41595966  1  0.181106  0.001273  0.116679  0.117338  0.000958  1.079605  0.001
H  H10  1  0.07605297  0.39859455  0.64564618  1  0.535919  0.000556  0.305031  0.26312  0.000383  1.008556  0.001
H  H11  1  0.57604444  0.60141971  0.35434900  1  0.535971  0.000556  0.305095  0.263276  0.000383  1.008521  0.001
H  H12  1  0.07605081  0.64564706  0.39859343  1  0.535936  0.000556  0.305039  0.263202  0.000383  1.008535  0.001
H  H13  1  0.57604660  0.35434585  0.60141245  1  0.535971  0.000556  0.305068  0.2632  0.000383  1.008565  0.001
H  H14  1  0.98059626  0.16249122  0.78239298  1  0.183701  0.000139  0.128795  0.092438  -0.000108  1.065421  0.0
H  H15  1  0.48058417  0.83752509  0.21760124  1  0.183902  0.000139  0.128792  0.092457  -0.000109  1.065271  0.0
H  H16  1  0.98058396  0.78239310  0.16248950  1  0.18382  0.000139  0.128831  0.092467  -0.000109  1.065399  0.0
H  H17  1  0.48059343  0.21760523  0.83752015  1  0.183752  0.000139  0.128806  0.092468  -0.000109  1.06533  0.0
C  C18  1  0.24985664  0.40796088  0.98107540  1  0.397474  0.001447  -0.013219  -0.049426  0.001221  3.994011  0.002
C  C19  1  0.74983917  0.59203067  0.01894109  1  0.396924  0.00145  -0.013231  -0.049413  0.001223  3.993527  0.002
C  C20  1  0.24985266  0.98106419  0.40796023  1  0.397166  0.001447  -0.013109  -0.049187  0.001222  3.993831  0.002
C  C21  1  0.74984773  0.01893522  0.59202886  1  0.397151  0.001448  -0.013149  -0.049314  0.001223  3.993683  0.002
C  C22  1  0.23042644  0.47593338  0.84884372  1  0.284404  0.003767  -0.003866  -0.052766  0.002713  3.92991  0.003
C  C23  1  0.73040854  0.52407717  0.15116196  1  0.284893  0.003766  -0.003817  -0.052647  0.002711  3.93049  0.003
C  C24  1  0.23042697  0.84884567  0.47592496  1  0.284481  0.003767  -0.003866  -0.052848  0.002713  3.930408  0.003
C  C25  1  0.73041106  0.15115702  0.52407003  1  0.284651  0.003765  -0.003898  -0.052744  0.002712  3.930562  0.003
C  C26  1  0.06717989  0.25794016  0.82958826  1  0.954109  -0.001138  0.133317  0.137661  -0.001306  3.921588  0.0
C  C27  1  0.56717743  0.74205832  0.17040351  1  0.953989  -0.00114  0.133311  0.137631  -0.001308  3.920962  0.0
C  C28  1  0.06717440  0.82958965  0.25793864  1  0.95393  -0.001138  0.133284  0.13761  -0.001307  3.921311  0.0
C  C29  1  0.56718139  0.17040658  0.74205968  1  0.954134  -0.001139  0.133282  0.137627  -0.001308  3.921245  0.0
N  N30  1  0.16294017  0.89245749  0.89245444  1  -0.304459  5e-05  0.086681  0.431218  -0.008169  4.434269  -0.011
N  N31  1  0.66293663  0.10754597  0.10754192  1  -0.304438  6.5e-05  0.086784  0.431343  -0.008153  4.434354  -0.011
N  N32  1  0.14771875  0.27186652  0.96759090  1  -1.20203  0.068555  -0.378846  -0.302236  0.047438  3.651881  0.059
N  N33  1  0.64771229  0.72814698  0.03239171  1  -1.201724  0.068542  -0.378848  -0.302208  0.04743  3.651372  0.059
N  N34  1  0.14771598  0.96759278  0.27186307  1  -1.201942  0.06855  -0.378886  -0.302272  0.047435  3.651784  0.059
N  N35  1  0.64771810  0.03240049  0.72814041  1  -1.202129  0.068552  -0.378863  -0.302268  0.047437  3.651638  0.059
N  N36  1  0.03323547  0.96178241  0.96177959  1  -0.219101  0.076691  -0.279922  -0.494033  0.053975  3.017709  0.069
N  N37  1  0.53322208  0.03821253  0.03821200  1  -0.219522  0.076725  -0.280024  -0.494282  0.053997  3.017515  0.069
N  N38  1  0.24984566  0.28068671  0.28068726  1  -0.180193  0.048983  -0.263909  -0.433317  0.035377  2.940846  0.045
N  N39  1  0.74985473  0.71931944  0.71931466  1  -0.180368  0.049011  -0.264024  -0.433345  0.035395  2.940784  0.045
N  N40  1  0.28844723  0.82322132  0.82322007  1  -0.108257  0.111629  -0.211599  -0.412728  0.073456  2.847224  0.085
N  N41  1  0.78842612  0.17677604  0.17676988  1  -0.1079  0.111564  -0.211607  -0.412719  0.073414  2.847653  0.085
N  N42  1  0.11431092  0.38003717  0.75555892  1  -1.319845  0.002403  -0.378716  -0.195189  0.001361  3.694895  0.002
N  N43  1  0.61431015  0.61994695  0.24444059  1  -1.320489  0.002403  -0.37879  -0.19538  0.001361  3.695066  0.002
N  N44  1  0.11430836  0.75555937  0.38004151  1  -1.319972  0.002403  -0.378742  -0.19529  0.001361  3.694889  0.002
N  N45  1  0.61430813  0.24443823  0.61995118  1  -1.320111  0.002403  -0.378707  -0.195215  0.001361  3.694906  0.002
N  N46  1  0.05300273  0.44471420  0.44471337  1  -0.185575  0.092854  -0.225767  -0.451711  0.06126  2.715846  0.066
N  N47  1  0.55300612  0.55529320  0.55529480  1  -0.185215  0.092863  -0.225567  -0.451511  0.061266  2.715996  0.066
N  N48  1  0.14869208  0.36178592  0.36178493  1  -0.302528  0.005913  0.086996  0.417768  -0.000806  4.472925  -0.002
N  N49  1  0.64869449  0.63821747  0.63821594  1  -0.302614  0.005917  0.086875  0.417584  -0.000802  4.473119  -0.002
