# generated using pymatgen
data_Zn2H18C33S2(N3O2)3
_symmetry_space_group_name_H-M   'P 1'
_cell_length_a   19.96597970
_cell_length_b   19.88592621
_cell_length_c   19.59915557
_cell_angle_alpha   68.24598119
_cell_angle_beta   74.73935481
_cell_angle_gamma   112.16568329
_symmetry_Int_Tables_number   1
_chemical_formula_structural   Zn2H18C33S2(N3O2)3
_chemical_formula_sum   'Zn4 H36 C66 S4 N18 O12'
_cell_volume   5913.08157580
_cell_formula_units_Z   2
loop_
 _symmetry_equiv_pos_site_id
 _symmetry_equiv_pos_as_xyz
  1  'x, y, z'
loop_
 _atom_site_type_symbol
 _atom_site_label
 _atom_site_symmetry_multiplicity
 _atom_site_fract_x
 _atom_site_fract_y
 _atom_site_fract_z
 _atom_site_occupancy
 _atom_site_pbe_bader_charge
 _atom_site_pbe_bader_spin_density
 _atom_site_pbe_cm5_charge
 _atom_site_pbe_ddec_charge
 _atom_site_pbe_ddec_spin_density
 _atom_site_pbe_ddec_sum_bond_order
 _atom_site_pbe_magmom
Zn  Zn0  1  0.11447960  0.60028270  0.00364404  1  1.19293  0  0.743063  0.613714  0  2.46815  0
Zn  Zn1  1  0.90619951  0.40601608  0.00561444  1  1.189395  0  0.74464  0.614907  0  2.465978  0
Zn  Zn2  1  0.00512510  0.61471021  0.89159569  1  1.241579  0  0.735497  0.658008  0  2.459976  0
Zn  Zn3  1  0.00325670  0.38638694  0.12106241  1  1.219036  0  0.747209  0.649008  0  2.406039  0
H  H4  1  0.20792789  0.81420605  0.96256436  1  0.116091  0  0.129603  0.122688  0  0.975584  0
H  H5  1  0.49062042  0.36649590  0.23220851  1  0.069075  0  0.106034  0.110309  0  0.988498  0
H  H6  1  0.63475454  0.63948695  0.06285753  1  0.082896  0  0.102979  0.105266  0  0.992165  0
H  H7  1  0.36613095  0.36444115  0.22983715  1  0.097923  0  0.105825  0.10954  0  0.987857  0
H  H8  1  0.19386386  0.06053885  0.95795834  1  0.086268  0  0.112032  0.116243  0  0.978791  0
H  H9  1  0.10171178  0.20423215  0.77042994  1  0.099056  0  0.110203  0.114452  0  0.980399  0
H  H10  1  0.18062580  0.17916256  0.95890223  1  0.08286  0  0.111038  0.117364  0  0.986431  0
H  H11  1  0.11763275  0.08702425  0.76785392  1  0.076167  0  0.109847  0.114831  0  0.983605  0
H  H12  1  0.74388752  0.21191672  0.11792079  1  0.09711  0  0.121956  0.113809  0  0.991456  0
H  H13  1  0.25798548  0.60834213  0.87640007  1  0.120315  0  0.123815  0.116986  0  0.992126  0
H  H14  1  0.87853805  0.64777352  0.99905368  1  0.114014  0  0.116161  0.112337  0  1.017181  0
H  H15  1  0.02580752  0.41242655  0.84703855  1  0.118275  0  0.127496  0.122072  0  0.98763  0
H  H16  1  0.13399965  0.36047138  0.18798748  1  0.156675  0  0.126391  0.126595  0  0.988094  0
H  H17  1  0.86303450  0.35959693  0.26856205  1  0.127673  0  0.126399  0.119725  0  0.982352  0
H  H18  1  0.95037094  0.62970843  0.74050846  1  0.096684  0  0.129713  0.128812  0  0.973403  0
H  H19  1  0.74881683  0.37129015  0.14365105  1  0.083449  0  0.124621  0.116204  0  0.989312  0
H  H20  1  0.28396989  0.63496666  0.02077811  1  0.056106  0  0.1211  0.110333  0  0.99204  0
H  H21  1  0.85695343  0.18267637  0.27895567  1  0.134111  0  0.129989  0.124504  0  0.972395  0
H  H22  1  0.13258177  0.64246726  0.72811790  1  0.099986  0  0.126242  0.119585  0  0.982248  0
H  H23  1  0.78366382  0.56270497  0.47261546  1  0.091039  0  0.112805  0.112979  0  0.969242  0
H  H24  1  0.92644062  0.42192351  0.56351612  1  0.077619  0  0.109995  0.107965  0  0.972279  0
H  H25  1  0.93231498  0.75485360  0.39479180  1  0.638603  0  0.352441  0.402018  0  0.842988  0
H  H26  1  0.71101980  0.40704449  0.62352994  1  0.117222  0  0.117915  0.121638  0  0.957552  0
H  H27  1  0.77855140  0.23182444  0.64482400  1  0.62283  0  0.349199  0.396857  0  0.849327  0
H  H28  1  0.00552346  0.66149949  0.18247735  1  0.461772  0  0.309743  0.308602  0  0.941104  0
H  H29  1  0.07220860  0.69724526  0.08369348  1  0.415552  0  0.293293  0.282069  0  1.011658  0
H  H30  1  0.84861770  0.30241504  0.91821520  1  0.426689  0  0.304159  0.295516  0  0.954989  0
H  H31  1  0.81634307  0.32196424  0.84555609  1  0.442147  0  0.3082  0.306227  0  0.942068  0
H  H32  1  0.97705038  0.85836832  0.86868982  1  0.648705  0  0.36102  0.409945  0  0.827463  0
H  H33  1  0.07522957  0.20681610  0.01418999  1  0.624088  0  0.3153  0.361577  0  0.933809  0
H  H34  1  0.99915328  0.57778708  0.41204433  1  0.120284  0  0.115788  0.118197  0  0.959402  0
H  H35  1  0.49750320  0.91522067  0.35034794  1  0.058497  0  0.105212  0.108634  0  0.990278  0
H  H36  1  0.51303240  0.79152974  0.61355829  1  0.07014  0  0.105297  0.108947  0  0.989428  0
H  H37  1  0.37323183  0.78819493  0.47909361  1  0.048946  0  0.105623  0.109284  0  0.987885  0
H  H38  1  0.63727242  0.91865378  0.48481274  1  0.048709  0  0.105647  0.108214  0  0.988332  0
H  H39  1  0.51017571  0.63739842  0.06071493  1  0.046583  0  0.102544  0.10464  0  0.9937  0
C  C40  1  0.16697107  0.79778770  0.93644684  1  0.414651  0  0.021099  -0.059819  0  3.924543  0
C  C41  1  0.93519519  0.53917464  0.45957233  1  -0.036273  0  -0.061022  -0.072036  0  3.601355  0
C  C42  1  0.81524918  0.53110394  0.49260853  1  -0.022542  0  -0.063346  -0.08366  0  3.607273  0
C  C43  1  0.89512144  0.45350273  0.54267782  1  -0.005163  0  -0.063905  -0.079999  0  3.623535  0
C  C44  1  0.88818842  0.49823347  0.30591865  1  -0.319736  0  -0.040705  -0.033154  0  4.191128  0
C  C45  1  0.86532675  0.48373486  0.72169989  1  -0.462531  0  -0.047018  -0.045358  0  4.219732  0
C  C46  1  0.81935406  0.41379683  0.52960983  1  -0.122774  0  -0.002445  -0.119419  0  3.677335  0
C  C47  1  0.89091360  0.57076417  0.50622303  1  -0.117494  0  -0.002054  -0.116622  0  3.670112  0
C  C48  1  0.86006601  0.50008215  0.44322881  1  0.12852  0  0.018825  0.154411  0  3.783101  0
C  C49  1  0.85058799  0.48430316  0.59230165  1  0.099397  0  0.017398  0.151782  0  3.793008  0
C  C50  1  0.86906709  0.50336109  0.36765772  1  -0.062817  0  -0.080081  -0.187722  0  4.118918  0
C  C51  1  0.03896467  0.39522288  0.89913663  1  0.455638  0  0.025613  -0.036514  0  3.898011  0
C  C52  1  0.85168572  0.48028132  0.66550767  1  0.143675  0  -0.077483  -0.179308  0  4.143677  0
C  C53  1  0.43135683  0.81650936  0.47992538  1  0.048092  0  -0.086438  -0.126416  0  3.970437  0
C  C54  1  0.57939879  0.88937009  0.48377053  1  -0.009667  0  -0.085492  -0.123328  0  3.971813  0
C  C55  1  0.78300556  0.21901803  0.14744011  1  0.450503  0  0.012108  -0.06067  0  3.965427  0
C  C56  1  0.21603983  0.61288770  0.85182348  1  0.427555  0  0.016863  -0.043543  0  3.917823  0
C  C57  1  0.43384246  0.78197695  0.55591430  1  0.097475  0  -0.003292  0.137423  0  4.121886  0
C  C58  1  0.57576120  0.92707713  0.40895382  1  0.134089  0  -0.005025  0.135226  0  4.130074  0
C  C59  1  0.51000516  0.81830970  0.55565922  1  -0.058123  0  -0.08614  -0.127385  0  3.975935  0
C  C60  1  0.50081561  0.88760033  0.40797615  1  -0.041114  0  -0.086549  -0.128664  0  3.977971  0
C  C61  1  0.36085244  0.71870472  0.63158344  1  -0.314045  0  -0.054149  -0.123124  0  4.141486  0
C  C62  1  0.77037316  0.15950880  0.22423058  1  0.100294  0  -0.029639  0.043259  0  4.210361  0
C  C63  1  0.64457876  0.00523867  0.33927739  1  0.116714  0  -0.053437  -0.121213  0  4.155037  0
C  C64  1  0.70315802  0.07627175  0.28371833  1  -0.49674  0  -0.057584  -0.106771  0  4.186966  0
C  C65  1  0.29785318  0.67438588  0.69760909  1  -0.084327  0  -0.055645  -0.101608  0  4.169924  0
C  C66  1  0.57561698  0.57951728  0.09995098  1  0.011111  0  -0.08815  -0.127852  0  3.979616  0
C  C67  1  0.42501677  0.42460642  0.19387270  1  -0.099614  0  -0.086196  -0.126112  0  3.971615  0
C  C68  1  0.57168382  0.50303910  0.14683979  1  0.032834  0  -0.003755  0.138504  0  4.121134  0
C  C69  1  0.42964020  0.50063162  0.14431994  1  0.14963  0  -0.005057  0.135761  0  4.132337  0
C  C70  1  0.49454142  0.42577959  0.19522969  1  0.015736  0  -0.086021  -0.128052  0  3.972961  0
C  C71  1  0.50617069  0.57833831  0.09860899  1  -0.055925  0  -0.088302  -0.128363  0  3.986383  0
C  C72  1  0.64437636  0.50380206  0.13927939  1  0.09972  0  -0.05651  -0.127836  0  4.147415  0
C  C73  1  0.22627352  0.63712425  0.77064610  1  0.088498  0  -0.028469  0.043822  0  4.191066  0
C  C74  1  0.36053166  0.49929972  0.13755703  1  -0.1431  0  -0.054239  -0.123117  0  4.159393  0
C  C75  1  0.30267161  0.49883562  0.12731620  1  -0.211721  0  -0.056805  -0.103404  0  4.184138  0
C  C76  1  0.70855705  0.50528897  0.12225472  1  -0.467899  0  -0.0531  -0.097851  0  4.170514  0
C  C77  1  0.16606468  0.15840434  0.91764136  1  -0.052826  0  -0.080684  -0.124279  0  3.954959  0
C  C78  1  0.13058027  0.10707687  0.81003809  1  -0.023901  0  -0.081219  -0.123831  0  3.962682  0
C  C79  1  0.85943324  0.58100586  0.02744994  1  0.390353  0  0.019787  -0.029678  0  3.912107  0
C  C80  1  0.15891917  0.42744079  0.14553101  1  0.416849  0  0.021118  -0.033395  0  3.931242  0
C  C81  1  0.13786929  0.19839776  0.86636362  1  0.081254  0  -0.002467  0.131086  0  4.12461  0
C  C82  1  0.15498731  0.06443389  0.86411047  1  0.063746  0  -0.000278  0.133652  0  4.125563  0
C  C83  1  0.12198126  0.17270926  0.81125777  1  0.005584  0  -0.07998  -0.118872  0  3.960124  0
C  C84  1  0.78197420  0.50814721  0.09011928  1  0.180764  0  -0.025981  0.04529  0  4.187154  0
C  C85  1  0.17402382  0.09241636  0.91683635  1  -0.001755  0  -0.078476  -0.114517  0  3.954355  0
C  C86  1  0.12173453  0.25899783  0.87509376  1  -0.067368  0  -0.039331  -0.114021  0  4.11284  0
C  C87  1  0.15668614  0.99258808  0.86866518  1  0.022429  0  -0.041835  -0.103272  0  4.132566  0
C  C88  1  0.15379183  0.92728476  0.87749282  1  -0.3505  0  -0.053536  -0.105756  0  4.183979  0
C  C89  1  0.10339378  0.30653047  0.88900833  1  -0.326887  0  -0.043886  -0.095687  0  4.156475  0
C  C90  1  0.90712658  0.42722354  0.22384631  1  0.456851  0  0.023228  -0.01732  0  3.971875  0
C  C91  1  0.92733475  0.56381578  0.78529321  1  0.474181  0  0.025191  -0.017539  0  3.97096  0
C  C92  1  0.79271641  0.43934232  0.10126716  1  0.438338  0  0.01994  -0.041682  0  3.920113  0
C  C93  1  0.23585725  0.56781802  0.05942910  1  0.45709  0  0.012116  -0.058265  0  3.978425  0
C  C94  1  0.98473125  0.56914777  0.15569912  1  0.975709  0  0.20833  0.364842  0  4.093529  0
C  C95  1  0.23737615  0.49826501  0.11277441  1  0.109681  0  -0.028448  0.04632  0  4.207914  0
C  C96  1  0.87045395  0.42281804  0.85697238  1  0.910859  0  0.197113  0.337939  0  4.134364  0
C  C97  1  0.84075825  0.20450899  0.22989547  1  0.410926  0  0.024251  -0.036642  0  3.938904  0
C  C98  1  0.15168546  0.63007033  0.77609799  1  0.459497  0  0.020533  -0.040817  0  3.934642  0
C  C99  1  0.09121148  0.79376611  0.87262325  1  0.328972  0  0.079444  -0.091182  0  4.029274  0
C  C100  1  0.07629178  0.34738767  0.99436539  1  0.359387  0  0.087328  -0.066814  0  3.974169  0
C  C101  1  0.14116543  0.84790557  0.89235415  1  0.13549  0  -0.01439  0.056841  0  4.182177  0
C  C102  1  0.07761241  0.35013921  0.92067437  1  0.102023  0  -0.019689  0.035635  0  4.174512  0
C  C103  1  0.91946643  0.49670654  0.23400593  1  0.161625  0  -0.041742  -0.087504  0  4.17573  0
C  C104  1  0.88440288  0.48985991  0.78372888  1  0.151813  0  -0.045063  -0.094352  0  4.208264  0
C  C105  1  0.77513455  0.44550225  0.57639541  1  -0.019508  0  -0.060289  -0.072296  0  3.591524  0
S  S106  1  0.93813076  0.67093489  0.49606890  1  3.053818  0  0.531309  1.15288  0  6.016979  0
S  S107  1  0.77242167  0.31270283  0.54181216  1  3.028785  0  0.532696  1.153984  0  6.012256  0
S  S108  1  0.03848784  0.80848919  0.81609521  1  3.068073  0  0.560049  1.162719  0  5.989704  0
S  S109  1  0.09901279  0.28633380  0.06472196  1  3.090434  0  0.550466  1.164622  0  6.026314  0
N  N110  1  0.13348116  0.72125759  0.94240278  1  -0.765461  0  -0.244736  -0.139867  0  3.513337  0
N  N111  1  0.16256346  0.54020815  0.06080352  1  -0.817913  0  -0.278555  -0.183288  0  3.594354  0
N  N112  1  0.00895928  0.54336731  0.10445712  1  -0.805867  0  -0.296528  -0.296597  0  3.522074  0
N  N113  1  0.90251535  0.45521869  0.89784633  1  -0.81592  0  -0.29184  -0.292447  0  3.504185  0
N  N114  1  0.89027482  0.28360640  0.16262943  1  -0.77992  0  -0.264181  -0.172378  0  3.546497  0
N  N115  1  0.10318030  0.60615617  0.85322894  1  -0.776326  0  -0.279251  -0.190792  0  3.668054  0
N  N116  1  0.08649146  0.71881338  0.90366106  1  -0.69624  0  -0.231472  -0.170081  0  3.480289  0
N  N117  1  0.04090611  0.38769233  0.01330186  1  -0.742852  0  -0.255075  -0.170315  0  3.612039  0
N  N118  1  0.01649297  0.65263275  0.13390185  1  -1.243497  0  -0.594721  -0.632565  0  3.331512  0
N  N119  1  0.82762904  0.33616752  0.88759562  1  -1.212416  0  -0.595297  -0.639591  0  3.29249  0
N  N120  1  0.01694619  0.41608720  0.95592624  1  -0.74551  0  -0.255291  -0.158123  0  3.554099  0
N  N121  1  0.85471020  0.29276520  0.11115656  1  -0.816341  0  -0.274289  -0.180661  0  3.572125  0
N  N122  1  0.14239799  0.59558557  0.89998964  1  -0.806537  0  -0.279924  -0.184733  0  3.626126  0
N  N123  1  0.91069399  0.55663219  0.00268976  1  -0.760403  0  -0.283413  -0.19187  0  3.627715  0
N  N124  1  0.11480844  0.45292571  0.11413591  1  -0.792931  0  -0.268144  -0.179979  0  3.540593  0
N  N125  1  0.96074673  0.45531861  0.14722412  1  -0.839558  0  -0.292328  -0.212464  0  3.65248  0
N  N126  1  0.93829858  0.54309346  0.85268262  1  -0.816631  0  -0.274254  -0.185919  0  3.54798  0
N  N127  1  0.86974759  0.46967521  0.04795820  1  -0.822621  0  -0.279895  -0.173315  0  3.626846  0
O  O128  1  0.87714716  0.68028632  0.54326740  1  -1.292134  0  -0.323078  -0.542713  0  2.07812  0
O  O129  1  0.18546696  0.32043361  0.02965362  1  -1.255257  0  -0.309152  -0.518927  0  2.092454  0
O  O130  1  0.05334734  0.27022886  0.14537255  1  -1.303752  0  -0.299835  -0.521293  0  2.170077  0
O  O131  1  0.05316413  0.19682799  0.07100857  1  -1.19916  0  -0.35878  -0.512031  0  2.154982  0
O  O132  1  0.01036773  0.68551177  0.50524832  1  -1.277285  0  -0.30962  -0.508059  0  2.082381  0
O  O133  1  0.96954927  0.73426338  0.39771302  1  -1.20032  0  -0.372158  -0.546168  0  2.092462  0
O  O134  1  0.70028440  0.29671986  0.53221197  1  -1.273194  0  -0.305282  -0.500804  0  2.080599  0
O  O135  1  0.83370391  0.30222144  0.49670664  1  -1.294039  0  -0.327055  -0.548795  0  2.080343  0
O  O136  1  0.74097192  0.25171531  0.64083322  1  -1.169365  0  -0.372828  -0.545072  0  2.092958  0
O  O137  1  0.08670973  0.89168437  0.74218993  1  -1.273772  0  -0.295555  -0.504182  0  2.096428  0
O  O138  1  0.00267803  0.73197893  0.81275219  1  -1.295618  0  -0.286823  -0.494239  0  2.234495  0
O  O139  1  0.96076170  0.80162014  0.87723680  1  -1.200582  0  -0.346129  -0.522692  0  2.14054  0
