# generated using pymatgen
data_CuH6C8N3
_symmetry_space_group_name_H-M   'P 1'
_cell_length_a   5.92505687
_cell_length_b   9.18325253
_cell_length_c   12.80814897
_cell_angle_alpha   90.00103543
_cell_angle_beta   89.99946493
_cell_angle_gamma   93.88680327
_symmetry_Int_Tables_number   1
_chemical_formula_structural   CuH6C8N3
_chemical_formula_sum   'Cu4 H24 C32 N12'
_cell_volume   695.30500684
_cell_formula_units_Z   4
loop_
 _symmetry_equiv_pos_site_id
 _symmetry_equiv_pos_as_xyz
  1  'x, y, z'
loop_
 _atom_site_type_symbol
 _atom_site_label
 _atom_site_symmetry_multiplicity
 _atom_site_fract_x
 _atom_site_fract_y
 _atom_site_fract_z
 _atom_site_occupancy
 _atom_site_pbe_bader_spin_density
 _atom_site_pbe_cm5_charge
 _atom_site_pbe_ddec_charge
 _atom_site_pbe_ddec_spin_density
 _atom_site_pbe_ddec_sum_bond_order
 _atom_site_pbe_magmom
Cu  Cu0  1  0.89801689  0.26508137  0.05848248  1  0  0.54164  0.324499  0  2.321384  0
Cu  Cu1  1  0.60198638  0.23490106  0.55848482  1  0  0.541563  0.324351  0  2.32119  0
Cu  Cu2  1  0.10200178  0.73491935  0.94151662  1  0  0.541561  0.324399  0  2.321362  0
Cu  Cu3  1  0.39799631  0.76509271  0.44151271  1  0  0.541607  0.324353  0  2.321459  0
H  H4  1  0.06705354  0.50192821  0.11463735  1  0  0.091591  0.080547  0  1.100978  0
H  H5  1  0.43297264  0.99806154  0.61462771  1  0  0.091678  0.080699  0  1.100901  0
H  H6  1  0.93294924  0.49806361  0.88536174  1  0  0.091647  0.080642  0  1.101041  0
H  H7  1  0.56702822  0.00194879  0.38537294  1  0  0.091687  0.080789  0  1.100882  0
H  H8  1  0.61205351  0.10715151  0.89708143  1  0  0.10623  0.095071  0  1.035245  0
H  H9  1  0.88794315  0.39282582  0.39709848  1  0  0.106199  0.094997  0  1.035355  0
H  H10  1  0.38792875  0.89283681  0.10291610  1  0  0.106219  0.095054  0  1.035363  0
H  H11  1  0.11206751  0.60718026  0.60289671  1  0  0.106176  0.094952  0  1.035489  0
H  H12  1  0.14861742  0.12406248  0.88522303  1  0  0.102454  0.091442  0  1.063009  0
H  H13  1  0.35137283  0.37592286  0.38523172  1  0  0.102486  0.091467  0  1.063059  0
H  H14  1  0.85135166  0.87593005  0.11478387  1  0  0.10244  0.091432  0  1.063091  0
H  H15  1  0.64863799  0.62408540  0.61477908  1  0  0.102488  0.091467  0  1.063103  0
H  H16  1  0.74622393  0.60570683  0.32756568  1  0  0.108505  0.074734  0  1.040736  0
H  H17  1  0.75380017  0.89428429  0.82755760  1  0  0.108499  0.074794  0  1.040794  0
H  H18  1  0.25379077  0.39428621  0.67243732  1  0  0.108391  0.074503  0  1.040661  0
H  H19  1  0.24619620  0.10571182  0.17244540  1  0  0.108419  0.074626  0  1.040793  0
H  H20  1  0.08095679  0.68040691  0.25924676  1  0  0.107721  0.073087  0  1.03371  0
H  H21  1  0.41906485  0.81958984  0.75923184  1  0  0.107784  0.073172  0  1.03368  0
H  H22  1  0.91902767  0.31958797  0.74076482  1  0  0.107808  0.073293  0  1.033777  0
H  H23  1  0.58093997  0.18040637  0.24076569  1  0  0.107792  0.073188  0  1.033806  0
H  H24  1  0.75830703  0.41772874  0.18897757  1  0  0.092166  0.087525  0  1.094041  0
H  H25  1  0.74172284  0.08225716  0.68898685  1  0  0.092208  0.087683  0  1.093985  0
H  H26  1  0.24170954  0.58226650  0.81102230  1  0  0.092211  0.087655  0  1.094024  0
H  H27  1  0.25825867  0.91774315  0.31102317  1  0  0.092183  0.087707  0  1.094143  0
C  C28  1  0.40173753  0.32893402  0.05897896  1  0  0.17371  0.231945  0  4.017031  0
C  C29  1  0.09827608  0.17105838  0.55898103  1  0  0.173667  0.231986  0  4.016996  0
C  C30  1  0.59826645  0.67107308  0.94102169  1  0  0.17364  0.231906  0  4.017101  0
C  C31  1  0.90170846  0.82893760  0.44102040  1  0  0.173691  0.231895  0  4.01692  0
C  C32  1  0.21899666  0.51706268  0.16250179  1  0  -0.089923  -0.16716  0  3.96785  0
C  C33  1  0.28102627  0.98293412  0.66249373  1  0  -0.090085  -0.167549  0  3.96788  0
C  C34  1  0.78103797  0.48292623  0.83748481  1  0  -0.089987  -0.167307  0  3.968491  0
C  C35  1  0.71896243  0.01707172  0.33749677  1  0  -0.090081  -0.167659  0  3.968495  0
C  C36  1  0.50259808  0.17231500  0.94281298  1  0  -0.015245  -0.03153  0  4.016169  0
C  C37  1  0.99740700  0.32767721  0.44281887  1  0  -0.015304  -0.031571  0  4.016387  0
C  C38  1  0.49741249  0.82768999  0.05719080  1  0  -0.015172  -0.031429  0  4.01632  0
C  C39  1  0.00259631  0.67232116  0.55717398  1  0  -0.015246  -0.031529  0  4.016313  0
C  C40  1  0.40946731  0.43826471  0.14020143  1  0  0.010952  0.077  0  3.986168  0
C  C41  1  0.09056165  0.06172508  0.64020670  1  0  0.011107  0.077158  0  3.985496  0
C  C42  1  0.59063262  0.56171730  0.85980625  1  0  0.010966  0.076793  0  3.98582  0
C  C43  1  0.90937204  0.93826815  0.35979395  1  0  0.011001  0.077012  0  3.985589  0
C  C44  1  0.27043865  0.18122241  0.93640829  1  0  -0.020801  -0.045944  0  4.013824  0
C  C45  1  0.22954447  0.31878182  0.43640786  1  0  -0.020838  -0.045924  0  4.013934  0
C  C46  1  0.72955654  0.81878023  0.06359392  1  0  -0.020774  -0.045931  0  4.013838  0
C  C47  1  0.77043916  0.68122396  0.56358967  1  0  -0.020829  -0.045894  0  4.013885  0
C  C48  1  0.59785739  0.57810195  0.27911326  1  0  0.030206  0.075936  0  3.978193  0
C  C49  1  0.90213610  0.92189921  0.77910687  1  0  0.030232  0.075958  0  3.978545  0
C  C50  1  0.40216832  0.42192392  0.72089443  1  0  0.03036  0.076301  0  3.978302  0
C  C51  1  0.09783982  0.07809449  0.22089847  1  0  0.030287  0.076141  0  3.978469  0
C  C52  1  0.22770851  0.61894435  0.24212050  1  0  0.034165  0.091381  0  3.955027  0
C  C53  1  0.27232379  0.88105093  0.74211583  1  0  0.034191  0.09156  0  3.954522  0
C  C54  1  0.77232097  0.38104341  0.75787391  1  0  0.03419  0.091527  0  3.954775  0
C  C55  1  0.72767015  0.11895715  0.25788092  1  0  0.034223  0.091655  0  3.954674  0
C  C56  1  0.60350539  0.47352973  0.20125101  1  0  -0.091434  -0.163534  0  3.936592  0
C  C57  1  0.89649018  0.02647391  0.70126419  1  0  -0.091632  -0.163833  0  3.936785  0
C  C58  1  0.39650020  0.52647630  0.79874808  1  0  -0.09158  -0.163764  0  3.936258  0
C  C59  1  0.10349852  0.97353193  0.29873647  1  0  -0.091578  -0.163826  0  3.936584  0
N  N60  1  0.58558935  0.26470867  0.01975343  1  0  -0.407076  -0.321061  0  3.702403  0
N  N61  1  0.91444268  0.23527650  0.51976708  1  0  -0.406981  -0.320907  0  3.702138  0
N  N62  1  0.41443408  0.73530955  0.98024488  1  0  -0.407104  -0.320986  0  3.702504  0
N  N63  1  0.08556053  0.76472078  0.48022967  1  0  -0.407058  -0.320858  0  3.702197  0
N  N64  1  0.20609942  0.27910372  0.00960600  1  0  -0.409863  -0.326239  0  3.681569  0
N  N65  1  0.29390206  0.22089241  0.50960514  1  0  -0.409876  -0.326313  0  3.681205  0
N  N66  1  0.79390439  0.72090120  0.99039153  1  0  -0.409849  -0.326287  0  3.681447  0
N  N67  1  0.70607641  0.77911222  0.49039863  1  0  -0.409795  -0.326222  0  3.681359  0
N  N68  1  0.41297013  0.65044550  0.30156910  1  0  -0.364987  -0.247641  0  3.618049  0
N  N69  1  0.08703006  0.84955393  0.80156420  1  0  -0.364912  -0.24773  0  3.617689  0
N  N70  1  0.58702810  0.34955281  0.69843390  1  0  -0.364957  -0.247793  0  3.617738  0
N  N71  1  0.91295289  0.15044312  0.19843177  1  0  -0.364975  -0.247855  0  3.617608  0
