# generated using pymatgen
data_ZnH8C10(NO)4
_symmetry_space_group_name_H-M   'P 1'
_cell_length_a   7.92974562
_cell_length_b   7.92975635
_cell_length_c   17.75280000
_cell_angle_alpha   90.00000000
_cell_angle_beta   90.00000000
_cell_angle_gamma   90.00000000
_symmetry_Int_Tables_number   1
_chemical_formula_structural   ZnH8C10(NO)4
_chemical_formula_sum   'Zn4 H32 C40 N16 O16'
_cell_volume   1116.31294060
_cell_formula_units_Z   4
loop_
 _symmetry_equiv_pos_site_id
 _symmetry_equiv_pos_as_xyz
  1  'x, y, z'
loop_
 _atom_site_type_symbol
 _atom_site_label
 _atom_site_symmetry_multiplicity
 _atom_site_fract_x
 _atom_site_fract_y
 _atom_site_fract_z
 _atom_site_occupancy
 _atom_site_hle17_bader_spin_density
 _atom_site_hle17_ddec_charge
 _atom_site_hle17_ddec_spin_density
 _atom_site_hle17_ddec_sum_bond_order
 _atom_site_hle17_magmom
 _atom_site_hse06_10hf_bader_spin_density
 _atom_site_hse06_10hf_ddec_charge
 _atom_site_hse06_10hf_ddec_spin_density
 _atom_site_hse06_10hf_ddec_sum_bond_order
 _atom_site_hse06_10hf_magmom
 _atom_site_hse06_bader_spin_density
 _atom_site_hse06_ddec_charge
 _atom_site_hse06_ddec_spin_density
 _atom_site_hse06_ddec_sum_bond_order
 _atom_site_hse06_magmom
 _atom_site_pbe_bader_charge
 _atom_site_pbe_bader_spin_density
 _atom_site_pbe_cm5_charge
 _atom_site_pbe_ddec_charge
 _atom_site_pbe_ddec_spin_density
 _atom_site_pbe_ddec_sum_bond_order
 _atom_site_pbe_magmom
Zn  Zn0  1  0.25370045  0.25370136  0.00000000  1  0  0.952533  0  1.796108  0  0  0.760101  0  2.232625  0  0  0.812381  0  2.182234  0  1.269354  0  0.671576  0.723511  0  2.267107  0
Zn  Zn1  1  0.24629920  0.75370033  0.25000000  1  0  0.952564  0  1.796096  0  0  0.760123  0  2.232618  0  0  0.812402  0  2.182225  0  1.269371  0  0.671585  0.723534  0  2.267098  0
Zn  Zn2  1  0.75370009  0.24630139  0.75000000  1  0  0.952542  0  1.796092  0  0  0.760099  0  2.232613  0  0  0.812379  0  2.18222  0  1.26942  0  0.671575  0.723513  0  2.267093  0
Zn  Zn3  1  0.74630011  0.74630036  0.50000000  1  0  0.952531  0  1.796104  0  0  0.760115  0  2.232597  0  0  0.812393  0  2.182207  0  1.269418  0  0.671574  0.723527  0  2.267078  0
H  H4  1  0.57827076  0.31645991  0.08202819  1  0  0.084413  0  0.960458  0  0  0.092648  0  1.025731  0  0  0.094883  0  1.024526  0  0.133251  0  0.116495  0.090995  0  1.026659  0
H  H5  1  0.18353678  0.07826974  0.33202706  1  0  0.084355  0  0.960507  0  0  0.092622  0  1.025752  0  0  0.094859  0  1.02454  0  0.133276  0  0.116481  0.090969  0  1.026685  0
H  H6  1  0.81645873  0.92173072  0.83202875  1  0  0.084416  0  0.960414  0  0  0.092648  0  1.025697  0  0  0.09489  0  1.024472  0  0.133231  0  0.116501  0.090995  0  1.026626  0
H  H7  1  0.07827111  0.18354158  0.66797181  1  0  0.084426  0  0.960459  0  0  0.092655  0  1.025739  0  0  0.094895  0  1.024518  0  0.133242  0  0.116506  0.091003  0  1.026666  0
H  H8  1  0.92172818  0.81646014  0.16796956  1  0  0.084434  0  0.960468  0  0  0.092659  0  1.025733  0  0  0.094896  0  1.024521  0  0.133313  0  0.116499  0.091008  0  1.026661  0
H  H9  1  0.42172980  0.68354055  0.58202931  1  0  0.084388  0  0.960482  0  0  0.092621  0  1.025764  0  0  0.094859  0  1.024548  0  0.133232  0  0.116512  0.090969  0  1.026692  0
H  H10  1  0.31646286  0.57827376  0.91797181  1  0  0.084367  0  0.960498  0  0  0.09264  0  1.025722  0  0  0.094881  0  1.024501  0  0.133258  0  0.116496  0.090986  0  1.026655  0
H  H11  1  0.68353895  0.42173049  0.41797181  1  0  0.084364  0  0.960458  0  0  0.092593  0  1.02575  0  0  0.094829  0  1.024543  0  0.133261  0  0.11648  0.09094  0  1.02668  0
H  H12  1  0.81297438  0.52778293  0.08229237  1  0  0.116653  0  0.96996  0  0  0.117345  0  1.046048  0  0  0.122537  0  1.042395  0  0.124935  0  0.104813  0.113532  0  1.04891  0
H  H13  1  0.97221025  0.31297179  0.33229181  1  0  0.116595  0  0.970051  0  0  0.117331  0  1.046098  0  0  0.122496  0  1.042473  0  0.124985  0  0.104801  0.113519  0  1.04896  0
H  H14  1  0.02778525  0.68702615  0.83229293  1  0  0.116601  0  0.970021  0  0  0.117349  0  1.046054  0  0  0.122508  0  1.042433  0  0.12495  0  0.104814  0.113536  0  1.048915  0
H  H15  1  0.31297473  0.97221651  0.66770763  1  0  0.116662  0  0.969972  0  0  0.117357  0  1.046056  0  0  0.122547  0  1.042404  0  0.124942  0  0.104812  0.113544  0  1.048918  0
H  H16  1  0.68702456  0.02778396  0.16770538  1  0  0.116738  0  0.970036  0  0  0.117491  0  1.046046  0  0  0.122637  0  1.042436  0  0.124896  0  0.104854  0.113678  0  1.048909  0
H  H17  1  0.18702744  0.47221627  0.58229406  1  0  0.116645  0  0.969984  0  0  0.117355  0  1.046069  0  0  0.122533  0  1.042427  0  0.124942  0  0.10482  0.113543  0  1.04893  0
H  H18  1  0.52778742  0.81297454  0.91770707  1  0  0.116619  0  0.970033  0  0  0.117336  0  1.046098  0  0  0.122515  0  1.042459  0  0.124949  0  0.104795  0.113523  0  1.048959  0
H  H19  1  0.47221439  0.18702845  0.41770707  1  0  0.116595  0  0.970006  0  0  0.117328  0  1.046066  0  0  0.122493  0  1.042436  0  0.124962  0  0.104789  0.113515  0  1.048928  0
H  H20  1  0.03027462  0.64607786  0.98981794  1  0  0.121299  0  0.968998  0  0  0.124622  0  1.039773  0  0  0.128955  0  1.03743  0  0.152406  0  0.106613  0.121426  0  1.041738  0
H  H21  1  0.85392651  0.53027859  0.23981851  1  0  0.121287  0  0.968985  0  0  0.124593  0  1.039784  0  0  0.128925  0  1.037447  0  0.15242  0  0.106596  0.121398  0  1.041749  0
H  H22  1  0.14607278  0.46972061  0.73981907  1  0  0.121337  0  0.969035  0  0  0.124648  0  1.03982  0  0  0.12898  0  1.037482  0  0.152438  0  0.106614  0.121452  0  1.041785  0
H  H23  1  0.53027552  0.85392283  0.76018149  1  0  0.121318  0  0.969016  0  0  0.124638  0  1.039791  0  0  0.128972  0  1.037447  0  0.152414  0  0.106623  0.121444  0  1.041755  0
H  H24  1  0.46972503  0.14608015  0.26018149  1  0  0.121263  0  0.969092  0  0  0.12461  0  1.039844  0  0  0.128943  0  1.037502  0  0.152475  0  0.106604  0.121413  0  1.04181  0
H  H25  1  0.96972341  0.35392386  0.48981963  1  0  0.121312  0  0.969  0  0  0.124633  0  1.039775  0  0  0.128967  0  1.037431  0  0.15246  0  0.106615  0.121437  0  1.04174  0
H  H26  1  0.64607369  0.03027962  0.01018149  1  0  0.12134  0  0.969042  0  0  0.124655  0  1.039821  0  0  0.128987  0  1.037484  0  0.152413  0  0.106617  0.12146  0  1.041785  0
H  H27  1  0.35392813  0.96972084  0.51018149  1  0  0.121279  0  0.969058  0  0  0.124606  0  1.039817  0  0  0.128938  0  1.037479  0  0.152426  0  0.106596  0.12141  0  1.041782  0
H  H28  1  0.24467241  0.87732330  0.99026520  1  0  0.08023  0  0.955934  0  0  0.08859  0  1.020588  0  0  0.090751  0  1.018906  0  0.092269  0  0.11641  0.086957  0  1.021918  0
H  H29  1  0.62267445  0.74467610  0.24026576  1  0  0.080246  0  0.955958  0  0  0.088613  0  1.020605  0  0  0.090774  0  1.018922  0  0.092201  0  0.116398  0.086979  0  1.021936  0
H  H30  1  0.37732736  0.25532310  0.74026520  1  0  0.080241  0  0.955906  0  0  0.088627  0  1.020536  0  0  0.090789  0  1.018852  0  0.092187  0  0.116398  0.086994  0  1.021868  0
H  H31  1  0.74467584  0.62267613  0.75973480  1  0  0.080212  0  0.95593  0  0  0.088568  0  1.020592  0  0  0.09073  0  1.018909  0  0.092211  0  0.116389  0.086935  0  1.021922  0
H  H32  1  0.25532849  0.37732433  0.25973480  1  0  0.080232  0  0.955931  0  0  0.088584  0  1.020583  0  0  0.090744  0  1.0189  0  0.092272  0  0.11641  0.086951  0  1.021913  0
H  H33  1  0.75532309  0.12267590  0.49026576  1  0  0.080217  0  0.955946  0  0  0.088592  0  1.020588  0  0  0.090754  0  1.018905  0  0.092209  0  0.116395  0.086959  0  1.021917  0
H  H34  1  0.87732701  0.24467839  0.00973424  1  0  0.080227  0  0.95595  0  0  0.088589  0  1.020594  0  0  0.090751  0  1.018909  0  0.092179  0  0.116392  0.086955  0  1.021926  0
H  H35  1  0.12267354  0.75532081  0.50973537  1  0  0.080221  0  0.955921  0  0  0.088641  0  1.020517  0  0  0.090802  0  1.018833  0  0.092167  0  0.116394  0.087007  0  1.021848  0
C  C36  1  0.57511681  0.42647086  0.04526272  1  0  0.137097  0  3.681804  0  0  0.102004  0  3.936351  0  0  0.109232  0  3.954781  0  0.460609  0  0.047985  0.097301  0  3.923892  0
C  C37  1  0.07352695  0.07511328  0.29526328  1  0  0.137214  0  3.681658  0  0  0.102097  0  3.936195  0  0  0.109328  0  3.954616  0  0.460593  0  0.048035  0.097392  0  3.923739  0
C  C38  1  0.92647486  0.92488592  0.79526441  1  0  0.137107  0  3.681803  0  0  0.102006  0  3.936381  0  0  0.109237  0  3.954805  0  0.460564  0  0.048023  0.097302  0  3.923922  0
C  C39  1  0.07511716  0.07352937  0.70473728  1  0  0.137035  0  3.681871  0  0  0.101943  0  3.936419  0  0  0.109173  0  3.954849  0  0.460599  0  0.047961  0.097242  0  3.923958  0
C  C40  1  0.92488213  0.92647109  0.20473503  1  0  0.137268  0  3.681878  0  0  0.102206  0  3.936392  0  0  0.109438  0  3.954811  0  0.460462  0  0.048108  0.097501  0  3.923933  0
C  C41  1  0.42488374  0.57352834  0.54526385  1  0  0.137224  0  3.68175  0  0  0.102123  0  3.936321  0  0  0.109355  0  3.954745  0  0.460605  0  0.048029  0.097419  0  3.923862  0
C  C42  1  0.42647396  0.57511603  0.95473615  1  0  0.137304  0  3.681729  0  0  0.102192  0  3.936251  0  0  0.109423  0  3.95468  0  0.4606  0  0.048085  0.097487  0  3.923793  0
C  C43  1  0.57352533  0.42488569  0.45473672  1  0  0.13715  0  3.681822  0  0  0.102061  0  3.936383  0  0  0.109289  0  3.954803  0  0.460589  0  0.04804  0.097356  0  3.923924  0
C  C44  1  0.70361904  0.54554135  0.04578207  1  0  -0.150738  0  3.670717  0  0  -0.164416  0  3.914924  0  0  -0.172242  0  3.934131  0  -0.022391  0  -0.07943  -0.159356  0  3.902206  0
C  C45  1  0.95445432  0.20361534  0.29578264  1  0  -0.150671  0  3.670619  0  0  -0.164402  0  3.914809  0  0  -0.172203  0  3.934035  0  -0.022318  0  -0.07941  -0.159341  0  3.902092  0
C  C46  1  0.04554371  0.79638639  0.79578433  1  0  -0.150688  0  3.670658  0  0  -0.164408  0  3.914848  0  0  -0.172214  0  3.934091  0  -0.022305  0  -0.079428  -0.159346  0  3.90213  0
C  C47  1  0.20361687  0.95445934  0.70421736  1  0  -0.150782  0  3.670727  0  0  -0.164459  0  3.914919  0  0  -0.172289  0  3.934138  0  -0.022365  0  -0.079436  -0.159399  0  3.902201  0
C  C48  1  0.79637990  0.04553986  0.20421511  1  0  -0.150967  0  3.670703  0  0  -0.164707  0  3.914865  0  0  -0.172495  0  3.934108  0  -0.02239  0  -0.0795  -0.159646  0  3.902152  0
C  C49  1  0.29638277  0.45445659  0.54578320  1  0  -0.15081  0  3.670688  0  0  -0.164519  0  3.914882  0  0  -0.172334  0  3.934105  0  -0.022374  0  -0.079457  -0.159458  0  3.902163  0
C  C50  1  0.54554587  0.70361683  0.95421624  1  0  -0.150776  0  3.670592  0  0  -0.164485  0  3.914817  0  0  -0.172299  0  3.934026  0  -0.022635  0  -0.079425  -0.159425  0  3.902103  0
C  C51  1  0.45445468  0.29638489  0.45421680  1  0  -0.150663  0  3.670629  0  0  -0.164386  0  3.914792  0  0  -0.172197  0  3.93404  0  -0.022309  0  -0.07941  -0.159325  0  3.902075  0
C  C52  1  0.68869675  0.68869455  0.00000169  1  0  0.114285  0  3.733928  0  0  0.12559  0  3.957659  0  0  0.130346  0  3.978012  0  -0.057533  0  0.019199  0.122544  0  3.943766  0
C  C53  1  0.81130471  0.18869558  0.24999887  1  0  0.114276  0  3.733859  0  0  0.125615  0  3.957565  0  0  0.130372  0  3.977906  0  -0.057898  0  0.019193  0.122571  0  3.943671  0
C  C54  1  0.18869584  0.81130236  0.74999887  1  0  0.114311  0  3.733955  0  0  0.125614  0  3.957674  0  0  0.130369  0  3.978021  0  -0.057695  0  0.019209  0.122568  0  3.94378  0
C  C55  1  0.31130255  0.31130339  0.50000056  1  0  0.114276  0  3.733962  0  0  0.125609  0  3.957655  0  0  0.130364  0  3.978001  0  -0.057738  0  0.019197  0.122563  0  3.943762  0
C  C56  1  0.82013350  0.82013743  0.00000282  1  0  0.102485  0  3.743459  0  0  0.116488  0  3.968482  0  0  0.120546  0  3.989145  0  -0.076929  0  0.016585  0.11395  0  3.954356  0
C  C57  1  0.67986544  0.32013468  0.25000000  1  0  0.10246  0  3.74351  0  0  0.116431  0  3.968558  0  0  0.120488  0  3.989225  0  -0.076786  0  0.016568  0.113895  0  3.954429  0
C  C58  1  0.32013259  0.67986326  0.74999662  1  0  0.102428  0  3.74356  0  0  0.11646  0  3.968532  0  0  0.12052  0  3.989193  0  -0.077013  0  0.016578  0.113922  0  3.954406  0
C  C59  1  0.17986706  0.17986303  0.50000113  1  0  0.102428  0  3.743539  0  0  0.116442  0  3.968517  0  0  0.120501  0  3.989181  0  -0.077006  0  0.016575  0.113905  0  3.95439  0
C  C60  1  0.99115916  0.77719790  0.99526441  1  0  -0.153336  0  3.678543  0  0  -0.171159  0  3.928306  0  0  -0.178727  0  3.94795  0  0.009544  0  -0.081158  -0.166341  0  3.915384  0
C  C61  1  0.72280503  0.49116263  0.24526385  1  0  -0.153314  0  3.678553  0  0  -0.171122  0  3.928333  0  0  -0.178693  0  3.947981  0  0.009482  0  -0.081165  -0.166305  0  3.915412  0
C  C62  1  0.27719426  0.50883531  0.74526159  1  0  -0.15343  0  3.678663  0  0  -0.171282  0  3.928437  0  0  -0.178853  0  3.948082  0  0.009482  0  -0.081246  -0.166464  0  3.915517  0
C  C63  1  0.49116077  0.72280279  0.75473277  1  0  -0.153315  0  3.678567  0  0  -0.17114  0  3.928311  0  0  -0.17871  0  3.947958  0  0.009552  0  -0.081147  -0.166321  0  3.91539  0
C  C64  1  0.50883852  0.27719893  0.25473728  1  0  -0.153334  0  3.678701  0  0  -0.171193  0  3.928474  0  0  -0.17876  0  3.948114  0  0.009468  0  -0.081209  -0.166376  0  3.915554  0
C  C65  1  0.00883887  0.22280256  0.49526554  1  0  -0.153295  0  3.678595  0  0  -0.171112  0  3.928344  0  0  -0.178681  0  3.94799  0  0.009508  0  -0.081144  -0.166294  0  3.915422  0
C  C66  1  0.77719517  0.99116412  0.00473784  1  0  -0.153437  0  3.678672  0  0  -0.171276  0  3.928446  0  0  -0.178848  0  3.948093  0  0.00951  0  -0.081236  -0.166459  0  3.915526  0
C  C67  1  0.22280538  0.00883381  0.50473672  1  0  -0.153376  0  3.678654  0  0  -0.171226  0  3.928445  0  0  -0.178797  0  3.948091  0  0.009498  0  -0.081222  -0.166409  0  3.915524  0
C  C68  1  0.11074000  0.90507447  0.99484476  1  0  0.140196  0  3.700232  0  0  0.104774  0  3.954999  0  0  0.112445  0  3.972918  0  0.489846  0  0.048131  0.099674  0  3.943033  0
C  C69  1  0.59492451  0.61074386  0.24484645  1  0  0.140154  0  3.700303  0  0  0.104727  0  3.955038  0  0  0.112398  0  3.972957  0  0.490459  0  0.04816  0.099628  0  3.94307  0
C  C70  1  0.40507605  0.38925534  0.74484532  1  0  0.1402  0  3.700046  0  0  0.10478  0  3.954759  0  0  0.112453  0  3.972674  0  0.489922  0  0.048161  0.09968  0  3.942795  0
C  C71  1  0.61074216  0.59492496  0.75515412  1  0  0.140223  0  3.700264  0  0  0.104793  0  3.955024  0  0  0.112462  0  3.972946  0  0.489892  0  0.048162  0.099694  0  3.943051  0
C  C72  1  0.38925839  0.40507676  0.25515524  1  0  0.140178  0  3.700227  0  0  0.10478  0  3.954962  0  0  0.112452  0  3.972877  0  0.489843  0  0.048154  0.09968  0  3.942998  0
C  C73  1  0.88925803  0.09492473  0.49484645  1  0  0.14017  0  3.700185  0  0  0.104727  0  3.954954  0  0  0.112396  0  3.972874  0  0.489901  0  0.048131  0.099629  0  3.942983  0
C  C74  1  0.90507569  0.11074489  0.00515355  1  0  0.140164  0  3.700162  0  0  0.104774  0  3.954887  0  0  0.112447  0  3.972803  0  0.489905  0  0.048149  0.099672  0  3.942924  0
C  C75  1  0.09492486  0.88925431  0.50515412  1  0  0.140235  0  3.700176  0  0  0.104795  0  3.954903  0  0  0.11247  0  3.972818  0  0.489895  0  0.048194  0.099695  0  3.942939  0
N  N76  1  0.50552946  0.18790111  0.87775112  1  0  0.228516  0  3.146877  0  0  0.211134  0  3.478687  0  0  0.234893  0  3.479282  0  0.499617  0  -0.055228  0.195728  0  3.477481  0
N  N77  1  0.31209828  0.00552980  0.12775168  1  0  0.228507  0  3.146913  0  0  0.211129  0  3.478728  0  0  0.234886  0  3.479323  0  0.4996  0  -0.055224  0.195722  0  3.477523  0
N  N78  1  0.68790101  0.99447066  0.62775112  1  0  0.22854  0  3.146853  0  0  0.211169  0  3.478655  0  0  0.234927  0  3.479248  0  0.499606  0  -0.055217  0.195762  0  3.477448  0
N  N79  1  0.00553107  0.31209786  0.87224888  1  0  0.228525  0  3.146845  0  0  0.211156  0  3.478646  0  0  0.234912  0  3.479242  0  0.4996  0  -0.055208  0.195749  0  3.477441  0
N  N80  1  0.99447074  0.68790134  0.37224888  1  0  0.228569  0  3.146813  0  0  0.211192  0  3.478622  0  0  0.234951  0  3.479214  0  0.499626  0  -0.055201  0.195786  0  3.477416  0
N  N81  1  0.49446983  0.81209935  0.37775112  1  0  0.228538  0  3.146819  0  0  0.211159  0  3.478638  0  0  0.234918  0  3.47923  0  0.499643  0  -0.055199  0.195752  0  3.477432  0
N  N82  1  0.18790136  0.50552877  0.12224888  1  0  0.22855  0  3.146813  0  0  0.211167  0  3.478629  0  0  0.234925  0  3.479223  0  0.499609  0  -0.055207  0.195761  0  3.477422  0
N  N83  1  0.81209919  0.49447169  0.62224888  1  0  0.228567  0  3.146815  0  0  0.2112  0  3.478613  0  0  0.234958  0  3.479205  0  0.499612  0  -0.055213  0.195792  0  3.477406  0
N  N84  1  0.43943276  0.43943343  0.99999944  1  0  -0.325026  0  3.338648  0  0  -0.243888  0  3.612496  0  0  -0.264359  0  3.629069  0  -1.235349  0  -0.323828  -0.230184  0  3.60122  0
N  N85  1  0.06056436  0.93943240  0.24999831  1  0  -0.325066  0  3.338664  0  0  -0.243949  0  3.612549  0  0  -0.264417  0  3.629117  0  -1.235324  0  -0.323887  -0.230245  0  3.601274  0
N  N86  1  0.93943114  0.06056807  0.75000056  1  0  -0.324882  0  3.338645  0  0  -0.243732  0  3.612456  0  0  -0.2642  0  3.629027  0  -1.235501  0  -0.323793  -0.230029  0  3.601179  0
N  N87  1  0.56056779  0.56056830  0.50000056  1  0  -0.324959  0  3.338681  0  0  -0.243818  0  3.612506  0  0  -0.264284  0  3.629075  0  -1.23551  0  -0.323824  -0.230115  0  3.60123  0
N  N88  1  0.06909175  0.06909040  0.00000000  1  0  -0.323244  0  3.336331  0  0  -0.240157  0  3.604176  0  0  -0.260595  0  3.620503  0  -1.229738  0  -0.326526  -0.226401  0  3.593054  0
N  N89  1  0.43091042  0.56909063  0.25000056  1  0  -0.323266  0  3.336476  0  0  -0.240147  0  3.604282  0  0  -0.260583  0  3.620608  0  -1.230321  0  -0.326542  -0.226391  0  3.59316  0
N  N90  1  0.56909266  0.43090857  0.75000056  1  0  -0.32328  0  3.336326  0  0  -0.240177  0  3.604175  0  0  -0.260615  0  3.6205  0  -1.229754  0  -0.326537  -0.22642  0  3.593052  0
N  N91  1  0.93090754  0.93090754  0.50000000  1  0  -0.323269  0  3.336246  0  0  -0.2402  0  3.60415  0  0  -0.260637  0  3.620475  0  -1.229745  0  -0.326551  -0.226443  0  3.593028  0
O  O92  1  0.60031056  0.09863481  0.83548342  1  0  -0.439368  0  2.007049  0  0  -0.388163  0  2.292854  0  0  -0.411839  0  2.285328  0  -0.645049  0  -0.177854  -0.371635  0  2.297291  0
O  O93  1  0.40136596  0.10030951  0.08548342  1  0  -0.439356  0  2.007039  0  0  -0.388162  0  2.292852  0  0  -0.411833  0  2.285324  0  -0.645046  0  -0.177861  -0.371633  0  2.297292  0
O  O94  1  0.59863585  0.89968969  0.58548342  1  0  -0.439394  0  2.006972  0  0  -0.388199  0  2.292775  0  0  -0.411873  0  2.285252  0  -0.645054  0  -0.177876  -0.371676  0  2.297228  0
O  O95  1  0.10031217  0.40136416  0.91451658  1  0  -0.439347  0  2.007111  0  0  -0.388156  0  2.292926  0  0  -0.41183  0  2.285403  0  -0.645041  0  -0.177836  -0.371621  0  2.297349  0
O  O96  1  0.89968964  0.59863504  0.41451658  1  0  -0.439399  0  2.006961  0  0  -0.388201  0  2.292774  0  0  -0.411874  0  2.285247  0  -0.645042  0  -0.177884  -0.371672  0  2.297213  0
O  O97  1  0.39968747  0.90136565  0.33548342  1  0  -0.439357  0  2.007036  0  0  -0.388165  0  2.292858  0  0  -0.411839  0  2.285332  0  -0.645076  0  -0.177854  -0.371632  0  2.297286  0
O  O98  1  0.09863494  0.60030974  0.16451658  1  0  -0.439388  0  2.006964  0  0  -0.388185  0  2.292772  0  0  -0.411858  0  2.285248  0  -0.645044  0  -0.177878  -0.371662  0  2.297221  0
O  O99  1  0.90136435  0.39969072  0.66451658  1  0  -0.4394  0  2.00696  0  0  -0.388206  0  2.292771  0  0  -0.41188  0  2.285246  0  -0.645042  0  -0.177867  -0.371685  0  2.297231  0
O  O100  1  0.40449847  0.10120109  0.91782254  1  0  -0.425464  0  1.995255  0  0  -0.376443  0  2.278135  0  0  -0.400045  0  2.271614  0  -0.629772  0  -0.175285  -0.35999  0  2.281932  0
O  O101  1  0.39879842  0.90449816  0.16782254  1  0  -0.425481  0  1.995349  0  0  -0.376457  0  2.278228  0  0  -0.400061  0  2.271705  0  -0.629771  0  -0.175286  -0.360003  0  2.282022  0
O  O102  1  0.60120214  0.09550104  0.66782254  1  0  -0.425481  0  1.995316  0  0  -0.376457  0  2.278184  0  0  -0.40006  0  2.271664  0  -0.629755  0  -0.175273  -0.360002  0  2.281978  0
O  O103  1  0.90449938  0.39879788  0.83217746  1  0  -0.425519  0  1.995213  0  0  -0.376496  0  2.278074  0  0  -0.400099  0  2.271554  0  -0.629746  0  -0.175323  -0.360043  0  2.281873  0
O  O104  1  0.09550243  0.60120258  0.33217746  1  0  -0.4255  0  1.995295  0  0  -0.376473  0  2.278162  0  0  -0.400075  0  2.271637  0  -0.629842  0  -0.175284  -0.36002  0  2.281955  0
O  O105  1  0.59550082  0.89879811  0.41782254  1  0  -0.42551  0  1.995244  0  0  -0.376484  0  2.278105  0  0  -0.400087  0  2.271585  0  -0.629759  0  -0.175313  -0.360033  0  2.281902  0
O  O106  1  0.10120249  0.40449793  0.08217746  1  0  -0.425496  0  1.995315  0  0  -0.376467  0  2.27818  0  0  -0.400071  0  2.271665  0  -0.629835  0  -0.175285  -0.360012  0  2.281974  0
O  O107  1  0.89879806  0.59550253  0.58217746  1  0  -0.425505  0  1.995301  0  0  -0.376484  0  2.27817  0  0  -0.40009  0  2.271654  0  -0.629777  0  -0.175284  -0.36003  0  2.281966  0
