# generated using pymatgen
data_FeH8C12(NO2)2
_symmetry_space_group_name_H-M   'P 1'
_cell_length_a   7.04026270
_cell_length_b   24.81195069
_cell_length_c   24.82178176
_cell_angle_alpha   119.99754802
_cell_angle_beta   89.98738412
_cell_angle_gamma   90.00768327
_symmetry_Int_Tables_number   1
_chemical_formula_structural   FeH8C12(NO2)2
_chemical_formula_sum   'Fe6 H48 C72 N12 O24'
_cell_volume   3755.12222866
_cell_formula_units_Z   6
loop_
 _symmetry_equiv_pos_site_id
 _symmetry_equiv_pos_as_xyz
  1  'x, y, z'
loop_
 _atom_site_type_symbol
 _atom_site_label
 _atom_site_symmetry_multiplicity
 _atom_site_fract_x
 _atom_site_fract_y
 _atom_site_fract_z
 _atom_site_occupancy
 _atom_site_pbe_bader_charge
 _atom_site_pbe_bader_spin_density
 _atom_site_pbe_cm5_charge
 _atom_site_pbe_ddec_charge
 _atom_site_pbe_ddec_spin_density
 _atom_site_pbe_ddec_sum_bond_order
 _atom_site_pbe_magmom
Fe  Fe0  1  0.00100671  0.47323744  0.06477887  1  1.490534  3.708431  0.746555  0.901362  3.964594  2.689087  3.677
Fe  Fe1  1  0.99995013  0.59137837  0.52674423  1  1.488427  3.708605  0.74668  0.9005  3.964553  2.691977  3.676
Fe  Fe2  1  0.00084952  0.93515617  0.40838737  1  1.489746  3.708927  0.746482  0.901472  3.96458  2.688182  3.677
Fe  Fe3  1  0.00047086  0.52689895  0.93528082  1  1.490458  3.708651  0.746643  0.901181  3.963458  2.690304  3.677
Fe  Fe4  1  0.99910913  0.40850479  0.47323046  1  1.489821  3.708501  0.746219  0.900613  3.964189  2.68805  3.676
Fe  Fe5  1  0.00017638  0.06471647  0.59145657  1  1.489147  3.708834  0.746844  0.901398  3.964758  2.691411  3.677
H  H6  1  0.99954107  0.72401988  0.08682343  1  0.073334  0.000402  0.106585  0.112757  8.4e-05  0.995174  0.0
H  H7  1  0.99847196  0.36275626  0.27597140  1  0.073799  0.000405  0.106644  0.112683  8.3e-05  0.995276  0.0
H  H8  1  0.00172768  0.91326047  0.63727472  1  0.080869  0.000397  0.106463  0.112502  8.3e-05  0.994948  0.0
H  H9  1  0.00010094  0.27602133  0.91322077  1  0.073017  0.000399  0.106612  0.112621  8.2e-05  0.995129  0.0
H  H10  1  0.99845676  0.63743189  0.72400308  1  0.069921  0.000405  0.106669  0.112796  8.3e-05  0.994874  0.0
H  H11  1  0.00184066  0.08683131  0.36289475  1  0.084117  0.000398  0.106259  0.112296  8.3e-05  0.995675  0.0
H  H12  1  0.99732889  0.82417020  0.18973691  1  0.093034  0.000745  0.107475  0.113665  0.000355  0.992179  0.0
H  H13  1  0.99716126  0.36544458  0.17581233  1  0.103181  0.000743  0.107728  0.114152  0.000353  0.991825  0.0
H  H14  1  0.00255740  0.81043932  0.63473328  1  0.103988  0.000737  0.107569  0.114034  0.000352  0.991995  0.0
H  H15  1  0.99900312  0.17575000  0.81046424  1  0.095355  0.000737  0.107494  0.113999  0.000352  0.992065  0.0
H  H16  1  0.99793941  0.63493549  0.82428057  1  0.100339  0.000736  0.107433  0.113692  0.000352  0.992081  0.0
H  H17  1  0.00346960  0.18972929  0.36561713  1  0.105223  0.000741  0.107759  0.11412  0.000355  0.992401  0.0
H  H18  1  0.99698187  0.72018768  0.28541239  1  0.086989  0.000794  0.106284  0.112804  0.000348  0.99331  0.0
H  H19  1  0.99744441  0.56512118  0.27953679  1  0.066675  0.00081  0.106173  0.112398  0.000349  0.993505  0.0
H  H20  1  0.00191672  0.71430141  0.43513158  1  0.07444  0.000799  0.106284  0.112625  0.000351  0.993515  0.0
H  H21  1  0.99963570  0.27928650  0.71435960  1  0.070243  0.000802  0.106189  0.112675  0.000351  0.993333  0.0
H  H22  1  0.99825840  0.43525376  0.72082544  1  0.069378  0.000809  0.106204  0.112671  0.000351  0.993517  0.0
H  H23  1  0.00348098  0.28556294  0.56520870  1  0.080928  0.0008  0.106283  0.112972  0.000349  0.993605  0.0
H  H24  1  0.99934003  0.62011309  0.18337621  1  0.107674  4.4e-05  0.104661  0.120295  -0.000189  1.039729  0.0
H  H25  1  0.99893287  0.56326413  0.37966436  1  0.119821  3.6e-05  0.104709  0.120177  -0.000193  1.038667  0.0
H  H26  1  0.00140244  0.81625879  0.43685087  1  0.115963  4.8e-05  0.10463  0.120096  -0.000186  1.038684  0.0
H  H27  1  0.00072390  0.37953410  0.81625453  1  0.108833  4.5e-05  0.104802  0.120294  -0.000193  1.037935  0.0
H  H28  1  0.99836931  0.43692749  0.62059504  1  0.125872  4.6e-05  0.1046  0.119832  -0.000186  1.038754  0.0
H  H29  1  0.00161330  0.18353742  0.56331669  1  0.108667  3.6e-05  0.104712  0.120122  -0.000193  1.038603  0.0
H  H30  1  0.32181277  0.56933579  0.11918851  1  0.134605  0.002022  0.125293  0.10347  0.000301  0.997386  0.002
H  H31  1  0.32125928  0.54829950  0.43052439  1  0.13095  0.002027  0.125017  0.10338  0.000307  0.997987  0.002
H  H32  1  0.32158500  0.88049817  0.44954471  1  0.134926  0.002022  0.125064  0.10347  0.000299  0.998563  0.002
H  H33  1  0.32144868  0.43083002  0.88196113  1  0.133718  0.002022  0.124969  0.102688  0.000295  0.999258  0.002
H  H34  1  0.32040726  0.45021105  0.56911098  1  0.126146  0.002027  0.125435  0.10349  0.00032  0.998484  0.002
H  H35  1  0.32127668  0.11826215  0.54871247  1  0.124805  0.002007  0.125049  0.102936  0.000289  0.998888  0.002
H  H36  1  0.67923072  0.43081769  0.88213144  1  0.13158  0.002032  0.125116  0.103293  0.000309  0.9988  0.002
H  H37  1  0.67813814  0.44980080  0.56910214  1  0.1416  0.002029  0.125141  0.103455  0.000293  0.998579  0.002
H  H38  1  0.67902046  0.11810526  0.54854472  1  0.125454  0.002019  0.124854  0.102771  0.000307  0.997826  0.002
H  H39  1  0.67953106  0.56934687  0.11890769  1  0.139457  0.002001  0.125085  0.102883  0.000315  0.998976  0.002
H  H40  1  0.67900591  0.54850480  0.43054009  1  0.130251  0.002015  0.124966  0.102783  0.000287  0.999044  0.002
H  H41  1  0.67935993  0.88088432  0.44997662  1  0.120315  0.002011  0.125515  0.103651  0.000324  0.998093  0.002
H  H42  1  0.32067959  0.37651643  0.00998572  1  0.142889  0.001959  0.129178  0.112021  0.000403  0.98316  0.002
H  H43  1  0.32013589  0.63358099  0.62341690  1  0.141146  0.001938  0.12929  0.11241  0.000414  0.982551  0.002
H  H44  1  0.32074102  0.99047524  0.36679468  1  0.14158  0.001931  0.129128  0.111975  0.000392  0.983575  0.002
H  H45  1  0.32038947  0.62380997  0.98937708  1  0.141493  0.001958  0.129313  0.112304  0.000408  0.982403  0.002
H  H46  1  0.31974571  0.36751142  0.37643075  1  0.125659  0.001915  0.129104  0.111459  0.000403  0.984001  0.002
H  H47  1  0.32013449  0.01063172  0.63403004  1  0.137425  0.00195  0.129321  0.11222  0.000408  0.982507  0.002
H  H48  1  0.68019129  0.62380591  0.98963979  1  0.138959  0.00195  0.129309  0.112197  0.000411  0.98307  0.002
H  H49  1  0.67937139  0.36704266  0.37643360  1  0.13909  0.001932  0.129204  0.112473  0.000391  0.983818  0.002
H  H50  1  0.67991941  0.01036862  0.63374442  1  0.135674  0.001953  0.129361  0.112154  0.000418  0.982903  0.002
H  H51  1  0.68034388  0.37651020  0.00958843  1  0.135242  0.001951  0.128875  0.111414  0.000413  0.983297  0.002
H  H52  1  0.67988673  0.63387698  0.62344504  1  0.145474  0.001938  0.129364  0.112319  0.000403  0.98267  0.002
H  H53  1  0.68037240  0.99094181  0.36729763  1  0.127784  0.00192  0.12911  0.111444  0.000406  0.983786  0.002
C  C54  1  0.00062408  0.60722413  0.06820909  1  1.509369  0.004133  0.219642  0.574612  0.002619  4.181097  0.008
C  C55  1  0.99894576  0.46098344  0.39269400  1  1.523248  0.003931  0.219481  0.572838  0.002554  4.184159  0.008
C  C56  1  0.00113293  0.93156246  0.53881844  1  1.529955  0.004287  0.219884  0.574623  0.002727  4.181585  0.008
C  C57  1  0.00101832  0.39278766  0.93157715  1  1.512497  0.00407  0.219427  0.573808  0.002545  4.182998  0.008
C  C58  1  0.99873571  0.53896225  0.60731812  1  1.523334  0.00423  0.219764  0.573817  0.002794  4.181777  0.008
C  C59  1  0.00120824  0.06824693  0.46104597  1  1.519267  0.003977  0.219708  0.573604  0.002498  4.183287  0.008
C  C60  1  0.99939965  0.66638526  0.12904163  1  -0.056431  0.003053  -0.02399  -0.05257  0.000387  4.010477  0.003
C  C61  1  0.99833370  0.46263082  0.33351362  1  -0.027632  0.003049  -0.024113  -0.052091  0.000383  4.009494  0.003
C  C62  1  0.00171048  0.87081610  0.53739553  1  -0.060549  0.00311  -0.023958  -0.051395  0.000418  4.00879  0.003
C  C63  1  0.00045971  0.33349202  0.87082240  1  -0.043732  0.003098  -0.024459  -0.05299  0.000426  4.009892  0.003
C  C64  1  0.99821429  0.53751212  0.66659385  1  -0.023967  0.003082  -0.0241  -0.051984  0.000412  4.008727  0.003
C  C65  1  0.00195869  0.12910923  0.46271872  1  -0.059191  0.003089  -0.024413  -0.052807  0.000402  4.010215  0.003
C  C66  1  0.99879003  0.72380069  0.13062699  1  0.008423  0.000523  -0.086363  -0.099193  -0.000295  3.985977  0.001
C  C67  1  0.99797487  0.40676538  0.27613187  1  -0.016154  0.000514  -0.086479  -0.099721  -0.000318  3.987152  0.001
C  C68  1  0.00195169  0.86939243  0.59330660  1  0.020312  0.000593  -0.086195  -0.099388  -0.000254  3.984521  0.001
C  C69  1  0.99997805  0.27613614  0.86937624  1  0.009551  0.000515  -0.086196  -0.098827  -0.000309  3.98443  0.001
C  C70  1  0.99819961  0.59346365  0.72391699  1  0.010018  0.00063  -0.086429  -0.099299  -0.000236  3.983073  0.001
C  C71  1  0.00238223  0.13066003  0.40689006  1  -0.033966  0.000466  -0.085864  -0.098476  -0.000338  3.985719  0.001
C  C72  1  0.99753256  0.77908722  0.18736119  1  -0.027556  -0.001068  -0.081421  -0.092374  -0.001611  3.965234  0.0
C  C73  1  0.99724907  0.40817201  0.22084765  1  -0.033363  -0.001066  -0.08183  -0.093076  -0.001607  3.967157  0.0
C  C74  1  0.00243923  0.81270257  0.59198465  1  -0.044684  -0.001085  -0.08169  -0.093573  -0.001621  3.967507  0.0
C  C75  1  0.99934918  0.22076764  0.81270949  1  -0.039528  -0.001069  -0.082073  -0.093891  -0.001607  3.966833  0.0
C  C76  1  0.99791976  0.59215923  0.77927551  1  -0.067895  -0.00108  -0.081471  -0.093145  -0.001619  3.9668  0.0
C  C77  1  0.00329518  0.18739324  0.40832090  1  -0.037859  -0.001018  -0.082102  -0.093771  -0.001594  3.967285  0.0
C  C78  1  0.99689314  0.77761227  0.24317125  1  -0.021059  0.000722  -0.011608  -0.014933  -0.000246  3.966848  0.001
C  C79  1  0.99696475  0.46543096  0.22224539  1  -0.040856  0.0007  -0.011401  -0.01452  -0.00028  3.965449  0.001
C  C80  1  0.00250501  0.75679731  0.53479895  1  -0.051953  0.0008  -0.0114  -0.014175  -0.000205  3.96681  0.001
C  C81  1  0.99917896  0.22208621  0.75683337  1  -0.023315  0.000683  -0.011214  -0.01441  -0.00027  3.967435  0.001
C  C82  1  0.99785464  0.53495849  0.77797831  1  -0.005253  0.000812  -0.011182  -0.014355  -0.000182  3.967055  0.001
C  C83  1  0.00366968  0.24323149  0.46557033  1  0.00546  0.000643  -0.011236  -0.013934  -0.0003  3.96627  0.001
C  C84  1  0.99731105  0.72028740  0.24154616  1  -0.059487  -0.000951  -0.082796  -0.090834  -0.001525  3.96592  0.0
C  C85  1  0.99738751  0.52118402  0.27952597  1  -0.028808  -0.000967  -0.082906  -0.090611  -0.00152  3.965147  0.0
C  C86  1  0.00219132  0.75825155  0.47901846  1  0.024578  -0.000924  -0.083042  -0.090616  -0.001522  3.964482  0.0
C  C87  1  0.99966305  0.27935018  0.75829938  1  -0.043505  -0.000939  -0.08293  -0.090648  -0.001498  3.965768  0.0
C  C88  1  0.99795170  0.47913876  0.72075064  1  -0.063535  -0.000942  -0.083326  -0.091157  -0.001518  3.96438  0.0
C  C89  1  0.00333282  0.24165561  0.52128227  1  -0.065161  -0.000953  -0.082917  -0.091798  -0.001511  3.966045  0.0
C  C90  1  0.99863521  0.66483469  0.18489101  1  -0.020226  0.000796  -0.088742  -0.109874  -0.000118  3.971175  0.001
C  C91  1  0.99813461  0.52002610  0.33499183  1  -0.032164  0.000765  -0.08826  -0.108952  -0.000154  3.97035  0.001
C  C92  1  0.00186862  0.81485853  0.48009937  1  -0.078271  0.000809  -0.088549  -0.10978  -9.2e-05  3.971947  0.001
C  C93  1  0.00029663  0.33487772  0.81488081  1  -0.018301  0.000761  -0.088304  -0.108891  -0.000152  3.970871  0.001
C  C94  1  0.99804122  0.48019940  0.66524099  1  -0.030331  0.000869  -0.088132  -0.108628  -7.8e-05  3.970847  0.001
C  C95  1  0.00237150  0.18499223  0.52009663  1  -0.003495  0.000745  -0.088411  -0.108694  -0.000168  3.970312  0.001
C  C96  1  0.99750571  0.83678797  0.30390006  1  1.508292  -0.00827  0.191916  0.542899  -0.01125  4.209899  -0.008
C  C97  1  0.99781995  0.46696846  0.16304910  1  1.495693  -0.008298  0.191974  0.542976  -0.011252  4.206713  -0.008
C  C98  1  0.00181560  0.69608157  0.53329876  1  1.500376  -0.008183  0.191633  0.542341  -0.011231  4.209746  -0.008
C  C99  1  0.99913311  0.16284469  0.69611876  1  1.500806  -0.00819  0.191678  0.54181  -0.011226  4.210042  -0.008
C  C100  1  0.99865848  0.53347556  0.83717562  1  1.500817  -0.008224  0.192004  0.54274  -0.011192  4.20906  -0.008
C  C101  1  0.00271994  0.30399099  0.46711060  1  1.498501  -0.008259  0.192095  0.542605  -0.011279  4.208375  -0.008
C  C102  1  0.40235484  0.52621873  0.09426696  1  0.378352  -0.020611  0.049119  0.042923  -0.023181  3.919002  -0.007
C  C103  1  0.40171716  0.56703209  0.47368656  1  0.375608  -0.019935  0.049465  0.042803  -0.022387  3.921323  -0.007
C  C104  1  0.40219540  0.90561084  0.43158556  1  0.381822  -0.020721  0.049506  0.042774  -0.023238  3.919469  -0.007
C  C105  1  0.40199311  0.47399297  0.90644058  1  0.380928  -0.020358  0.049268  0.044015  -0.02283  3.92057  -0.007
C  C106  1  0.40086819  0.43209281  0.52602943  1  0.537425  -0.018596  0.049013  0.043293  -0.022133  3.921605  -0.007
C  C107  1  0.40176241  0.09372424  0.56734119  1  0.38022  -0.020322  0.048856  0.042836  -0.022796  3.920702  -0.007
C  C108  1  0.59872720  0.47399319  0.90656524  1  0.54399  -0.018838  0.048939  0.042804  -0.022408  3.92199  -0.007
C  C109  1  0.59764772  0.43181275  0.52603299  1  0.380696  -0.020703  0.049647  0.043076  -0.023231  3.919434  -0.007
C  C110  1  0.59851503  0.09361132  0.56722526  1  0.549973  -0.018804  0.049296  0.043829  -0.022433  3.920501  -0.007
C  C111  1  0.59910468  0.52620932  0.09404841  1  0.531464  -0.018594  0.049377  0.043801  -0.022131  3.920798  -0.007
C  C112  1  0.59847405  0.56716864  0.47369675  1  0.548046  -0.019206  0.04868  0.043291  -0.022837  3.92006  -0.007
C  C113  1  0.59895790  0.90588258  0.43186908  1  0.551061  -0.018585  0.049046  0.043568  -0.022148  3.921491  -0.007
C  C114  1  0.40220996  0.41954008  0.03390995  1  0.37486  -0.021569  0.050315  0.038619  -0.024122  3.924335  -0.008
C  C115  1  0.40158372  0.61427140  0.58038506  1  0.379794  -0.02095  0.050285  0.038813  -0.023359  3.925064  -0.007
C  C116  1  0.40217415  0.96639029  0.38572315  1  0.383642  -0.021609  0.049865  0.038033  -0.02415  3.924178  -0.008
C  C117  1  0.40188271  0.58076001  0.96582476  1  0.370188  -0.021306  0.050052  0.038317  -0.023834  3.924743  -0.007
C  C118  1  0.40098061  0.38624080  0.41943662  1  0.556284  -0.019478  0.050509  0.040048  -0.023063  3.924647  -0.007
C  C119  1  0.40165417  0.03422280  0.61457526  1  0.384436  -0.0214  0.049994  0.038616  -0.02384  3.924543  -0.007
C  C120  1  0.59878866  0.58074863  0.96596666  1  0.537822  -0.019715  0.049929  0.038794  -0.023395  3.926041  -0.007
C  C121  1  0.59785531  0.38595321  0.41941869  1  0.387346  -0.021613  0.049398  0.03668  -0.024141  3.925503  -0.008
C  C122  1  0.59852186  0.03409286  0.61442881  1  0.55757  -0.019715  0.050163  0.038784  -0.023393  3.926452  -0.007
C  C123  1  0.59905639  0.41955183  0.03369442  1  0.543666  -0.019532  0.05039  0.039501  -0.02313  3.925213  -0.007
C  C124  1  0.59846276  0.61443025  0.58040358  1  0.545352  -0.020175  0.049881  0.038284  -0.023873  3.924496  -0.007
C  C125  1  0.59904459  0.96665322  0.38602112  1  0.548613  -0.019415  0.050359  0.039922  -0.023043  3.925365  -0.007
N  N126  1  0.30126151  0.47294723  0.06359540  1  -1.204847  0.001649  -0.322205  -0.210826  -0.014146  3.543132  0.0
N  N127  1  0.30063490  0.58993332  0.52696307  1  -1.219487  0.000671  -0.32167  -0.21062  -0.014843  3.542432  -0.001
N  N128  1  0.30114655  0.93646691  0.40918732  1  -1.218976  0.001538  -0.321943  -0.210586  -0.014187  3.542254  0.0
N  N129  1  0.30089955  0.52730660  0.93666898  1  -1.210375  0.001195  -0.321446  -0.210461  -0.014411  3.542363  -0.001
N  N130  1  0.29996100  0.40997783  0.47280759  1  -1.214296  6e-06  -0.321729  -0.211027  -0.015174  3.542504  -0.001
N  N131  1  0.30066103  0.06343471  0.59035278  1  -1.218947  0.001016  -0.321518  -0.210775  -0.014486  3.542106  -0.001
N  N132  1  0.69976098  0.52729521  0.93695094  1  -1.211789  0.000423  -0.321495  -0.211079  -0.014845  3.544292  -0.001
N  N133  1  0.69880110  0.40940066  0.47279375  1  -1.223725  0.00155  -0.321977  -0.210299  -0.014215  3.543175  0.0
N  N134  1  0.69949989  0.06319313  0.59009383  1  -1.220509  0.000674  -0.321557  -0.210774  -0.014762  3.542856  -0.001
N  N135  1  0.70006215  0.47295187  0.06314763  1  -1.21931  -8.9e-05  -0.321434  -0.211103  -0.015199  3.542047  -0.001
N  N136  1  0.69951638  0.59022604  0.52699030  1  -1.220907  0.001021  -0.321586  -0.210772  -0.014462  3.541969  -0.001
N  N137  1  0.69996254  0.93700693  0.40976978  1  -1.213858  9e-06  -0.321725  -0.211647  -0.015147  3.543723  -0.001
O  O138  1  0.00148468  0.55562856  0.06753243  1  -1.202236  0.090853  -0.319196  -0.57388  0.043353  2.511743  0.065
O  O139  1  0.99975739  0.51194049  0.44421724  1  -1.214222  0.090526  -0.318879  -0.572865  0.043259  2.513533  0.065
O  O140  1  0.00131434  0.93190071  0.48774743  1  -1.200262  0.090015  -0.319131  -0.573558  0.043084  2.510636  0.065
O  O141  1  0.00099300  0.44422482  0.93195211  1  -1.20256  0.090086  -0.318861  -0.573008  0.043047  2.51309  0.065
O  O142  1  0.99839844  0.48789982  0.55588164  1  -1.212755  0.09021  -0.319083  -0.573376  0.043127  2.510742  0.065
O  O143  1  0.00049417  0.06761058  0.51196134  1  -1.200664  0.0907  -0.318973  -0.573379  0.043343  2.513917  0.065
O  O144  1  0.00060827  0.61045794  0.01830965  1  -1.154918  0.093921  -0.308456  -0.531046  0.044032  2.339257  0.067
O  O145  1  0.99863796  0.40786737  0.38955240  1  -1.153462  0.093562  -0.308242  -0.53051  0.043897  2.33874  0.067
O  O146  1  0.00043532  0.98161922  0.59182693  1  -1.16929  0.093739  -0.30849  -0.531048  0.043983  2.340594  0.067
O  O147  1  0.00135230  0.38977829  0.98160838  1  -1.154557  0.093513  -0.308325  -0.531087  0.043904  2.33905  0.067
O  O148  1  0.99955631  0.59200272  0.61032178  1  -1.153645  0.093873  -0.308426  -0.530519  0.044026  2.340624  0.067
O  O149  1  0.00132497  0.01829827  0.40793109  1  -1.162851  0.093515  -0.308467  -0.530902  0.04393  2.338959  0.067
O  O150  1  0.99828565  0.83508453  0.35484327  1  -1.158613  0.092386  -0.324347  -0.553495  0.041965  2.228393  0.076
O  O151  1  0.99880714  0.51964481  0.16476198  1  -1.154812  0.092271  -0.324272  -0.553453  0.04192  2.228633  0.076
O  O152  1  0.00127855  0.64513143  0.48062956  1  -1.147954  0.092558  -0.324483  -0.552871  0.042131  2.228815  0.076
O  O153  1  0.99932189  0.16460852  0.64519495  1  -1.15493  0.09249  -0.324301  -0.552833  0.042065  2.22945  0.076
O  O154  1  0.99923515  0.48079470  0.83545351  1  -1.151832  0.09267  -0.324401  -0.552849  0.04212  2.227798  0.076
O  O155  1  0.00167610  0.35496863  0.51974593  1  -1.14889  0.092244  -0.324331  -0.553165  0.041955  2.228274  0.076
O  O156  1  0.99819870  0.88917987  0.30592455  1  -1.136272  0.084701  -0.320289  -0.532992  0.038346  2.157961  0.072
O  O157  1  0.99839650  0.41659144  0.11067881  1  -1.128424  0.084606  -0.320243  -0.533245  0.038264  2.155555  0.072
O  O158  1  0.00133438  0.69402497  0.58362097  1  -1.140049  0.084599  -0.32017  -0.533141  0.038262  2.157142  0.072
O  O159  1  0.99927248  0.11044216  0.69406781  1  -1.136155  0.08429  -0.320169  -0.532778  0.038199  2.156817  0.072
O  O160  1  0.99913585  0.58383583  0.88954167  1  -1.134493  0.084599  -0.320571  -0.53347  0.038231  2.156646  0.072
O  O161  1  0.00204780  0.30598163  0.41674156  1  -1.136572  0.084813  -0.320372  -0.532739  0.03833  2.157329  0.072
