# generated using pymatgen
data_CuH8C12(NO2)2
_symmetry_space_group_name_H-M   'P 1'
_cell_length_a   4.95556363
_cell_length_b   10.96396252
_cell_length_c   12.75267625
_cell_angle_alpha   88.61084328
_cell_angle_beta   78.80826402
_cell_angle_gamma   82.79174582
_symmetry_Int_Tables_number   1
_chemical_formula_structural   CuH8C12(NO2)2
_chemical_formula_sum   'Cu2 H16 C24 N4 O8'
_cell_volume   674.33773042
_cell_formula_units_Z   2
loop_
 _symmetry_equiv_pos_site_id
 _symmetry_equiv_pos_as_xyz
  1  'x, y, z'
loop_
 _atom_site_type_symbol
 _atom_site_label
 _atom_site_symmetry_multiplicity
 _atom_site_fract_x
 _atom_site_fract_y
 _atom_site_fract_z
 _atom_site_occupancy
 _atom_site_hle17_ddec_charge
 _atom_site_hle17_ddec_spin_density
 _atom_site_hle17_ddec_sum_bond_order
 _atom_site_hle17_magmom
 _atom_site_hse06_10hf_ddec_charge
 _atom_site_hse06_10hf_ddec_spin_density
 _atom_site_hse06_10hf_ddec_sum_bond_order
 _atom_site_hse06_10hf_magmom
 _atom_site_hse06_ddec_charge
 _atom_site_hse06_ddec_spin_density
 _atom_site_hse06_ddec_sum_bond_order
 _atom_site_hse06_magmom
 _atom_site_pbe_cm5_charge
 _atom_site_pbe_ddec_charge
 _atom_site_pbe_ddec_spin_density
 _atom_site_pbe_ddec_sum_bond_order
 _atom_site_pbe_magmom
Cu  Cu0  1  0.94659113  0.21741322  0.22774744  1  0.864934  0.742033  1.768334  0.512  0.838399  0.811391  2.153147  0.623  0.92661  0.887803  2.087496  0.707  0.745492  0.785761  0.757865  2.198203  0.57
Cu  Cu1  1  0.17454539  0.71748283  0.77222630  1  0.863797  -0.742181  1.769282  -0.512  0.83618  -0.811451  2.15505  -0.623  0.924808  -0.887835  2.088828  -0.707  0.744938  0.783175  -0.757939  2.200435  -0.57
H  H2  1  0.11007933  0.48398924  0.67426563  1  0.091706  -0.001274  0.951827  -0.002  0.099038  -0.000989  1.014475  -0.002  0.101175  -0.000719  1.012546  -0.001  0.118197  0.097312  -0.001195  1.016008  -0.002
H  H3  1  0.78458839  0.98377311  0.32564773  1  0.092337  0.001282  0.95266  0.002  0.098925  0.000997  1.016029  0.002  0.101019  0.000724  1.014173  0.001  0.118381  0.097228  0.001204  1.017509  0.002
H  H4  1  0.34567328  0.36138070  0.50971684  1  0.112038  -0.000167  0.958641  0.0  0.121917  -0.000228  1.019505  -0.001  0.124588  -0.000169  1.019035  0.0  0.11073  0.119994  -0.000281  1.019945  -0.001
H  H5  1  0.85571970  0.86129109  0.49022900  1  0.111188  0.000176  0.959378  0.0  0.121046  0.000232  1.020401  0.001  0.123726  0.000172  1.019906  0.0  0.110242  0.119116  0.000285  1.020838  0.001
H  H6  1  0.93310825  0.62401481  0.44692775  1  0.11739  -0.000471  0.937433  0.0  0.126981  -0.000483  0.994204  0.0  0.130715  -0.00034  0.992638  0.0  0.111516  0.124287  -0.000611  0.995423  -0.001
H  H7  1  0.38006787  0.12408902  0.55303242  1  0.11628  0.000468  0.938763  0.0  0.126206  0.000484  0.995307  0.0  0.129945  0.00034  0.993752  0.0  0.111381  0.123508  0.000611  0.996524  0.001
H  H8  1  0.68088770  0.73436544  0.61592154  1  0.098539  -0.001041  0.964279  -0.002  0.099921  -0.000734  1.040794  -0.001  0.10301  -0.000495  1.03666  -0.001  0.119101  0.097368  -0.000939  1.044142  -0.001
H  H9  1  0.29685165  0.23425394  0.38397580  1  0.098257  0.001045  0.964673  0.002  0.099345  0.000736  1.041211  0.001  0.1024  0.000496  1.037143  0.001  0.119068  0.09681  0.000942  1.044535  0.001
H  H10  1  0.67814766  0.90151201  0.78877468  1  0.108448  -0.000728  0.966402  -0.002  0.111476  -0.000534  1.037781  -0.001  0.115188  -0.000358  1.033637  -0.001  0.120381  0.108546  -0.000692  1.041189  -0.001
H  H11  1  0.46666368  0.40155859  0.21121237  1  0.107427  0.00072  0.967931  0.002  0.110635  0.000529  1.039283  0.001  0.114357  0.000355  1.035122  0.001  0.120083  0.10771  0.000686  1.042691  0.001
H  H12  1  0.38927886  0.04546773  0.92606167  1  0.118982  -0.000222  0.932998  0.0  0.130983  -0.000305  0.985715  0.0  0.134645  -0.000225  0.984357  0.0  0.114092  0.128421  -0.000362  0.98667  -0.001
H  H13  1  0.31538439  0.54560765  0.07391967  1  0.119117  0.00022  0.933268  0.0  0.130884  0.000307  0.98617  0.0  0.134526  0.000226  0.984812  0.0  0.113698  0.128322  0.000365  0.98715  0.001
H  H14  1  0.93981977  0.91992649  0.14020974  1  0.114313  -0.000409  0.946805  0.0  0.12332  -0.000405  1.005737  0.0  0.126795  -0.000296  1.004092  0.0  0.111737  0.120723  -0.000493  1.007172  -0.001
H  H15  1  0.07999968  0.41999991  0.85991430  1  0.113812  0.000419  0.946266  0.0  0.122474  0.000423  1.00571  0.0  0.125974  0.000308  1.004034  0.0  0.111259  0.119869  0.000517  1.007168  0.001
H  H16  1  0.20050463  0.77377295  0.99582061  1  0.087347  -0.000702  0.957038  -0.002  0.095548  -0.000534  1.017734  -0.001  0.097857  -0.000375  1.016118  -0.001  0.117248  0.093829  -0.000666  1.018921  -0.001
H  H17  1  0.19606344  0.27375981  0.00425129  1  0.087211  0.000705  0.957043  0.002  0.09558  0.000539  1.017673  0.001  0.09794  0.000379  1.015983  0.001  0.116756  0.093809  0.000674  1.018928  0.001
C  C18  1  0.29528464  0.51002034  0.62193650  1  0.115679  0.00931  3.686018  0.01  0.087133  0.000498  3.94183  0.001  0.094123  0.001866  3.962097  0.003  0.045624  0.082677  -0.000567  3.928478  0.0
C  C19  1  0.91750654  0.00982715  0.37796814  1  0.115363  -0.009317  3.686367  -0.01  0.08767  -0.000488  3.942745  -0.001  0.094649  -0.001859  3.963003  -0.003  0.045855  0.083229  0.000569  3.929411  0.0
C  C20  1  0.42579031  0.44345258  0.53069317  1  -0.116984  -0.014092  3.704805  -0.014  -0.137946  -0.00442  3.947456  -0.005  -0.14259  -0.00426  3.967167  -0.005  -0.076727  -0.13498  -0.004564  3.934258  -0.006
C  C21  1  0.95679995  0.94335007  0.46924366  1  -0.115746  0.014074  3.70347  0.014  -0.136566  0.004398  3.945511  0.005  -0.141239  0.004246  3.96527  0.005  -0.076353  -0.133576  0.004547  3.932271  0.005
C  C22  1  0.65812109  0.48425952  0.46573990  1  0.008494  0.021342  3.712558  0.021  0.029908  0.008752  3.934469  0.009  0.02866  0.00747  3.953179  0.008  0.006035  0.030663  0.009738  3.921905  0.01
C  C23  1  0.12399898  0.98428993  0.53427111  1  0.006417  -0.021399  3.712279  -0.021  0.028134  -0.008785  3.933888  -0.009  0.02688  -0.007488  3.952593  -0.008  0.005253  0.0289  -0.009784  3.921323  -0.01
C  C24  1  0.75027098  0.59129599  0.49559852  1  -0.127142  -0.012529  3.708168  -0.012  -0.146531  -0.003565  3.95018  -0.004  -0.153139  -0.00363  3.971212  -0.004  -0.077477  -0.142276  -0.003453  3.936081  -0.004
C  C25  1  0.24596214  0.09130249  0.50437441  1  -0.125217  0.012565  3.71031  0.012  -0.145024  0.003581  3.951869  0.004  -0.151631  0.003644  3.972918  0.004  -0.077572  -0.140775  0.003474  3.937746  0.004
C  C26  1  0.61093971  0.65277309  0.58814271  1  0.126459  0.011365  3.670977  0.012  0.094156  0.001846  3.933537  0.003  0.102864  0.002939  3.950582  0.004  0.046338  0.088492  0.000979  3.922511  0.002
C  C27  1  0.19913704  0.15268093  0.41179318  1  0.127024  -0.011387  3.674234  -0.012  0.095443  -0.001848  3.937018  -0.003  0.104157  -0.002943  3.954016  -0.004  0.046727  0.08978  -0.000989  3.926034  -0.002
C  C28  1  0.81583996  0.41428879  0.36756414  1  0.608653  -0.00507  3.933973  -0.009  0.567058  -0.000235  4.238204  -0.003  0.60284  -0.000757  4.232054  -0.003  0.19746  0.543014  0.000234  4.241516  -0.003
C  C29  1  0.18341411  0.91440975  0.63249127  1  0.608741  0.00507  3.935115  0.009  0.566983  0.000232  4.239439  0.003  0.602755  0.000758  4.233284  0.003  0.197185  0.542936  -0.00025  4.242741  0.003
C  C30  1  0.73006714  0.90769716  0.86748569  1  0.122662  0.00865  3.6533  0.009  0.094073  0.001051  3.908082  0.002  0.102074  0.002159  3.925735  0.003  0.047519  0.088724  0.000216  3.896926  0.001
C  C31  1  0.59741339  0.40776353  0.13255412  1  0.12464  -0.008633  3.656354  -0.009  0.095853  -0.001048  3.910959  -0.002  0.1039  -0.002159  3.92861  -0.003  0.047702  0.090464  -0.000219  3.8998  -0.001
C  C32  1  0.57007049  0.98824621  0.94448966  1  -0.120464  -0.012182  3.704129  -0.012  -0.139709  -0.004073  3.945146  -0.005  -0.144988  -0.003895  3.964615  -0.005  -0.076119  -0.136324  -0.00426  3.932147  -0.005
C  C33  1  0.51452839  0.48834533  0.05554286  1  -0.122216  0.012186  3.704965  0.012  -0.141006  0.004075  3.945802  0.005  -0.146279  0.0039  3.965171  0.005  -0.076192  -0.137626  0.004262  3.932876  0.005
C  C34  1  0.64190626  0.99398392  0.04483160  1  -0.001117  0.018681  3.717497  0.019  0.017732  0.007985  3.943312  0.009  0.015819  0.006788  3.961859  0.008  0.003255  0.018809  0.009071  3.93099  0.01
C  C35  1  0.68674004  0.49405046  0.95523336  1  0.000934  -0.018667  3.714377  -0.019  0.019625  -0.007981  3.939938  -0.009  0.017833  -0.006788  3.958274  -0.008  0.004059  0.020621  -0.009067  3.927759  -0.01
C  C36  1  0.87383065  0.91665460  0.06395524  1  -0.115935  -0.011183  3.719117  -0.011  -0.136176  -0.003371  3.962148  -0.004  -0.141257  -0.003392  3.981426  -0.004  -0.077679  -0.132947  -0.003376  3.949334  -0.004
C  C37  1  0.93775982  0.41672877  0.93614782  1  -0.114411  0.011154  3.717343  0.011  -0.134378  0.003352  3.960315  0.004  -0.139494  0.003376  3.979541  0.004  -0.077044  -0.13113  0.003352  3.947528  0.004
C  C38  1  0.02146375  0.83708131  0.98408448  1  0.115895  0.008535  3.702571  0.009  0.088882  0.00108  3.95799  0.002  0.096481  0.002144  3.977156  0.003  0.042779  0.084017  0.000302  3.945302  0.001
C  C39  1  0.00539709  0.33712529  0.01599169  1  0.116731  -0.00852  3.70415  -0.009  0.089721  -0.001079  3.959316  -0.002  0.09733  -0.002146  3.978502  -0.003  0.043946  0.084867  -0.000301  3.946604  -0.001
C  C40  1  0.47701311  0.07948708  0.13175878  1  0.641893  -0.003405  3.897679  -0.007  0.601639  0.000598  4.19536  -0.002  0.640116  8.2e-05  4.184628  -0.002  0.209788  0.575591  0.000994  4.201661  -0.002
C  C41  1  0.60902176  0.57950408  0.86824252  1  0.637749  0.003383  3.899214  0.007  0.597784  -0.000593  4.196526  0.002  0.636237  -8.1e-05  4.185751  0.002  0.207607  0.571739  -0.000992  4.202854  0.002
N  N42  1  0.38689573  0.61252015  0.64989005  1  -0.269929  -0.091845  3.333939  -0.111  -0.219133  -0.0602  3.6204  -0.079  -0.249009  -0.05031  3.643577  -0.069  -0.343016  -0.20137  -0.065626  3.606451  -0.083
N  N43  1  0.03691641  0.11235947  0.35000254  1  -0.270827  0.091916  3.335476  0.111  -0.221325  0.060225  3.622946  0.079  -0.251073  0.050324  3.646021  0.069  -0.34321  -0.20372  0.065662  3.60915  0.083
N  N44  1  0.95260222  0.83295802  0.88715259  1  -0.287229  -0.07872  3.310154  -0.095  -0.238971  -0.052517  3.601468  -0.068  -0.267736  -0.043985  3.623354  -0.06  -0.34036  -0.221813  -0.057466  3.588629  -0.072
N  N45  1  0.83951373  0.33298286  0.11289481  1  -0.289555  0.078691  3.312877  0.095  -0.241901  0.052501  3.60493  0.068  -0.270688  0.043978  3.626875  0.06  -0.341216  -0.224748  0.057453  3.592069  0.072
O  O46  1  0.69975827  0.32254204  0.34226998  1  -0.584903  0.109034  2.081172  0.139  -0.560223  0.067427  2.362164  0.096  -0.604888  0.052378  2.35888  0.078  -0.316572  -0.53085  0.076734  2.364438  0.105
O  O47  1  0.04208602  0.82268478  0.65775893  1  -0.586342  -0.108923  2.08099  -0.139  -0.56159  -0.067427  2.362208  -0.096  -0.606285  -0.052392  2.358858  -0.078  -0.316997  -0.532162  -0.076716  2.364492  -0.105
O  O48  1  0.04144240  0.44564537  0.32012906  1  -0.59526  0.00166  1.898791  0.003  -0.569151  0.000429  2.12686  0.002  -0.59299  -0.000515  2.117577  0.0  -0.322313  -0.55265  0.001297  2.132739  0.003
O  O49  1  0.36149532  0.94585057  0.67995895  1  -0.593621  -0.001737  1.899907  -0.003  -0.567579  -0.000465  2.128081  -0.002  -0.591417  0.000495  2.118818  0.0  -0.321389  -0.551073  -0.001351  2.133922  -0.003
O  O50  1  0.23005961  0.12004543  0.11851870  1  -0.613886  0.079897  2.101342  0.102  -0.588249  0.051157  2.391389  0.072  -0.628058  0.039817  2.381611  0.059  -0.323369  -0.561217  0.059273  2.397537  0.081
O  O51  1  0.34882885  0.62007318  0.88139151  1  -0.612061  -0.079802  2.102988  -0.102  -0.586354  -0.051077  2.392858  -0.072  -0.626217  -0.03977  2.383074  -0.059  -0.322834  -0.55923  -0.059172  2.398935  -0.081
O  O52  1  0.58589094  0.10338806  0.20838480  1  -0.619523  0.000348  2.05383  0.002  -0.590013  -0.000238  2.319015  0.001  -0.617017  -0.00102  2.306588  0.0  -0.313041  -0.571544  0.000612  2.327425  0.002
O  O53  1  0.79463999  0.60329716  0.79165159  1  -0.618091  -0.000323  2.054406  -0.002  -0.588825  0.000249  2.319773  -0.001  -0.615999  0.001034  2.307565  0.0  -0.311952  -0.570298  -0.000587  2.328129  -0.002
