# generated using pymatgen
data_MnH7C7NO6
_symmetry_space_group_name_H-M   'P 1'
_cell_length_a   6.25184938
_cell_length_b   10.62851723
_cell_length_c   14.55304062
_cell_angle_alpha   106.86698692
_cell_angle_beta   90.02897824
_cell_angle_gamma   107.08606326
_symmetry_Int_Tables_number   1
_chemical_formula_structural   MnH7C7NO6
_chemical_formula_sum   'Mn4 H28 C28 N4 O24'
_cell_volume   880.67916172
_cell_formula_units_Z   4
loop_
 _symmetry_equiv_pos_site_id
 _symmetry_equiv_pos_as_xyz
  1  'x, y, z'
loop_
 _atom_site_type_symbol
 _atom_site_label
 _atom_site_symmetry_multiplicity
 _atom_site_fract_x
 _atom_site_fract_y
 _atom_site_fract_z
 _atom_site_occupancy
 _atom_site_hle17_ddec_charge
 _atom_site_hle17_ddec_spin_density
 _atom_site_hle17_ddec_sum_bond_order
 _atom_site_hle17_magmom
 _atom_site_hse06_10hf_ddec_charge
 _atom_site_hse06_10hf_ddec_spin_density
 _atom_site_hse06_10hf_ddec_sum_bond_order
 _atom_site_hse06_10hf_magmom
 _atom_site_hse06_ddec_charge
 _atom_site_hse06_ddec_spin_density
 _atom_site_hse06_ddec_sum_bond_order
 _atom_site_hse06_magmom
 _atom_site_pbe_cm5_charge
 _atom_site_pbe_ddec_charge
 _atom_site_pbe_ddec_spin_density
 _atom_site_pbe_ddec_sum_bond_order
 _atom_site_pbe_magmom
Mn  Mn0  1  0.57718322  0.38411894  0.71046565  1  1.256051  4.801767  1.697174  4.694  1.094644  4.721034  2.196074  4.551  1.150257  4.765846  2.122534  4.611  0.617617  1.05392  4.668666  2.24995  4.484
Mn  Mn1  1  0.19298803  0.61591630  0.78951580  1  1.256463  -4.800625  1.696488  -4.694  1.094992  -4.719949  2.195515  -4.552  1.150636  -4.764497  2.121972  -4.611  0.617779  1.054432  -4.667131  2.249282  -4.484
Mn  Mn2  1  0.42282342  0.61588574  0.28953336  1  1.256113  -4.801756  1.697165  -4.694  1.094551  -4.721042  2.196173  -4.551  1.150172  -4.765857  2.122627  -4.611  0.617576  1.053825  -4.668668  2.250067  -4.484
Mn  Mn3  1  0.80700372  0.38408738  0.21049262  1  1.256585  4.800644  1.696337  4.694  1.094957  4.719998  2.195441  4.552  1.150605  4.764532  2.121907  4.611  0.617758  1.054422  4.667214  2.249136  4.484
H  H4  1  0.53995590  0.06719456  0.58355483  1  0.073913  4.9e-05  0.971716  0.0  0.079842  0.000461  1.042795  0.0  0.0824  0.000306  1.040388  0.0  0.117284  0.077712  0.000604  1.045217  0.001
H  H5  1  0.47263753  0.93289744  0.91631097  1  0.073893  -4.7e-05  0.971427  0.0  0.079526  -0.000449  1.04285  0.0  0.082092  -0.000298  1.040465  0.0  0.117298  0.077363  -0.000604  1.045369  -0.001
H  H6  1  0.46000242  0.93279666  0.41643516  1  0.073948  -4.4e-05  0.971562  0.0  0.079956  -0.000462  1.042551  0.0  0.082512  -0.000306  1.040148  0.0  0.117378  0.077825  -0.000604  1.044969  -0.001
H  H7  1  0.52736257  0.06708455  0.08369220  1  0.073872  3.7e-05  0.971483  0.0  0.079485  0.000449  1.04296  0.0  0.082055  0.000298  1.040577  0.0  0.11726  0.077314  0.000604  1.045486  0.001
H  H8  1  0.25463756  0.83388044  0.54582829  1  0.125668  0.00032  0.948095  0.0  0.132837  0.000239  1.010382  0.0  0.137213  0.000245  1.007279  0.0  0.117999  0.129305  0.000265  1.013368  0.0
H  H9  1  0.42039328  0.16616664  0.95402919  1  0.126612  -0.000294  0.947613  0.0  0.134183  -0.000228  1.009127  0.0  0.138596  -0.000237  1.005991  0.0  0.118406  0.130538  -0.000265  1.01221  0.0
H  H10  1  0.74532853  0.16612632  0.45417321  1  0.125622  -0.000317  0.947979  0.0  0.132812  -0.000239  1.010237  0.0  0.137193  -0.000246  1.007126  0.0  0.11797  0.129275  -0.000265  1.013226  0.0
H  H11  1  0.57963235  0.83381843  0.04596982  1  0.126589  0.000307  0.947585  0.0  0.134159  0.000227  1.009109  0.0  0.138561  0.000236  1.005982  0.0  0.118414  0.130513  0.000265  1.012188  0.0
H  H12  1  0.77013796  0.03886151  0.66379523  1  0.118579  0.000131  0.959309  0.0  0.125126  0.000128  1.02542  0.0  0.129323  5.9e-05  1.022384  0.0  0.113683  0.121871  0.000197  1.028034  0.0
H  H13  1  0.73070529  0.96114202  0.83623764  1  0.118916  -0.000112  0.959383  0.0  0.125768  -0.000115  1.024975  0.0  0.129923  -5e-05  1.022045  0.0  0.114092  0.122438  -0.000197  1.027597  0.0
H  H14  1  0.22982721  0.96113700  0.33621073  1  0.11851  -0.000127  0.959569  0.0  0.124978  -0.000128  1.02577  0.0  0.129169  -5.9e-05  1.022741  0.0  0.113637  0.121726  -0.000197  1.028383  0.0
H  H15  1  0.26928770  0.03885132  0.16376654  1  0.118916  0.000111  0.959576  0.0  0.125809  0.000115  1.025105  0.0  0.129959  5e-05  1.022191  0.0  0.114085  0.122488  0.000197  1.027697  0.0
H  H16  1  0.53582586  0.36128481  0.51494520  1  0.419454  0.000488  0.887772  0.002  0.38777  0.001224  0.953325  0.002  0.398582  0.000875  0.937519  0.002  0.294539  0.380151  0.001556  0.96443  0.003
H  H17  1  0.17480265  0.63870177  0.98497557  1  0.418423  -0.000485  0.889175  -0.002  0.38696  -0.001216  0.954354  -0.002  0.397768  -0.000869  0.938581  -0.002  0.294411  0.379378  -0.00156  0.965407  -0.003
H  H18  1  0.46416975  0.63871060  0.48505666  1  0.419446  -0.000488  0.887778  -0.002  0.387779  -0.001224  0.953301  -0.002  0.398583  -0.000875  0.937506  -0.002  0.294547  0.380166  -0.001556  0.964394  -0.003
H  H19  1  0.82520962  0.36128536  0.01502387  1  0.418457  0.000485  0.88913  0.002  0.386921  0.001216  0.954411  0.002  0.397726  0.000868  0.938641  0.002  0.294361  0.379336  0.00156  0.965473  0.003
H  H20  1  0.67646905  0.30864689  0.86788533  1  0.426626  0.000245  0.874338  0.001  0.396329  0.00086  0.937079  0.002  0.406682  0.000581  0.921989  0.002  0.29686  0.389061  0.001111  0.947651  0.002
H  H21  1  0.36795697  0.69147122  0.63223061  1  0.428114  -0.000262  0.872092  -0.001  0.397497  -0.000882  0.935463  -0.002  0.407883  -0.000595  0.920306  -0.002  0.297434  0.39027  -0.00111  0.946013  -0.002
H  H22  1  0.32353733  0.69134126  0.13211090  1  0.426698  -0.000244  0.874274  -0.001  0.396339  -0.00086  0.937136  -0.002  0.406705  -0.000582  0.922022  -0.002  0.296829  0.38907  -0.001112  0.947709  -0.002
H  H23  1  0.63202436  0.30851799  0.36777270  1  0.428252  0.000262  0.871929  0.001  0.397616  0.000882  0.935337  0.002  0.408004  0.000595  0.92018  0.002  0.29746  0.390388  0.00111  0.94589  0.002
H  H24  1  0.69783941  0.51791000  0.56857180  1  0.437498  0.000504  0.861628  0.002  0.403755  0.001199  0.927887  0.003  0.415871  0.000883  0.910267  0.002  0.295152  0.395022  0.001493  0.940602  0.003
H  H25  1  0.18000786  0.48202425  0.93134377  1  0.437246  -0.000482  0.861979  -0.002  0.403499  -0.001141  0.928316  -0.003  0.415611  -0.000844  0.910703  -0.002  0.295377  0.3948  -0.001495  0.940964  -0.003
H  H26  1  0.30215305  0.48208230  0.43142735  1  0.437473  -0.000504  0.861673  -0.002  0.403727  -0.001199  0.927922  -0.003  0.41584  -0.000883  0.910308  -0.002  0.295141  0.394986  -0.001493  0.94065  -0.003
H  H27  1  0.82000761  0.51796289  0.06865773  1  0.437182  0.000482  0.862083  0.002  0.403527  0.00114  0.928298  0.003  0.415645  0.000843  0.910671  0.002  0.295367  0.394833  0.001494  0.940939  0.003
H  H28  1  0.43794722  0.33967450  0.88348921  1  0.42994  0.000407  0.875474  0.002  0.396123  0.001067  0.94342  0.002  0.40715  0.00078  0.927539  0.002  0.293638  0.388503  0.001304  0.954327  0.003
H  H29  1  0.09838827  0.66038133  0.61644300  1  0.429043  -0.000415  0.876899  -0.002  0.395992  -0.001083  0.943432  -0.002  0.406973  -0.000791  0.927604  -0.002  0.293784  0.388488  -0.001298  0.954219  -0.003
H  H30  1  0.56206025  0.66031263  0.11651093  1  0.430031  -0.000406  0.87533  -0.002  0.396196  -0.001067  0.943312  -0.002  0.407225  -0.00078  0.927427  -0.002  0.293651  0.388573  -0.001304  0.954221  -0.003
H  H31  1  0.90159402  0.33961304  0.38355934  1  0.428999  0.000416  0.876993  0.002  0.395933  0.001083  0.943549  0.002  0.406915  0.000791  0.927722  0.002  0.293751  0.388428  0.001298  0.954339  0.003
C  C32  1  0.36697844  0.05608514  0.59998284  1  0.139973  0.004272  3.681592  0.004  0.109931  0.006204  3.942564  0.005  0.115774  0.005245  3.957905  0.005  0.055878  0.105712  0.007709  3.933344  0.006
C  C33  1  0.31064383  0.94398787  0.89994083  1  0.140504  -0.00403  3.684371  -0.004  0.110865  -0.005932  3.944965  -0.005  0.116647  -0.005067  3.960389  -0.005  0.055911  0.10648  -0.007697  3.936068  -0.006
C  C34  1  0.63300336  0.94390506  0.40000762  1  0.139899  -0.004252  3.681261  -0.004  0.109801  -0.006205  3.942246  -0.005  0.115647  -0.005246  3.957584  -0.005  0.055936  0.105578  -0.007711  3.933025  -0.006
C  C35  1  0.68936721  0.05600961  0.10006422  1  0.140713  0.004064  3.684534  0.004  0.110999  0.00592  3.945133  0.005  0.11678  0.005057  3.960559  0.005  0.056066  0.106621  0.007684  3.936233  0.006
C  C36  1  0.20745493  0.92617138  0.57980710  1  -0.10599  -0.002342  3.665952  -0.002  -0.131516  -0.001434  3.918687  -0.001  -0.134087  -0.00201  3.935582  -0.002  -0.069864  -0.130368  -0.000752  3.909165  -0.001
C  C37  1  0.28088878  0.07387886  0.92015101  1  -0.106957  0.002283  3.66809  0.002  -0.132396  0.001522  3.920639  0.001  -0.135016  0.002094  3.937596  0.002  -0.070044  -0.131301  0.000742  3.911158  0.001
C  C38  1  0.79253900  0.07382708  0.42018579  1  -0.106024  0.002291  3.665747  0.002  -0.131437  0.001434  3.918486  0.001  -0.134007  0.00201  3.935386  0.002  -0.069915  -0.130288  0.00075  3.908969  0.001
C  C39  1  0.71913458  0.92611447  0.07984974  1  -0.107158  -0.002333  3.668186  -0.002  -0.132619  -0.001516  3.920787  -0.001  -0.135231  -0.002087  3.937736  -0.002  -0.070217  -0.131519  -0.00074  3.911293  -0.001
C  C40  1  0.98796346  0.91732600  0.60357275  1  -0.010851  0.003557  3.714008  0.003  0.006452  0.005143  3.955736  0.004  0.00397  0.004302  3.975903  0.003  0.001047  0.007104  0.007546  3.942991  0.006
C  C41  1  0.07012934  0.08270024  0.89646489  1  -0.009862  -0.003471  3.715171  -0.003  0.007073  -0.005077  3.957318  -0.004  0.004551  -0.004298  3.977548  -0.003  0.001266  0.007745  -0.007535  3.94445  -0.006
C  C42  1  0.01203074  0.08265699  0.39642170  1  -0.010593  -0.003502  3.713533  -0.003  0.006481  -0.005145  3.955561  -0.004  0.003994  -0.004303  3.975732  -0.003  0.001136  0.007127  -0.007549  3.942825  -0.006
C  C43  1  0.92989078  0.91729619  0.10353444  1  -0.009654  0.003482  3.715302  0.003  0.007346  0.005066  3.957388  0.004  0.004834  0.004289  3.977614  0.003  0.001325  0.008018  0.007516  3.944515  0.006
C  C44  1  0.93807456  0.04041625  0.64388470  1  -0.116641  -0.003059  3.697927  -0.003  -0.151151  -0.002183  3.950429  -0.002  -0.154445  -0.002611  3.970657  -0.002  -0.070677  -0.148547  -0.002247  3.93764  -0.002
C  C45  1  0.89716818  0.95959214  0.85616216  1  -0.1176  0.002978  3.699296  0.003  -0.151946  0.002181  3.951955  0.002  -0.155229  0.002603  3.972212  0.002  -0.071027  -0.1492  0.002247  3.93918  0.002
C  C46  1  0.06191535  0.95956776  0.35610790  1  -0.116588  0.003001  3.698199  0.003  -0.151002  0.002184  3.950771  0.002  -0.154287  0.00261  3.970989  0.002  -0.070742  -0.148416  0.002246  3.937982  0.002
C  C47  1  0.10284018  0.04040637  0.14384311  1  -0.117704  -0.002968  3.699785  -0.003  -0.152178  -0.002177  3.952276  -0.002  -0.155482  -0.002596  3.972542  -0.002  -0.070996  -0.149416  -0.002243  3.939496  -0.002
C  C48  1  0.10607300  0.16606433  0.65938942  1  0.090526  0.003866  3.750007  0.004  0.094806  0.005957  3.99556  0.005  0.094402  0.004844  4.014788  0.005  0.114505  0.093938  0.008165  3.984025  0.007
C  C49  1  0.93966513  0.83393652  0.84058932  1  0.090051  -0.003918  3.750936  -0.004  0.0943  -0.00612  3.997063  -0.005  0.093837  -0.004999  4.016309  -0.005  0.114859  0.093367  -0.008162  3.985439  -0.007
C  C50  1  0.89393956  0.83393620  0.34060597  1  0.090311  -0.003818  3.750318  -0.004  0.094696  -0.005954  3.995847  -0.005  0.094281  -0.00484  4.015061  -0.004  0.114467  0.093864  -0.008162  3.984262  -0.007
C  C51  1  0.06031949  0.16604649  0.15941200  1  0.090137  0.003892  3.751339  0.004  0.094661  0.00611  3.996997  0.005  0.094216  0.004985  4.016254  0.005  0.114912  0.093713  0.008143  3.985377  0.007
C  C52  1  0.05468429  0.30029710  0.69733003  1  0.657775  0.001574  3.870514  0.003  0.601417  0.003877  4.163265  0.006  0.637441  0.002661  4.155146  0.005  0.240259  0.576462  0.005594  4.167996  0.007
C  C53  1  0.75421744  0.69970520  0.80267550  1  0.658737  -0.001648  3.871628  -0.003  0.601946  -0.004011  4.165114  -0.006  0.638038  -0.002752  4.156929  -0.005  0.239825  0.577055  -0.005602  4.169813  -0.007
C  C54  1  0.94528443  0.69971172  0.30266984  1  0.658141  -0.001594  3.870377  -0.003  0.601563  -0.003878  4.163376  -0.006  0.637609  -0.002662  4.155221  -0.005  0.240308  0.5766  -0.005593  4.168119  -0.007
C  C55  1  0.24580536  0.30029021  0.19732637  1  0.658726  0.001658  3.870929  0.003  0.601744  0.004  4.164488  0.006  0.637825  0.002752  4.156315  0.005  0.239861  0.576869  0.005595  4.169193  0.007
C  C56  1  0.80685782  0.78002349  0.58501786  1  0.654448  -0.000221  3.894048  0.0  0.595546  -9.3e-05  4.199632  0.0  0.627615  -0.000102  4.193457  0.0  0.219773  0.574174  0.000126  4.203106  0.0
C  C57  1  0.02632840  0.22000854  0.91500480  1  0.650768  0.00015  3.894979  0.0  0.592336  3.3e-05  4.200199  0.0  0.624357  4.3e-05  4.194117  0.0  0.218265  0.57094  -0.000128  4.20365  0.0
C  C58  1  0.19313666  0.21997606  0.41498831  1  0.654094  0.000222  3.893664  0.0  0.59522  9.2e-05  4.199329  0.0  0.627288  0.000102  4.193154  0.0  0.219569  0.573855  -0.000127  4.202804  0.0
C  C59  1  0.97368486  0.77998377  0.08499779  1  0.650871  -0.000155  3.894341  0.0  0.592333  -3.4e-05  4.199655  0.0  0.624346  -4.2e-05  4.193581  0.0  0.218344  0.570934  0.000127  4.203102  0.0
N  N60  1  0.31978685  0.17437934  0.63980499  1  -0.337597  0.024752  3.215764  0.012  -0.279704  0.030509  3.484899  0.014  -0.293992  0.026719  3.498426  0.011  -0.305205  -0.27018  0.034649  3.477102  0.017
N  N61  1  0.14517292  0.82567317  0.86014899  1  -0.337623  -0.024766  3.217728  -0.012  -0.279933  -0.03041  3.487109  -0.014  -0.294206  -0.026672  3.500678  -0.011  -0.305324  -0.270361  -0.034667  3.479262  -0.017
N  N62  1  0.68022834  0.82562324  0.36018602  1  -0.33746  -0.024777  3.215707  -0.012  -0.279648  -0.030509  3.484948  -0.014  -0.293937  -0.026718  3.498472  -0.011  -0.305213  -0.270128  -0.034651  3.47713  -0.017
N  N63  1  0.85483359  0.17430882  0.13985555  1  -0.337692  0.024762  3.218333  0.012  -0.279968  0.030409  3.48751  0.014  -0.294253  0.026672  3.501092  0.011  -0.305347  -0.2704  0.034659  3.479665  0.017
O  O64  1  0.22409207  0.40957395  0.72891288  1  -0.655076  -0.001888  2.104617  0.0  -0.574618  0.001739  2.383534  0.005  -0.608028  0.00054  2.365975  0.003  -0.278845  -0.549497  0.003257  2.395152  0.006
O  O65  1  0.81442935  0.59045637  0.77111112  1  -0.654449  0.002105  2.105813  0.0  -0.574207  -0.001463  2.385797  -0.004  -0.607758  -0.000329  2.368332  -0.003  -0.2785  -0.549467  -0.00327  2.39736  -0.006
O  O66  1  0.77592892  0.59043384  0.27109091  1  -0.655199  0.001901  2.104819  0.0  -0.57458  -0.001733  2.38378  -0.005  -0.607989  -0.000538  2.366202  -0.003  -0.278878  -0.54947  -0.003252  2.395391  -0.006
O  O67  1  0.18556024  0.40954937  0.22889498  1  -0.654684  -0.00211  2.105326  0.0  -0.574165  0.001463  2.385148  0.004  -0.607716  0.000324  2.367671  0.003  -0.278415  -0.549396  0.003269  2.396631  0.006
O  O68  1  0.85123424  0.29514363  0.69495129  1  -0.618065  0.029725  2.048161  0.018  -0.554308  0.037526  2.316021  0.023  -0.582878  0.033786  2.300746  0.02  -0.286258  -0.533641  0.041908  2.326263  0.028
O  O69  1  0.55590564  0.70480899  0.80503115  1  -0.618678  -0.029847  2.049142  -0.018  -0.554511  -0.037741  2.317111  -0.024  -0.583225  -0.033955  2.302059  -0.02  -0.286202  -0.533764  -0.041901  2.327265  -0.028
O  O70  1  0.14875279  0.70485382  0.30504619  1  -0.618304  -0.029718  2.047693  -0.018  -0.554394  -0.037525  2.315573  -0.023  -0.582978  -0.033783  2.300289  -0.02  -0.286315  -0.533757  -0.041909  2.325876  -0.028
O  O71  1  0.44408675  0.29518638  0.19496316  1  -0.618525  0.029837  2.049219  0.018  -0.554424  0.037737  2.317406  0.024  -0.583128  0.033954  2.302354  0.02  -0.286248  -0.533696  0.041893  2.327559  0.028
O  O72  1  0.86909885  0.67291691  0.57049998  1  -0.611688  0.000356  2.015365  0.0  -0.543998  0.000571  2.227526  0.001  -0.569022  0.00047  2.216917  0.0  -0.293144  -0.5275  0.000659  2.235019  0.001
O  O73  1  0.19572874  0.32703103  0.92940717  1  -0.610687  -0.000331  2.01529  0.0  -0.542868  -0.000593  2.22754  -0.001  -0.567912  -0.00045  2.217007  0.0  -0.292264  -0.526147  -0.000659  2.234898  -0.001
O  O74  1  0.13088273  0.32708881  0.42950130  1  -0.611575  -0.00036  2.015184  0.0  -0.543841  -0.000571  2.22728  -0.001  -0.56886  -0.00047  2.216673  0.0  -0.293011  -0.527343  -0.00066  2.234775  -0.001
O  O75  1  0.80429892  0.67296129  0.07059886  1  -0.610766  0.000334  2.015229  0.0  -0.542882  0.00059  2.227476  0.001  -0.56792  0.000449  2.216934  0.0  -0.292354  -0.526161  0.000656  2.234822  0.001
O  O76  1  0.60422218  0.78135425  0.58359624  1  -0.643379  0.000214  1.988025  0.0  -0.581965  0.000234  2.21046  0.0  -0.60743  0.00029  2.202164  0.0  -0.312546  -0.564213  0.000478  2.215888  0.0
O  O77  1  0.82242476  0.21878872  0.91649705  1  -0.64084  -0.000231  1.987677  0.0  -0.58026  -0.000273  2.210373  0.0  -0.605687  -0.000348  2.202087  0.0  -0.312265  -0.562442  -0.000477  2.215756  0.0
O  O78  1  0.39575754  0.21863495  0.41640432  1  -0.64322  -0.00021  1.988063  0.0  -0.581804  -0.000234  2.210537  0.0  -0.607269  -0.000292  2.202236  0.0  -0.312444  -0.564055  -0.000478  2.21597  0.0
O  O79  1  0.17759653  0.78120047  0.08350214  1  -0.641015  0.000231  1.987151  0.0  -0.580376  0.000274  2.209876  0.0  -0.60581  0.000347  2.20159  0.0  -0.312323  -0.562553  0.000475  2.21525  0.0
O  O80  1  0.61035643  0.42767795  0.57764093  1  -0.869076  0.035651  1.90197  0.022  -0.806225  0.045231  2.122077  0.027  -0.830695  0.040208  2.082308  0.023  -0.582146  -0.787442  0.050087  2.15002  0.031
O  O81  1  0.18312513  0.57235175  0.92229928  1  -0.868354  -0.03574  1.90299  -0.022  -0.805664  -0.045391  2.123048  -0.027  -0.830101  -0.040309  2.083194  -0.023  -0.582467  -0.786875  -0.050113  2.150909  -0.031
O  O82  1  0.38964665  0.57231640  0.42235659  1  -0.86907  -0.035646  1.901949  -0.022  -0.806215  -0.045227  2.122104  -0.027  -0.830686  -0.040204  2.082349  -0.023  -0.582191  -0.787438  -0.050083  2.150051  -0.031
O  O83  1  0.81688079  0.42763229  0.07769951  1  -0.868361  0.03574  1.903029  0.022  -0.805694  0.04539  2.123059  0.027  -0.830137  0.04031  2.083219  0.023  -0.582402  -0.786884  0.05011  2.150852  0.031
O  O84  1  0.57539079  0.35405445  0.84783079  1  -0.862476  0.035075  1.90544  0.022  -0.801418  0.04367  2.120362  0.026  -0.826306  0.039062  2.083606  0.022  -0.579567  -0.782038  0.047632  2.145623  0.03
O  O85  1  0.22150530  0.64604144  0.65218762  1  -0.863327  -0.034994  1.905147  -0.022  -0.802806  -0.043548  2.119633  -0.026  -0.827549  -0.038993  2.0829  -0.022  -0.58058  -0.78324  -0.047691  2.14496  -0.03
O  O86  1  0.42460657  0.64593165  0.15216706  1  -0.862566  -0.03508  1.905228  -0.022  -0.801504  -0.043674  2.12022  -0.026  -0.826403  -0.039065  2.083453  -0.022  -0.579535  -0.782121  -0.047635  2.145494  -0.03
O  O87  1  0.77847922  0.35394777  0.34781432  1  -0.863434  0.034995  1.905093  0.022  -0.802876  0.043549  2.119612  0.026  -0.827621  0.038995  2.082867  0.022  -0.580577  -0.783312  0.047693  2.144937  0.03
