# generated using pymatgen
data_Zn3H14(C3O4)4
_symmetry_space_group_name_H-M   'P 1'
_cell_length_a   6.05274590
_cell_length_b   9.44261003
_cell_length_c   15.23894745
_cell_angle_alpha   90.00009712
_cell_angle_beta   90.00060429
_cell_angle_gamma   103.15306557
_symmetry_Int_Tables_number   1
_chemical_formula_structural   Zn3H14(C3O4)4
_chemical_formula_sum   'Zn6 H28 C24 O32'
_cell_volume   848.11337180
_cell_formula_units_Z   2
loop_
 _symmetry_equiv_pos_site_id
 _symmetry_equiv_pos_as_xyz
  1  'x, y, z'
loop_
 _atom_site_type_symbol
 _atom_site_label
 _atom_site_symmetry_multiplicity
 _atom_site_fract_x
 _atom_site_fract_y
 _atom_site_fract_z
 _atom_site_occupancy
 _atom_site_hle17_bader_spin_density
 _atom_site_hle17_ddec_charge
 _atom_site_hle17_ddec_spin_density
 _atom_site_hle17_ddec_sum_bond_order
 _atom_site_hle17_magmom
 _atom_site_hse06_10hf_bader_spin_density
 _atom_site_hse06_10hf_ddec_charge
 _atom_site_hse06_10hf_ddec_spin_density
 _atom_site_hse06_10hf_ddec_sum_bond_order
 _atom_site_hse06_10hf_magmom
 _atom_site_hse06_bader_spin_density
 _atom_site_hse06_ddec_charge
 _atom_site_hse06_ddec_spin_density
 _atom_site_hse06_ddec_sum_bond_order
 _atom_site_hse06_magmom
 _atom_site_pbe_bader_spin_density
 _atom_site_pbe_cm5_charge
 _atom_site_pbe_ddec_charge
 _atom_site_pbe_ddec_spin_density
 _atom_site_pbe_ddec_sum_bond_order
 _atom_site_pbe_magmom
Zn  Zn0  1  0.50000794  0.00000033  0.99999990  1  0  1.172305  0  1.731502  0  0  1.010802  0  2.175324  0  0  1.057548  0  2.11662  0  0  0.694049  0.977594  0  2.216027  0
Zn  Zn1  1  0.49999729  0.49999960  0.49999910  1  0  1.172286  0  1.731538  0  0  1.010817  0  2.175363  0  0  1.057559  0  2.116655  0  0  0.694025  0.977597  0  2.216077  0
Zn  Zn2  1  0.90380136  0.65400102  0.90967531  1  0  1.160522  0  1.628422  0  0  0.980239  0  2.083136  0  0  1.034881  0  2.019043  0  0  0.685459  0.941312  0  2.127907  0
Zn  Zn3  1  0.09619865  0.84599811  0.40967527  1  0  1.160531  0  1.628365  0  0  0.980227  0  2.083084  0  0  1.034868  0  2.01899  0  0  0.685434  0.941296  0  2.127869  0
Zn  Zn4  1  0.09620866  0.34600906  0.09032487  1  0  1.160498  0  1.628503  0  0  0.980169  0  2.083222  0  0  1.034815  0  2.019133  0  0  0.685419  0.941232  0  2.127973  0
Zn  Zn5  1  0.90379616  0.15399239  0.59032490  1  0  1.16049  0  1.628485  0  0  0.980149  0  2.083218  0  0  1.034792  0  2.019124  0  0  0.685415  0.941217  0  2.128002  0
H  H6  1  0.33360916  0.66476953  0.93399076  1  0  0.444142  0  0.840025  0  0  0.412138  0  0.908015  0  0  0.42205  0  0.893694  0  0  0.306762  0.404979  0  0.918424  0
H  H7  1  0.66639018  0.83523521  0.43398851  1  0  0.44417  0  0.840021  0  0  0.412169  0  0.90797  0  0  0.422081  0  0.893648  0  0  0.306789  0.405007  0  0.918385  0
H  H8  1  0.66639457  0.33522750  0.06600810  1  0  0.444138  0  0.839983  0  0  0.412124  0  0.908029  0  0  0.422036  0  0.893707  0  0  0.306714  0.404963  0  0.918438  0
H  H9  1  0.33361246  0.16477270  0.56600641  1  0  0.444083  0  0.839997  0  0  0.412084  0  0.908059  0  0  0.421996  0  0.89374  0  0  0.306732  0.404926  0  0.918467  0
H  H10  1  0.20808117  0.49779467  0.92144689  1  0  0.439895  0  0.857198  0  0  0.407163  0  0.922924  0  0  0.417658  0  0.907895  0  0  0.302079  0.399495  0  0.93393  0
H  H11  1  0.79192509  0.00220471  0.42144415  1  0  0.439921  0  0.857161  0  0  0.407196  0  0.922876  0  0  0.417688  0  0.907853  0  0  0.302113  0.399533  0  0.933875  0
H  H12  1  0.79191430  0.50220235  0.07854935  1  0  0.439886  0  0.857225  0  0  0.407158  0  0.922946  0  0  0.417652  0  0.907919  0  0  0.302068  0.399489  0  0.933954  0
H  H13  1  0.20808718  0.99779775  0.57855143  1  0  0.43992  0  0.85718  0  0  0.40719  0  0.922904  0  0  0.417682  0  0.90788  0  0  0.30209  0.399524  0  0.933907  0
H  H14  1  0.60249655  0.07461443  0.82094514  1  0  0.404777  0  0.896003  0  0  0.375683  0  0.96801  0  0  0.38749  0  0.951352  0  0  0.299489  0.367354  0  0.977325  0
H  H15  1  0.39749562  0.42538535  0.32095039  1  0  0.404899  0  0.895855  0  0  0.375795  0  0.967858  0  0  0.387598  0  0.951204  0  0  0.29954  0.367463  0  0.977216  0
H  H16  1  0.39750184  0.92538151  0.17905175  1  0  0.404856  0  0.895765  0  0  0.375742  0  0.967898  0  0  0.38755  0  0.951238  0  0  0.299497  0.367418  0  0.977125  0
H  H17  1  0.60250304  0.57461603  0.67904847  1  0  0.404933  0  0.895719  0  0  0.375803  0  0.967826  0  0  0.38761  0  0.951168  0  0  0.299532  0.367478  0  0.977107  0
H  H18  1  0.50606880  0.26488863  0.73872939  1  0  0.148084  0  0.91177  0  0  0.161626  0  0.969078  0  0  0.164915  0  0.967571  0  0  0.116778  0.159259  0  0.970279  0
H  H19  1  0.49390672  0.23510297  0.23873156  1  0  0.148117  0  0.91173  0  0  0.161617  0  0.969021  0  0  0.164904  0  0.967517  0  0  0.116769  0.15925  0  0.970223  0
H  H20  1  0.49393422  0.73512037  0.26126947  1  0  0.148082  0  0.911782  0  0  0.161621  0  0.96906  0  0  0.164909  0  0.967555  0  0  0.116774  0.159252  0  0.970263  0
H  H21  1  0.50609420  0.76489079  0.76126730  1  0  0.148093  0  0.911687  0  0  0.161614  0  0.968995  0  0  0.164905  0  0.967482  0  0  0.116763  0.159245  0  0.970204  0
H  H22  1  0.28934481  0.34407721  0.77820808  1  0  0.134067  0  0.929305  0  0  0.147468  0  0.989554  0  0  0.149692  0  0.989368  0  0  0.112287  0.14592  0  0.9897  0
H  H23  1  0.71063748  0.15592119  0.27820255  1  0  0.134123  0  0.929373  0  0  0.147489  0  0.98957  0  0  0.149712  0  0.989383  0  0  0.11231  0.145937  0  0.989724  0
H  H24  1  0.71065909  0.65592961  0.22179537  1  0  0.134041  0  0.929346  0  0  0.147423  0  0.989576  0  0  0.149649  0  0.989385  0  0  0.112259  0.145876  0  0.989717  0
H  H25  1  0.28934576  0.84406931  0.72180025  1  0  0.134091  0  0.92929  0  0  0.147457  0  0.989535  0  0  0.149683  0  0.989345  0  0  0.112273  0.145908  0  0.989683  0
H  H26  1  0.01856755  0.12972627  0.83416861  1  0  0.159016  0  0.902941  0  0  0.172831  0  0.956358  0  0  0.176466  0  0.954447  0  0  0.119584  0.170089  0  0.958055  0
H  H27  1  0.98142285  0.37027687  0.33416641  1  0  0.159057  0  0.902905  0  0  0.17293  0  0.956317  0  0  0.176565  0  0.954441  0  0  0.11959  0.17018  0  0.958023  0
H  H28  1  0.98144401  0.87028816  0.16583156  1  0  0.159085  0  0.902957  0  0  0.172927  0  0.95633  0  0  0.176542  0  0.954481  0  0  0.119602  0.170182  0  0.958027  0
H  H29  1  0.01856661  0.62971255  0.66583179  1  0  0.158973  0  0.903038  0  0  0.17286  0  0.956403  0  0  0.176489  0  0.954545  0  0  0.119574  0.170108  0  0.958104  0
H  H30  1  0.18926419  0.05997584  0.76081610  1  0  0.134392  0  0.93524  0  0  0.145149  0  0.999808  0  0  0.148225  0  0.998239  0  0  0.107716  0.14284  0  1.0011  0
H  H31  1  0.81071974  0.44001918  0.26081325  1  0  0.134355  0  0.935206  0  0  0.14522  0  0.999708  0  0  0.148316  0  0.998146  0  0  0.10774  0.142908  0  1.000999  0
H  H32  1  0.81073613  0.94002554  0.23918933  1  0  0.134404  0  0.935256  0  0  0.145198  0  0.999777  0  0  0.148293  0  0.998211  0  0  0.107736  0.142892  0  1.001063  0
H  H33  1  0.18927749  0.55997350  0.73918954  1  0  0.134349  0  0.9352  0  0  0.145205  0  0.999693  0  0  0.148304  0  0.99813  0  0  0.107732  0.142888  0  1.00099  0
C  C34  1  0.61824468  0.44292872  0.82512807  1  0  0.725865  0  3.820925  0  0  0.671992  0  4.124054  0  0  0.706868  0  4.115942  0  0  0.211983  0.648119  0  4.129033  0
C  C35  1  0.38175471  0.05706782  0.32513418  1  0  0.72616  0  3.820439  0  0  0.672081  0  4.123758  0  0  0.706956  0  4.115651  0  0  0.21208  0.648208  0  4.128741  0
C  C36  1  0.38176439  0.55706939  0.17486882  1  0  0.725787  0  3.821235  0  0  0.671865  0  4.124368  0  0  0.706738  0  4.116265  0  0  0.211873  0.64799  0  4.129347  0
C  C37  1  0.61824202  0.94292812  0.67486468  1  0  0.726009  0  3.820733  0  0  0.671941  0  4.12408  0  0  0.706816  0  4.115971  0  0  0.212008  0.648073  0  4.129052  0
C  C38  1  0.44342615  0.30919454  0.79812708  1  0  -0.350678  0  3.619822  0  0  -0.393088  0  3.860841  0  0  -0.400607  0  3.867376  0  0  -0.161149  -0.387597  0  3.85609  0
C  C39  1  0.55656547  0.19080073  0.29812881  1  0  -0.350836  0  3.619939  0  0  -0.392925  0  3.860566  0  0  -0.400441  0  3.8671  0  0  -0.161161  -0.387458  0  3.855822  0
C  C40  1  0.55657989  0.69080901  0.20187309  1  0  -0.350782  0  3.619961  0  0  -0.393053  0  3.860778  0  0  -0.400568  0  3.867305  0  0  -0.161167  -0.387573  0  3.856015  0
C  C41  1  0.44342389  0.80919303  0.70187070  1  0  -0.350718  0  3.61964  0  0  -0.392946  0  3.860545  0  0  -0.400461  0  3.86707  0  0  -0.161116  -0.38747  0  3.855816  0
C  C42  1  0.37876168  0.18676281  0.86601084  1  0  0.261331  0  3.587623  0  0  0.257524  0  3.833104  0  0  0.261307  0  3.845072  0  0  0.070297  0.254737  0  3.825136  0
C  C43  1  0.62123560  0.31323402  0.36601034  1  0  0.26115  0  3.587795  0  0  0.257382  0  3.833236  0  0  0.261184  0  3.845212  0  0  0.07029  0.254658  0  3.82516  0
C  C44  1  0.62123903  0.81323966  0.13398934  1  0  0.261476  0  3.587726  0  0  0.257665  0  3.83322  0  0  0.261479  0  3.845184  0  0  0.070369  0.254922  0  3.825179  0
C  C45  1  0.37875910  0.68676083  0.63398917  1  0  0.261297  0  3.587807  0  0  0.257502  0  3.833298  0  0  0.261327  0  3.845247  0  0  0.070277  0.254727  0  3.825297  0
C  C46  1  0.16542124  0.07941866  0.83094951  1  0  -0.366796  0  3.611771  0  0  -0.407338  0  3.850182  0  0  -0.415133  0  3.856112  0  0  -0.164222  -0.401689  0  3.846227  0
C  C47  1  0.83456957  0.42058119  0.33094740  1  0  -0.366642  0  3.611554  0  0  -0.407434  0  3.850206  0  0  -0.415328  0  3.856282  0  0  -0.164232  -0.401802  0  3.84624  0
C  C48  1  0.83458228  0.92058707  0.16905394  1  0  -0.366906  0  3.611838  0  0  -0.40751  0  3.850241  0  0  -0.415388  0  3.856314  0  0  -0.164259  -0.401873  0  3.846274  0
C  C49  1  0.16542881  0.57941475  0.66905474  1  0  -0.366591  0  3.611703  0  0  -0.407362  0  3.850215  0  0  -0.41527  0  3.856316  0  0  -0.164212  -0.401696  0  3.846234  0
C  C50  1  0.10092375  0.93441537  0.87737168  1  0  0.733319  0  3.792304  0  0  0.681567  0  4.088666  0  0  0.716569  0  4.081652  0  0  0.214945  0.657507  0  4.092873  0
C  C51  1  0.89907405  0.56558462  0.37736683  1  0  0.733391  0  3.792026  0  0  0.681658  0  4.088482  0  0  0.716694  0  4.081457  0  0  0.214985  0.657609  0  4.092679  0
C  C52  1  0.89909045  0.06559253  0.12263309  1  0  0.733359  0  3.792166  0  0  0.681683  0  4.088439  0  0  0.71672  0  4.081409  0  0  0.215034  0.657618  0  4.092654  0
C  C53  1  0.10091784  0.43440697  0.62263072  1  0  0.733247  0  3.792307  0  0  0.681618  0  4.088572  0  0  0.716657  0  4.081548  0  0  0.215002  0.657553  0  4.092782  0
C  C54  1  0.32623031  0.24455453  0.95627486  1  0  0.640608  0  3.785693  0  0  0.57937  0  4.088103  0  0  0.613108  0  4.081141  0  0  0.223764  0.556033  0  4.092634  0
C  C55  1  0.67376987  0.25544836  0.45627453  1  0  0.64053  0  3.785855  0  0  0.579337  0  4.088185  0  0  0.613071  0  4.081219  0  0  0.223788  0.556001  0  4.092706  0
C  C56  1  0.67378439  0.75545011  0.04372859  1  0  0.640666  0  3.785597  0  0  0.579352  0  4.08813  0  0  0.613092  0  4.081155  0  0  0.22377  0.556022  0  4.092649  0
C  C57  1  0.32621696  0.74454758  0.54372499  1  0  0.64061  0  3.785805  0  0  0.579383  0  4.088206  0  0  0.613118  0  4.081234  0  0  0.223823  0.556066  0  4.092717  0
O  O58  1  0.21049052  0.59857805  0.90154794  1  0  -0.823595  0  1.901146  0  0  -0.752106  0  2.116329  0  0  -0.775213  0  2.080241  0  0  -0.560846  -0.735734  0  2.142137  0
O  O59  1  0.78951167  0.90142320  0.40154496  1  0  -0.823637  0  1.901139  0  0  -0.752173  0  2.116348  0  0  -0.775281  0  2.080265  0  0  -0.560888  -0.735804  0  2.142157  0
O  O60  1  0.78950980  0.40142333  0.09844961  1  0  -0.823587  0  1.901108  0  0  -0.752089  0  2.116349  0  0  -0.775198  0  2.080263  0  0  -0.560801  -0.735718  0  2.142158  0
O  O61  1  0.21049564  0.09857927  0.59845062  1  0  -0.823565  0  1.901091  0  0  -0.752039  0  2.11632  0  0  -0.775149  0  2.080239  0  0  -0.560818  -0.735671  0  2.142126  0
O  O62  1  0.69417140  0.45385511  0.90398080  1  0  -0.644308  0  2.008583  0  0  -0.566724  0  2.262153  0  0  -0.596786  0  2.248724  0  0  -0.316023  -0.545789  0  2.271035  0
O  O63  1  0.30582494  0.04614089  0.40398132  1  0  -0.644371  0  2.008669  0  0  -0.566717  0  2.262311  0  0  -0.596777  0  2.248884  0  0  -0.316034  -0.545783  0  2.271191  0
O  O64  1  0.30583834  0.54614953  0.09602069  1  0  -0.644113  0  2.008859  0  0  -0.566564  0  2.262493  0  0  -0.596624  0  2.249068  0  0  -0.315911  -0.545636  0  2.271374  0
O  O65  1  0.69416100  0.95385722  0.59601754  1  0  -0.644259  0  2.008835  0  0  -0.56663  0  2.262509  0  0  -0.596692  0  2.249083  0  0  -0.315966  -0.54569  0  2.271383  0
O  O66  1  0.68396551  0.54466197  0.77043551  1  0  -0.634123  0  2.013639  0  0  -0.574745  0  2.250206  0  0  -0.60141  0  2.23869  0  0  -0.306987  -0.555999  0  2.257316  0
O  O67  1  0.31603623  0.95531988  0.27043980  1  0  -0.634251  0  2.013203  0  0  -0.574862  0  2.249912  0  0  -0.601532  0  2.238395  0  0  -0.30707  -0.55612  0  2.257015  0
O  O68  1  0.31603751  0.45534702  0.22956466  1  0  -0.634083  0  2.013682  0  0  -0.57469  0  2.250244  0  0  -0.601358  0  2.238738  0  0  -0.306942  -0.555944  0  2.257367  0
O  O69  1  0.68394371  0.04467062  0.72955841  1  0  -0.634202  0  2.013508  0  0  -0.574728  0  2.250077  0  0  -0.601398  0  2.238567  0  0  -0.307017  -0.55599  0  2.257198  0
O  O70  1  0.56119475  0.11519308  0.87953377  1  0  -0.604481  0  2.118062  0  0  -0.539004  0  2.357938  0  0  -0.558481  0  2.339659  0  0  -0.382252  -0.525137  0  2.36881  0
O  O71  1  0.43879642  0.38479949  0.37953456  1  0  -0.604491  0  2.117974  0  0  -0.53911  0  2.357935  0  0  -0.558562  0  2.339633  0  0  -0.382296  -0.525254  0  2.368816  0
O  O72  1  0.43880518  0.88480721  0.12046181  1  0  -0.604568  0  2.117918  0  0  -0.539071  0  2.357881  0  0  -0.558552  0  2.339596  0  0  -0.382235  -0.525214  0  2.36867  0
O  O73  1  0.56119789  0.61519428  0.62046168  1  0  -0.604594  0  2.117952  0  0  -0.539101  0  2.357885  0  0  -0.558578  0  2.339593  0  0  -0.382236  -0.525246  0  2.368736  0
O  O74  1  0.17758576  0.91303131  0.95266180  1  0  -0.65645  0  2.056032  0  0  -0.587472  0  2.317553  0  0  -0.616078  0  2.305245  0  0  -0.315579  -0.567237  0  2.32556  0
O  O75  1  0.82240294  0.58697465  0.45266125  1  0  -0.656541  0  2.055837  0  0  -0.587557  0  2.317373  0  0  -0.616168  0  2.30505  0  0  -0.315499  -0.56733  0  2.325386  0
O  O76  1  0.82241540  0.08698639  0.04734362  1  0  -0.65642  0  2.055832  0  0  -0.587504  0  2.317382  0  0  -0.616113  0  2.305056  0  0  -0.315545  -0.567272  0  2.325398  0
O  O77  1  0.17759060  0.41301694  0.54734220  1  0  -0.656433  0  2.055953  0  0  -0.587516  0  2.317453  0  0  -0.616125  0  2.305128  0  0  -0.315552  -0.567276  0  2.325462  0
O  O78  1  0.96185685  0.83295131  0.83678138  1  0  -0.627236  0  2.001045  0  0  -0.557216  0  2.265458  0  0  -0.587646  0  2.252014  0  0  -0.314606  -0.535832  0  2.274189  0
O  O79  1  0.03812694  0.66704949  0.33677763  1  0  -0.627252  0  2.001068  0  0  -0.557203  0  2.26546  0  0  -0.58762  0  2.251984  0  0  -0.314666  -0.535834  0  2.274199  0
O  O80  1  0.03813538  0.16705985  0.16322601  1  0  -0.627347  0  2.00107  0  0  -0.557315  0  2.265416  0  0  -0.587725  0  2.251921  0  0  -0.314709  -0.53593  0  2.274142  0
O  O81  1  0.96187436  0.33294536  0.66322385  1  0  -0.627257  0  2.00113  0  0  -0.557224  0  2.265429  0  0  -0.587643  0  2.251958  0  0  -0.314666  -0.53585  0  2.274174  0
O  O82  1  0.18511218  0.32642646  0.95954321  1  0  -0.627925  0  2.091242  0  0  -0.551625  0  2.346471  0  0  -0.581333  0  2.33338  0  0  -0.29744  -0.530674  0  2.355198  0
O  O83  1  0.81489227  0.17357428  0.45953813  1  0  -0.627923  0  2.091129  0  0  -0.551662  0  2.346353  0  0  -0.58134  0  2.333223  0  0  -0.297496  -0.530742  0  2.35511  0
O  O84  1  0.81489844  0.67357600  0.04045827  1  0  -0.62783  0  2.091304  0  0  -0.551579  0  2.346682  0  0  -0.581276  0  2.333573  0  0  -0.297422  -0.530648  0  2.355425  0
O  O85  1  0.18510028  0.82642384  0.54046204  1  0  -0.627974  0  2.091133  0  0  -0.551738  0  2.346423  0  0  -0.581426  0  2.333309  0  0  -0.297515  -0.530821  0  2.355173  0
O  O86  1  0.41203306  0.20258585  0.02501189  1  0  -0.636661  0  2.077663  0  0  -0.568872  0  2.335308  0  0  -0.595367  0  2.320861  0  0  -0.29907  -0.550747  0  2.34524  0
O  O87  1  0.58798181  0.29741623  0.52501272  1  0  -0.636551  0  2.077684  0  0  -0.568836  0  2.335408  0  0  -0.595331  0  2.320966  0  0  -0.299091  -0.550726  0  2.34536  0
O  O88  1  0.58797717  0.79741553  0.97498698  1  0  -0.636793  0  2.077382  0  0  -0.569023  0  2.335159  0  0  -0.595512  0  2.320698  0  0  -0.299161  -0.550907  0  2.345106  0
O  O89  1  0.41200870  0.70258079  0.47498680  1  0  -0.636617  0  2.077721  0  0  -0.568851  0  2.335394  0  0  -0.595345  0  2.32095  0  0  -0.299125  -0.550741  0  2.345337  0
