# generated using pymatgen
data_Zn4H16C40O13F4
_symmetry_space_group_name_H-M   'P 1'
_cell_length_a   23.82100656
_cell_length_b   23.82257193
_cell_length_c   23.82082878
_cell_angle_alpha   66.57165388
_cell_angle_beta   72.47633302
_cell_angle_gamma   107.53307219
_symmetry_Int_Tables_number   1
_chemical_formula_structural   Zn4H16C40O13F4
_chemical_formula_sum   'Zn8 H32 C80 O26 F8'
_cell_volume   10368.81189840
_cell_formula_units_Z   2
loop_
 _symmetry_equiv_pos_site_id
 _symmetry_equiv_pos_as_xyz
  1  'x, y, z'
loop_
 _atom_site_type_symbol
 _atom_site_label
 _atom_site_symmetry_multiplicity
 _atom_site_fract_x
 _atom_site_fract_y
 _atom_site_fract_z
 _atom_site_occupancy
 _atom_site_pbe_bader_charge
 _atom_site_pbe_bader_spin_density
 _atom_site_pbe_cm5_charge
 _atom_site_pbe_ddec_charge
 _atom_site_pbe_ddec_spin_density
 _atom_site_pbe_ddec_sum_bond_order
 _atom_site_pbe_magmom
Zn  Zn0  1  0.05773934  0.95780722  0.48446508  1  1.31941  0  0.674026  0.966732  0  2.376106  0
Zn  Zn1  1  0.05773715  0.09993122  0.45781126  1  1.318377  0  0.674013  0.966683  0  2.375959  0
Zn  Zn2  1  0.94225573  0.98446188  0.45780002  1  1.319481  0  0.674092  0.966797  0  2.375955  0
Zn  Zn3  1  0.94227604  0.95780473  0.59993366  1  1.317911  0  0.67403  0.966652  0  2.376378  0
Zn  Zn4  1  0.94226156  0.54219306  0.01553574  1  1.319343  0  0.673967  0.966613  0  2.3762  0
Zn  Zn5  1  0.05774869  0.51554192  0.04219792  1  1.319563  0  0.674062  0.966667  0  2.375931  0
Zn  Zn6  1  0.94226271  0.40006951  0.04219498  1  1.318147  0  0.67397  0.966569  0  2.376237  0
Zn  Zn7  1  0.05772344  0.54219113  0.90006759  1  1.317886  0  0.673983  0.966635  0  2.376287  0
H  H8  1  0.92366617  0.65212053  0.11243868  1  0.117098  0  0.110609  0.116697  0  0.989619  0
H  H9  1  0.92326675  0.71498869  0.17522150  1  0.068363  0  0.107879  0.110542  0  0.986901  0
H  H10  1  0.07671742  0.67521072  0.21502880  1  0.068415  0  0.107836  0.110486  0  0.986971  0
H  H11  1  0.07632544  0.61243051  0.15215974  1  0.116599  0  0.110543  0.116677  0  0.98987  0
H  H12  1  0.92327443  0.82478103  0.28497939  1  0.068117  0  0.107797  0.110356  0  0.987041  0
H  H13  1  0.92366769  0.88756355  0.34784756  1  0.117122  0  0.110535  0.116632  0  0.989857  0
H  H14  1  0.07627580  0.84780925  0.38763138  1  0.117648  0  0.110547  0.116688  0  0.990096  0
H  H15  1  0.07667087  0.78493568  0.32485579  1  0.06914  0  0.107953  0.11054  0  0.987183  0
H  H16  1  0.07634324  0.46386921  0.77155610  1  0.120939  0  0.110546  0.11667  0  0.989913  0
H  H17  1  0.07673626  0.40148265  0.70829039  1  0.102303  0  0.107867  0.110519  0  0.98714  0
H  H18  1  0.92328468  0.20825657  0.90151743  1  0.103607  0  0.10782  0.110498  0  0.987052  0
H  H19  1  0.92368374  0.27151985  0.96390482  1  0.121064  0  0.11059  0.116741  0  0.98993  0
H  H20  1  0.07667437  0.29173218  0.59849573  1  0.103078  0  0.107923  0.110602  0  0.987237  0
H  H21  1  0.07627579  0.22846833  0.53610926  1  0.120944  0  0.110461  0.116515  0  0.990245  0
H  H22  1  0.92366646  0.03610649  0.72847046  1  0.121049  0  0.110609  0.116725  0  0.989703  0
H  H23  1  0.92327557  0.09849154  0.79173740  1  0.102784  0  0.107855  0.110453  0  0.987111  0
H  H24  1  0.73542720  0.46388617  0.11241052  1  0.122275  0  0.110556  0.116638  0  0.990047  0
H  H25  1  0.60977590  0.40150187  0.17518926  1  0.08369  0  0.107857  0.110596  0  0.987076  0
H  H26  1  0.60977178  0.20826089  0.21503053  1  0.052292  0  0.107899  0.110561  0  0.987026  0
H  H27  1  0.73542153  0.27152302  0.15216402  1  0.108677  0  0.110581  0.116657  0  0.989951  0
H  H28  1  0.39022877  0.29174002  0.28495906  1  0.05246  0  0.10786  0.11049  0  0.987131  0
H  H29  1  0.26457882  0.22847717  0.34782969  1  0.108754  0  0.110575  0.116714  0  0.990033  0
H  H30  1  0.26457307  0.03612654  0.38752075  1  0.11974  0  0.110542  0.116581  0  0.989918  0
H  H31  1  0.39022496  0.09851301  0.32473466  1  0.089945  0  0.107911  0.110578  0  0.987039  0
H  H32  1  0.26458486  0.61239170  0.96388278  1  0.122329  0  0.110459  0.116567  0  0.990234  0
H  H33  1  0.39023497  0.67516879  0.90149900  1  0.085369  0  0.107954  0.110637  0  0.987235  0
H  H34  1  0.39021772  0.71502123  0.70824910  1  0.052641  0  0.107768  0.110356  0  0.987073  0
H  H35  1  0.26456785  0.65215349  0.77151214  1  0.108289  0  0.110498  0.116597  0  0.989814  0
H  H36  1  0.60978667  0.78497276  0.79174847  1  0.052583  0  0.107798  0.110382  0  0.987091  0
H  H37  1  0.73543577  0.84784234  0.72848368  1  0.108291  0  0.110497  0.116606  0  0.989859  0
H  H38  1  0.73541700  0.88753973  0.53612694  1  0.121035  0  0.110446  0.116467  0  0.99008  0
H  H39  1  0.60976583  0.82475532  0.59851436  1  0.08404  0  0.107844  0.110505  0  0.987079  0
C  C40  1  0.18258701  0.09130028  0.40870063  1  1.544297  0  0.226202  0.601601  0  4.174001  0
C  C41  1  0.99999679  0.13697390  0.36302459  1  1.62129  0  0.230245  0.639119  0  4.160115  0
C  C42  1  0.99998499  0.90870084  0.40871666  1  1.530115  0  0.226064  0.601173  0  4.174045  0
C  C43  1  0.81741840  0.90869802  0.59130432  1  1.544639  0  0.22614  0.601277  0  4.174187  0
C  C44  1  0.00000425  0.86302472  0.63697778  1  1.62125  0  0.230203  0.638973  0  4.160413  0
C  C45  1  0.99999017  0.09129014  0.59129899  1  1.557684  0  0.226333  0.601844  0  4.173779  0
C  C46  1  0.00000083  0.59128174  0.09130119  1  1.530256  0  0.226127  0.601331  0  4.174081  0
C  C47  1  0.00000312  0.36302584  0.13697615  1  1.620814  0  0.230259  0.639164  0  4.160117  0
C  C48  1  0.81741345  0.40870264  0.09128399  1  1.544297  0  0.226249  0.601519  0  4.173787  0
C  C49  1  0.99999836  0.40869623  0.90871706  1  1.557875  0  0.226114  0.601118  0  4.174167  0
C  C50  1  0.99999807  0.63697451  0.86302254  1  1.62124  0  0.230223  0.639053  0  4.160297  0
C  C51  1  0.18258482  0.59128593  0.90869633  1  1.54436  0  0.225987  0.601085  0  4.174372  0
C  C52  1  0.00000303  0.80537829  0.69462184  1  0.064236  0  -0.021216  -0.207651  0  3.953427  0
C  C53  1  0.99999998  0.69462110  0.80537905  1  0.064004  0  -0.02118  -0.20779  0  3.953302  0
C  C54  1  0.95770159  0.77670312  0.76559292  1  0.573047  0  0.099353  0.168444  0  4.063477  0
C  C55  1  0.04230162  0.72329698  0.73440721  1  0.57438  0  0.099383  0.168532  0  4.063554  0
C  C56  1  0.95769984  0.72329255  0.81900258  1  0.570801  0  0.099424  0.168613  0  4.0634  0
C  C57  1  0.04230316  0.77670684  0.68099747  1  0.57087  0  0.099348  0.168334  0  4.063815  0
C  C58  1  0.00000007  0.19462136  0.30537831  1  0.063933  0  -0.021196  -0.207773  0  3.953519  0
C  C59  1  0.00000317  0.30538172  0.19462185  1  0.064035  0  -0.021185  -0.207809  0  3.953449  0
C  C60  1  0.95770099  0.18100108  0.27669659  1  0.569813  0  0.099435  0.16858  0  4.063538  0
C  C61  1  0.04230312  0.31900235  0.22330310  1  0.570332  0  0.099385  0.168563  0  4.063858  0
C  C62  1  0.95770205  0.23441149  0.22328846  1  0.575034  0  0.099188  0.168246  0  4.063579  0
C  C63  1  0.04230138  0.26559178  0.27671192  1  0.575123  0  0.099273  0.168295  0  4.063494  0
C  C64  1  0.99999561  0.62867739  0.12870246  1  -0.025865  0  -0.018151  -0.042559  0  3.978323  0
C  C65  1  0.95682674  0.65759251  0.13518730  1  0.018017  0  -0.078574  -0.084068  0  3.984571  0
C  C66  1  0.95665749  0.69244022  0.16999955  1  -0.046856  0  -0.080338  -0.125519  0  3.946106  0
C  C67  1  0.99999230  0.69918536  0.19921006  1  0.00779  0  0.006476  0.147403  0  4.113536  0
C  C68  1  0.04332884  0.66998324  0.19247325  1  -0.046946  0  -0.080393  -0.12572  0  3.94589  0
C  C69  1  0.04316525  0.63517322  0.15762220  1  0.018366  0  -0.078406  -0.083943  0  3.984679  0
C  C70  1  0.99998989  0.73465251  0.23468308  1  -0.262417  0  -0.041733  -0.105613  0  4.119055  0
C  C71  1  0.99998159  0.76531098  0.26535373  1  -0.050851  0  -0.041419  -0.105178  0  4.118865  0
C  C72  1  0.99997269  0.80077424  0.30083109  1  0.005758  0  0.006459  0.147526  0  4.11352  0
C  C73  1  0.95664990  0.82999329  0.30755207  1  -0.047504  0  -0.080389  -0.1256  0  3.94606  0
C  C74  1  0.95681653  0.86480738  0.34239933  1  0.01803  0  -0.078319  -0.083906  0  3.984755  0
C  C75  1  0.99997226  0.87128457  0.37133646  1  -0.025764  0  -0.018334  -0.042451  0  3.978291  0
C  C76  1  0.04313055  0.84235470  0.36486578  1  0.017293  0  -0.078476  -0.084046  0  3.985142  0
C  C77  1  0.04329021  0.80749530  0.33006316  1  -0.044797  0  -0.080327  -0.125735  0  3.946449  0
C  C78  1  0.00000992  0.37129229  0.87132514  1  -0.02911  0  -0.018274  -0.042343  0  3.978337  0
C  C79  1  0.04318001  0.40796865  0.79924369  1  0.018194  0  -0.078288  -0.083926  0  3.984855  0
C  C80  1  0.04334774  0.37332320  0.76422869  1  -0.109832  0  -0.080434  -0.125669  0  3.946824  0
C  C81  1  0.00000715  0.30078659  0.80081889  1  0.070657  0  0.006474  0.147348  0  4.113756  0
C  C82  1  0.95667581  0.26419309  0.87335769  1  -0.120564  0  -0.08027  -0.125591  0  3.946072  0
C  C83  1  0.95684068  0.29920973  0.90800259  1  0.017397  0  -0.078539  -0.084238  0  3.98508  0
C  C84  1  0.99999876  0.26531906  0.76534669  1  -0.053488  0  -0.041689  -0.105404  0  4.118744  0
C  C85  1  0.99998842  0.23466126  0.73467595  1  -0.261923  0  -0.041528  -0.105351  0  4.118707  0
C  C86  1  0.99997682  0.19919419  0.69920292  1  0.070603  0  0.006431  0.147515  0  4.113584  0
C  C87  1  0.04329257  0.23579245  0.62665939  1  -0.119246  0  -0.080396  -0.12604  0  3.946547  0
C  C88  1  0.04313131  0.20077734  0.59201364  1  0.018631  0  -0.078249  -0.08353  0  3.985029  0
C  C89  1  0.99997325  0.12869134  0.62869369  1  -0.029933  0  -0.018357  -0.042801  0  3.978506  0
C  C90  1  0.95681647  0.09201001  0.70077897  1  0.017872  0  -0.078362  -0.083853  0  3.984458  0
C  C91  1  0.95665106  0.12665466  0.73579610  1  -0.111075  0  -0.080484  -0.125763  0  3.946094  0
C  C92  1  0.74261706  0.37130179  0.12868745  1  -0.040499  0  -0.018251  -0.042589  0  3.978337  0
C  C93  1  0.70721252  0.40798235  0.13516810  1  -0.11786  0  -0.078383  -0.08378  0  3.984826  0
C  C94  1  0.63755187  0.37333752  0.16997487  1  0.079826  0  -0.080376  -0.125957  0  3.946293  0
C  C95  1  0.60160490  0.30079704  0.19919085  1  0.034282  0  0.006391  0.147425  0  4.113503  0
C  C96  1  0.63754938  0.26420119  0.19246757  1  -0.038315  0  -0.080356  -0.125738  0  3.945966  0
C  C97  1  0.70721166  0.29921714  0.15761725  1  0.023026  0  -0.07847  -0.083872  0  3.984795  0
C  C98  1  0.53066508  0.26533242  0.23465314  1  -0.028489  0  -0.041618  -0.105351  0  4.118857  0
C  C99  1  0.46933648  0.23467685  0.26530596  1  -0.343571  0  -0.041574  -0.105539  0  4.118855  0
C  C100  1  0.39839607  0.19921008  0.30076467  1  0.034013  0  0.006424  0.147524  0  4.113401  0
C  C101  1  0.36245124  0.23580347  0.30750414  1  -0.038914  0  -0.08029  -0.125636  0  3.94615  0
C  C102  1  0.29279057  0.20078755  0.34236110  1  0.023577  0  -0.078495  -0.084089  0  3.985129  0
C  C103  1  0.25738375  0.12870360  0.37127720  1  -0.041376  0  -0.018382  -0.042704  0  3.978423  0
C  C104  1  0.29278695  0.09202746  0.36478177  1  -0.11352  0  -0.078161  -0.083617  0  3.984598  0
C  C105  1  0.36244848  0.12667318  0.32996514  1  0.07264  0  -0.08053  -0.125816  0  3.94631  0
C  C106  1  0.25738133  0.62867334  0.87129564  1  -0.040402  0  -0.018473  -0.042551  0  3.97828  0
C  C107  1  0.29279401  0.63515097  0.90797697  1  -0.121743  0  -0.078235  -0.083673  0  3.985081  0
C  C108  1  0.36245483  0.66995386  0.87333290  1  0.083341  0  -0.080469  -0.126099  0  3.946625  0
C  C109  1  0.39839578  0.69917829  0.80078979  1  0.033938  0  0.006478  0.147453  0  4.113253  0
C  C110  1  0.36244591  0.69245453  0.76419137  1  -0.038666  0  -0.080283  -0.125374  0  3.945684  0
C  C111  1  0.29278253  0.65760476  0.79920827  1  0.022893  0  -0.078285  -0.083958  0  3.984468  0
C  C112  1  0.46933666  0.73465023  0.76532764  1  -0.345676  0  -0.041631  -0.105432  0  4.11876  0
C  C113  1  0.53066539  0.76531323  0.73468023  1  -0.026923  0  -0.041551  -0.105323  0  4.118832  0
C  C114  1  0.60160572  0.80078201  0.69921530  1  0.034985  0  0.006425  0.147365  0  4.113567  0
C  C115  1  0.63755602  0.80752238  0.73580953  1  -0.03858  0  -0.080211  -0.125389  0  3.945912  0
C  C116  1  0.70721806  0.84237655  0.70079128  1  0.023255  0  -0.078492  -0.084072  0  3.984844  0
C  C117  1  0.74262063  0.87129212  0.62870726  1  -0.040347  0  -0.018212  -0.04256  0  3.978186  0
C  C118  1  0.70720974  0.86480010  0.59202858  1  -0.116261  0  -0.078169  -0.08352  0  3.98477  0
C  C119  1  0.63754876  0.82998505  0.62667458  1  0.078534  0  -0.080461  -0.125804  0  3.946471  0
O  O120  1  0.00000052  0.00000112  0.49999916  1  -1.234226  0  -0.572645  -1.033967  0  2.537254  0
O  O121  1  0.15343475  0.02572968  0.43367334  1  -1.165489  0  -0.316134  -0.548086  0  2.340909  0
O  O122  1  0.04034659  0.15559773  0.38474955  1  -1.155853  0  -0.309139  -0.534576  0  2.357101  0
O  O123  1  0.95938159  0.93366855  0.41289645  1  -1.165233  0  -0.316028  -0.547868  0  2.340524  0
O  O124  1  0.15343523  0.12771445  0.41290668  1  -1.163306  0  -0.316182  -0.548124  0  2.340473  0
O  O125  1  0.04060292  0.91290160  0.43367363  1  -1.165137  0  -0.316123  -0.547965  0  2.340724  0
O  O126  1  0.95964520  0.07490917  0.38474412  1  -1.15841  0  -0.309125  -0.53465  0  2.35747  0
O  O127  1  0.84656298  0.93366026  0.52573470  1  -1.165438  0  -0.316213  -0.548073  0  2.340939  0
O  O128  1  0.95966303  0.88474852  0.65560231  1  -1.155219  0  -0.309089  -0.534516  0  2.357583  0
O  O129  1  0.84657691  0.91289329  0.62772233  1  -1.163911  0  -0.316121  -0.547907  0  2.340678  0
O  O130  1  0.04035030  0.88474590  0.57490957  1  -1.158118  0  -0.309132  -0.534604  0  2.357402  0
O  O131  1  0.04060441  0.12770702  0.52573106  1  -1.177824  0  -0.316233  -0.548214  0  2.340721  0
O  O132  1  0.95939423  0.02571729  0.62771838  1  -1.17873  0  -0.316153  -0.548105  0  2.340508  0
O  O133  1  0.00000120  0.49999993  0.00000143  1  -1.234276  0  -0.572564  -1.033777  0  2.537177  0
O  O134  1  0.95938835  0.58708798  0.06633770  1  -1.164781  0  -0.316114  -0.548046  0  2.340949  0
O  O135  1  0.04035599  0.42509289  0.11525531  1  -1.158053  0  -0.309139  -0.534675  0  2.357397  0
O  O136  1  0.84656513  0.37228573  0.08709291  1  -1.163401  0  -0.316243  -0.548148  0  2.340422  0
O  O137  1  0.04061579  0.56632820  0.08710809  1  -1.165622  0  -0.316061  -0.54785  0  2.340349  0
O  O138  1  0.84656556  0.47427151  0.06631999  1  -1.165469  0  -0.316143  -0.548  0  2.340791  0
O  O139  1  0.95965264  0.34440185  0.11525398  1  -1.15545  0  -0.309172  -0.534603  0  2.357373  0
O  O140  1  0.95938364  0.37228044  0.97428603  1  -1.178521  0  -0.31606  -0.547801  0  2.340458  0
O  O141  1  0.04033709  0.61524850  0.84439829  1  -1.155438  0  -0.309078  -0.534565  0  2.357602  0
O  O142  1  0.04059721  0.47426626  0.87229757  1  -1.178219  0  -0.316166  -0.547976  0  2.34102  0
O  O143  1  0.95965222  0.61525405  0.92509124  1  -1.158077  0  -0.309158  -0.534555  0  2.357217  0
O  O144  1  0.15344169  0.56633244  0.97426456  1  -1.16529  0  -0.316128  -0.547878  0  2.340885  0
O  O145  1  0.15342436  0.58709862  0.87227870  1  -1.163862  0  -0.315961  -0.547854  0  2.340671  0
F  F146  1  0.91475029  0.79924806  0.78599195  1  -0.606893  0  -0.085372  -0.097702  0  1.397553  0
F  F147  1  0.08525360  0.70075220  0.71400875  1  -0.6069  0  -0.085395  -0.097721  0  1.397578  0
F  F148  1  0.91474832  0.70074079  0.88450043  1  -0.604502  0  -0.08544  -0.097783  0  1.397545  0
F  F149  1  0.08525357  0.79925799  0.61550020  1  -0.604703  0  -0.085347  -0.097634  0  1.397607  0
F  F150  1  0.91475161  0.11550674  0.29923647  1  -0.605189  0  -0.085412  -0.097697  0  1.397487  0
F  F151  1  0.08525295  0.38449712  0.20076291  1  -0.605357  0  -0.08537  -0.097666  0  1.397719  0
F  F152  1  0.91475325  0.21401628  0.20073013  1  -0.606552  0  -0.085219  -0.097524  0  1.397851  0
F  F153  1  0.08525111  0.28598686  0.29926960  1  -0.606678  0  -0.085332  -0.097619  0  1.397698  0
