# generated using pymatgen
data_LiH7(C2O)2
_symmetry_space_group_name_H-M   'P 1'
_cell_length_a   5.04095308
_cell_length_b   8.53838822
_cell_length_c   11.75941610
_cell_angle_alpha   76.93181031
_cell_angle_beta   89.99965204
_cell_angle_gamma   89.99982953
_symmetry_Int_Tables_number   1
_chemical_formula_structural   LiH7(C2O)2
_chemical_formula_sum   'Li4 H28 C16 O8'
_cell_volume   493.03595408
_cell_formula_units_Z   4
loop_
 _symmetry_equiv_pos_site_id
 _symmetry_equiv_pos_as_xyz
  1  'x, y, z'
loop_
 _atom_site_type_symbol
 _atom_site_label
 _atom_site_symmetry_multiplicity
 _atom_site_fract_x
 _atom_site_fract_y
 _atom_site_fract_z
 _atom_site_occupancy
 _atom_site_pbe_bader_spin_density
 _atom_site_pbe_cm5_charge
 _atom_site_pbe_ddec_charge
 _atom_site_pbe_ddec_spin_density
 _atom_site_pbe_ddec_sum_bond_order
 _atom_site_pbe_magmom
Li  Li0  1  0.89453840  0.14480936  0.50836795  1  0  0.520518  0.810438  0  0.514603  0
Li  Li1  1  0.39455143  0.35519883  0.49162944  1  0  0.520519  0.810433  0  0.514604  0
Li  Li2  1  0.10543018  0.85520074  0.49162975  1  0  0.520546  0.81047  0  0.514565  0
Li  Li3  1  0.60544690  0.64481163  0.50836653  1  0  0.520505  0.810451  0  0.514582  0
H  H4  1  0.23312296  0.62456995  0.31883350  1  0  0.119722  0.118598  0  1.020979  0
H  H5  1  0.73311456  0.87543142  0.68116384  1  0  0.1197  0.118548  0  1.021107  0
H  H6  1  0.76686744  0.37542571  0.68116593  1  0  0.119755  0.11859  0  1.020956  0
H  H7  1  0.26686790  0.12457771  0.31882705  1  0  0.119772  0.11866  0  1.021031  0
H  H8  1  0.92135099  0.70716337  0.26335638  1  0  0.106406  0.113997  0  0.982086  0
H  H9  1  0.42134907  0.79282322  0.73665543  1  0  0.106359  0.113946  0  0.981972  0
H  H10  1  0.07864337  0.29282663  0.73665371  1  0  0.106395  0.113996  0  0.981855  0
H  H11  1  0.57862942  0.20716509  0.26335133  1  0  0.106419  0.114022  0  0.981906  0
H  H12  1  0.16819193  0.40799218  0.20252565  1  0  0.095391  0.081146  0  1.008311  0
H  H13  1  0.66817993  0.09202175  0.79746818  1  0  0.095392  0.081165  0  1.008194  0
H  H14  1  0.83183219  0.59200943  0.79747342  1  0  0.095352  0.081139  0  1.008167  0
H  H15  1  0.33183229  0.90797768  0.20252416  1  0  0.095317  0.081067  0  1.008138  0
H  H16  1  0.89735543  0.51994568  0.13194598  1  0  0.08535  0.067814  0  1.008169  0
H  H17  1  0.39737553  0.98006333  0.86805130  1  0  0.085381  0.067822  0  1.008253  0
H  H18  1  0.10263695  0.48005201  0.86805505  1  0  0.085352  0.067793  0  1.008333  0
H  H19  1  0.60264661  0.01995665  0.13194409  1  0  0.085342  0.067801  0  1.008401  0
H  H20  1  0.20832519  0.75857488  0.06166191  1  0  0.08627  0.114267  0  1.02904  0
H  H21  1  0.70832647  0.74143052  0.93834179  1  0  0.086258  0.114224  0  1.029086  0
H  H22  1  0.79167116  0.24142096  0.93833665  1  0  0.086266  0.114299  0  1.028951  0
H  H23  1  0.29166988  0.25857854  0.06166113  1  0  0.086274  0.114305  0  1.028936  0
H  H24  1  0.47482599  0.63830217  0.13069546  1  0  0.087615  0.113502  0  1.022338  0
H  H25  1  0.97482607  0.86170579  0.86929402  1  0  0.087595  0.113476  0  1.022468  0
H  H26  1  0.52519020  0.36170690  0.86930747  1  0  0.087597  0.113484  0  1.022455  0
H  H27  1  0.02518416  0.13829060  0.13069592  1  0  0.087605  0.113497  0  1.022461  0
H  H28  1  0.30683675  0.58734122  0.01097122  1  0  0.082625  0.102543  0  1.040218  0
H  H29  1  0.80685106  0.91267001  0.98902034  1  0  0.08264  0.102531  0  1.040281  0
H  H30  1  0.69316356  0.41266431  0.98902590  1  0  0.08263  0.102576  0  1.040266  0
H  H31  1  0.19317306  0.08734321  0.01096772  1  0  0.082634  0.102548  0  1.040182  0
C  C32  1  0.90147572  0.47190373  0.37790117  1  0  0.244965  0.708932  0  4.126436  0
C  C33  1  0.40145276  0.02810137  0.62210398  1  0  0.244911  0.708911  0  4.12676  0
C  C34  1  0.09851667  0.52807779  0.62210428  1  0  0.244997  0.708855  0  4.126284  0
C  C35  1  0.59853169  0.97189017  0.37790430  1  0  0.244964  0.708954  0  4.126504  0
C  C36  1  0.04003276  0.59642955  0.28461665  1  0  -0.151126  -0.325773  0  3.904834  0
C  C37  1  0.54003176  0.90356840  0.71538378  1  0  -0.151076  -0.325628  0  3.904713  0
C  C38  1  0.95995764  0.40357290  0.71538410  1  0  -0.151128  -0.325668  0  3.904757  0
C  C39  1  0.45996062  0.09641855  0.28462392  1  0  -0.151228  -0.325917  0  3.904864  0
C  C40  1  0.08845173  0.53045359  0.17509156  1  0  -0.158964  -0.066018  0  3.939523  0
C  C41  1  0.58844368  0.96954719  0.82489981  1  0  -0.158935  -0.066091  0  3.939489  0
C  C42  1  0.91156446  0.46954018  0.82491143  1  0  -0.158926  -0.065976  0  3.939418  0
C  C43  1  0.41157845  0.03045120  0.17509774  1  0  -0.158883  -0.065934  0  3.939407  0
C  C44  1  0.27969228  0.63440136  0.08979605  1  0  -0.244665  -0.360454  0  3.95803  0
C  C45  1  0.77969628  0.86560377  0.91019825  1  0  -0.244692  -0.36038  0  3.958072  0
C  C46  1  0.72031200  0.36559885  0.91020999  1  0  -0.244639  -0.360496  0  3.957886  0
C  C47  1  0.22031197  0.13439990  0.08979641  1  0  -0.24468  -0.360501  0  3.957653  0
O  O48  1  0.03603597  0.34899662  0.42911064  1  0  -0.445623  -0.749647  0  2.19591  0
O  O49  1  0.53601683  0.15099813  0.57089523  1  0  -0.445652  -0.749752  0  2.196208  0
O  O50  1  0.96396037  0.65100852  0.57089424  1  0  -0.445651  -0.749652  0  2.195675  0
O  O51  1  0.46396961  0.84899460  0.42911298  1  0  -0.445632  -0.749665  0  2.196123  0
O  O52  1  0.65801277  0.49186383  0.40004843  1  0  -0.428489  -0.729335  0  2.187793  0
O  O53  1  0.15802763  0.00811707  0.59994592  1  0  -0.428375  -0.729199  0  2.188053  0
O  O54  1  0.34198755  0.50811759  0.59994586  1  0  -0.428511  -0.729393  0  2.187745  0
O  O55  1  0.84197666  0.99186802  0.40005931  1  0  -0.428466  -0.729316  0  2.187939  0
