# generated using pymatgen
data_RbH5(C2O3)2
_symmetry_space_group_name_H-M   'P 1'
_cell_length_a   7.65227775
_cell_length_b   7.88640757
_cell_length_c   11.55248113
_cell_angle_alpha   90.00012904
_cell_angle_beta   102.90366268
_cell_angle_gamma   90.00023811
_symmetry_Int_Tables_number   1
_chemical_formula_structural   RbH5(C2O3)2
_chemical_formula_sum   'Rb4 H20 C16 O24'
_cell_volume   679.57451214
_cell_formula_units_Z   4
loop_
 _symmetry_equiv_pos_site_id
 _symmetry_equiv_pos_as_xyz
  1  'x, y, z'
loop_
 _atom_site_type_symbol
 _atom_site_label
 _atom_site_symmetry_multiplicity
 _atom_site_fract_x
 _atom_site_fract_y
 _atom_site_fract_z
 _atom_site_occupancy
 _atom_site_hle17_bader_spin_density
 _atom_site_hle17_ddec_charge
 _atom_site_hle17_ddec_spin_density
 _atom_site_hle17_ddec_sum_bond_order
 _atom_site_hle17_magmom
 _atom_site_hse06_10hf_bader_spin_density
 _atom_site_hse06_10hf_ddec_charge
 _atom_site_hse06_10hf_ddec_spin_density
 _atom_site_hse06_10hf_ddec_sum_bond_order
 _atom_site_hse06_10hf_magmom
 _atom_site_hse06_bader_spin_density
 _atom_site_hse06_ddec_charge
 _atom_site_hse06_ddec_spin_density
 _atom_site_hse06_ddec_sum_bond_order
 _atom_site_hse06_magmom
 _atom_site_pbe_bader_spin_density
 _atom_site_pbe_cm5_charge
 _atom_site_pbe_ddec_charge
 _atom_site_pbe_ddec_spin_density
 _atom_site_pbe_ddec_sum_bond_order
 _atom_site_pbe_magmom
Rb  Rb0  1  0.77226926  0.07673823  0.52861123  1  0  0.940755  0  0.521859  0  0  0.88669  0  0.742912  0  0  0.902927  0  0.718199  0  0  0.806509  0.874629  0  0.760534  0
Rb  Rb1  1  0.77226926  0.42325896  0.02861067  1  0  0.940775  0  0.521861  0  0  0.886704  0  0.742913  0  0  0.902943  0  0.718205  0  0  0.806536  0.874664  0  0.760538  0
Rb  Rb2  1  0.22773107  0.92326062  0.47138862  1  0  0.940748  0  0.521868  0  0  0.886687  0  0.742925  0  0  0.902923  0  0.71821  0  0  0.806512  0.874622  0  0.760547  0
Rb  Rb3  1  0.22773107  0.57674116  0.97138918  1  0  0.940766  0  0.521875  0  0  0.886696  0  0.742928  0  0  0.902936  0  0.71822  0  0  0.806534  0.874656  0  0.760554  0
H  H4  1  0.13267999  0.64061680  0.24649430  1  0  0.371476  0  0.907824  0  0  0.349539  0  0.979668  0  0  0.359303  0  0.968395  0  0  0.301853  0.342631  0  0.987667  0
H  H5  1  0.13268946  0.85938261  0.74649844  1  0  0.371541  0  0.907812  0  0  0.349572  0  0.979736  0  0  0.359341  0  0.968449  0  0  0.30185  0.342662  0  0.98773  0
H  H6  1  0.86731900  0.35938332  0.75350449  1  0  0.371486  0  0.90784  0  0  0.349553  0  0.979678  0  0  0.359317  0  0.968402  0  0  0.301858  0.342645  0  0.987676  0
H  H7  1  0.86730952  0.14061624  0.25350208  1  0  0.371524  0  0.907851  0  0  0.349559  0  0.979759  0  0  0.359326  0  0.968479  0  0  0.301839  0.342649  0  0.987754  0
H  H8  1  0.12224574  0.20987677  0.14556999  1  0  0.379632  0  0.910838  0  0  0.350941  0  0.992403  0  0  0.361956  0  0.979331  0  0  0.299394  0.343169  0  1.001598  0
H  H9  1  0.12224950  0.29012070  0.64557231  1  0  0.379566  0  0.910947  0  0  0.350906  0  0.992439  0  0  0.361917  0  0.979379  0  0  0.299395  0.343134  0  1.001632  0
H  H10  1  0.87775459  0.79012335  0.85442900  1  0  0.379554  0  0.910967  0  0  0.3509  0  0.992441  0  0  0.36191  0  0.979382  0  0  0.299385  0.343128  0  1.001637  0
H  H11  1  0.87775217  0.70987942  0.35442860  1  0  0.37954  0  0.910959  0  0  0.35088  0  0.992455  0  0  0.361891  0  0.979396  0  0  0.299388  0.343108  0  1.001646  0
H  H12  1  0.71764656  0.42188739  0.35497131  1  0  0.396802  0  0.89886  0  0  0.363233  0  0.979723  0  0  0.376839  0  0.965768  0  0  0.302493  0.353732  0  0.989366  0
H  H13  1  0.71764925  0.07811316  0.85497054  1  0  0.396793  0  0.898882  0  0  0.36322  0  0.979748  0  0  0.376827  0  0.965789  0  0  0.302488  0.35372  0  0.989391  0
H  H14  1  0.28235510  0.57811273  0.64502788  1  0  0.396842  0  0.898791  0  0  0.363272  0  0.979652  0  0  0.376877  0  0.965697  0  0  0.302508  0.353771  0  0.989295  0
H  H15  1  0.28235108  0.92188443  0.14503018  1  0  0.396729  0  0.898983  0  0  0.36318  0  0.9798  0  0  0.376782  0  0.965854  0  0  0.302492  0.35368  0  0.989443  0
H  H16  1  0.30094908  0.43782551  0.44643170  1  0  0.088412  0  0.901061  0  0  0.097651  0  0.958489  0  0  0.099766  0  0.95688  0  0  0.127497  0.09607  0  0.959849  0
H  H17  1  0.30095436  0.06217998  0.94643389  1  0  0.088374  0  0.901079  0  0  0.09758  0  0.95853  0  0  0.099696  0  0.956919  0  0  0.12747  0.096013  0  0.959904  0
H  H18  1  0.69905259  0.56217461  0.55356749  1  0  0.088402  0  0.901063  0  0  0.097651  0  0.958494  0  0  0.099768  0  0.956884  0  0  0.12749  0.09607  0  0.959854  0
H  H19  1  0.69904328  0.93782014  0.05356730  1  0  0.088428  0  0.901053  0  0  0.097582  0  0.958533  0  0  0.099698  0  0.956923  0  0  0.127476  0.096013  0  0.959905  0
H  H20  1  0.30218443  0.20479651  0.30973651  1  0  0.068219  0  0.951158  0  0  0.070716  0  1.025276  0  0  0.073852  0  1.022308  0  0  0.118683  0.068414  0  1.027545  0
H  H21  1  0.30219090  0.29520602  0.80973751  1  0  0.068278  0  0.951143  0  0  0.070751  0  1.025298  0  0  0.0739  0  1.022317  0  0  0.118674  0.068449  0  1.02757  0
H  H22  1  0.69781590  0.79520235  0.69026248  1  0  0.068215  0  0.951144  0  0  0.07073  0  1.025256  0  0  0.073857  0  1.022296  0  0  0.118689  0.068426  0  1.027527  0
H  H23  1  0.69780809  0.70479410  0.19026301  1  0  0.068272  0  0.951132  0  0  0.070756  0  1.025284  0  0  0.073901  0  1.02231  0  0  0.118677  0.068455  0  1.027554  0
C  C24  1  0.02552793  0.38481970  0.36661042  1  0  0.658239  0  3.830553  0  0  0.600868  0  4.14479  0  0  0.634385  0  4.135656  0  0  0.218408  0.578128  0  4.15035  0
C  C25  1  0.02553080  0.11518442  0.86661233  1  0  0.658316  0  3.830584  0  0  0.600896  0  4.144891  0  0  0.634411  0  4.13575  0  0  0.218428  0.578167  0  4.150457  0
C  C26  1  0.97447374  0.61518042  0.63338877  1  0  0.65832  0  3.830412  0  0  0.600954  0  4.144662  0  0  0.634469  0  4.135526  0  0  0.218468  0.578212  0  4.150224  0
C  C27  1  0.97446684  0.88481570  0.13338713  1  0  0.658379  0  3.83057  0  0  0.600961  0  4.144834  0  0  0.634475  0  4.135696  0  0  0.21848  0.578232  0  4.150402  0
C  C28  1  0.21203580  0.44957832  0.35761412  1  0  0.064142  0  3.642987  0  0  0.040442  0  3.898711  0  0  0.042038  0  3.904763  0  0  -0.000869  0.039222  0  3.894589  0
C  C29  1  0.21204103  0.05042399  0.85761715  1  0  0.064137  0  3.642852  0  0  0.040508  0  3.898502  0  0  0.042103  0  3.904556  0  0  -0.000882  0.039239  0  3.894467  0
C  C30  1  0.78796453  0.55042180  0.64238486  1  0  0.064165  0  3.642897  0  0  0.040416  0  3.898728  0  0  0.042011  0  3.904776  0  0  -0.000854  0.039197  0  3.894607  0
C  C31  1  0.78795796  0.94957613  0.14238337  1  0  0.06398  0  3.642998  0  0  0.040447  0  3.898535  0  0  0.042042  0  3.90459  0  0  -0.000903  0.039179  0  3.894498  0
C  C32  1  0.28459321  0.33300561  0.27157276  1  0  0.058093  0  3.657237  0  0  0.032792  0  3.904789  0  0  0.033754  0  3.911477  0  0  -0.003992  0.032033  0  3.900496  0
C  C33  1  0.28459768  0.16699673  0.77157499  1  0  0.058003  0  3.657218  0  0  0.032687  0  3.904804  0  0  0.033645  0  3.911493  0  0  -0.003974  0.03194  0  3.90052  0
C  C34  1  0.71540712  0.66699451  0.72842623  1  0  0.058137  0  3.657103  0  0  0.03279  0  3.904728  0  0  0.033771  0  3.911404  0  0  -0.004001  0.032031  0  3.900435  0
C  C35  1  0.71540130  0.83300339  0.22842553  1  0  0.058087  0  3.65715  0  0  0.032718  0  3.904759  0  0  0.033673  0  3.911445  0  0  -0.003968  0.031971  0  3.900473  0
C  C36  1  0.47020052  0.39384736  0.26158354  1  0  0.681995  0  3.733222  0  0  0.637854  0  4.030188  0  0  0.670785  0  4.019476  0  0  0.237988  0.615284  0  4.037222  0
C  C37  1  0.47020603  0.10615062  0.76158409  1  0  0.681993  0  3.733319  0  0  0.637817  0  4.030344  0  0  0.670728  0  4.01966  0  0  0.237921  0.615246  0  4.037373  0
C  C38  1  0.52979981  0.60615276  0.73841545  1  0  0.682061  0  3.73321  0  0  0.637962  0  4.030111  0  0  0.670875  0  4.019417  0  0  0.238039  0.615392  0  4.037149  0
C  C39  1  0.52979296  0.89384823  0.23841729  1  0  0.682036  0  3.733293  0  0  0.637898  0  4.030269  0  0  0.670831  0  4.019554  0  0  0.23795  0.615328  0  4.037298  0
O  O40  1  0.89691258  0.49234188  0.35343747  1  0  -0.626152  0  2.057121  0  0  -0.557465  0  2.282775  0  0  -0.584373  0  2.272783  0  0  -0.300699  -0.53887  0  2.289245  0
O  O41  1  0.89691759  0.00765812  0.85343607  1  0  -0.626199  0  2.057029  0  0  -0.55749  0  2.282707  0  0  -0.584396  0  2.272717  0  0  -0.300732  -0.538886  0  2.289169  0
O  O42  1  0.10309043  0.50765570  0.64656365  1  0  -0.626206  0  2.05705  0  0  -0.557526  0  2.282708  0  0  -0.58443  0  2.272717  0  0  -0.300746  -0.538933  0  2.289181  0
O  O43  1  0.10308139  0.99234200  0.14656446  1  0  -0.626191  0  2.05702  0  0  -0.557493  0  2.282691  0  0  -0.5844  0  2.272702  0  0  -0.300762  -0.538889  0  2.289155  0
O  O44  1  0.00890135  0.22824143  0.38448639  1  0  -0.693951  0  2.005412  0  0  -0.648252  0  2.25747  0  0  -0.672481  0  2.247685  0  0  -0.416991  -0.63129  0  2.263705  0
O  O45  1  0.00890636  0.27175888  0.88448627  1  0  -0.693957  0  2.005669  0  0  -0.648244  0  2.25771  0  0  -0.672484  0  2.247967  0  0  -0.416966  -0.631284  0  2.263948  0
O  O46  1  0.99110031  0.77175869  0.61551453  1  0  -0.693999  0  2.005355  0  0  -0.648275  0  2.257377  0  0  -0.672522  0  2.247633  0  0  -0.41701  -0.631313  0  2.263611  0
O  O47  1  0.99109128  0.72824124  0.11551405  1  0  -0.693963  0  2.00564  0  0  -0.648256  0  2.257697  0  0  -0.672493  0  2.247941  0  0  -0.416963  -0.631295  0  2.263936  0
O  O48  1  0.21475448  0.62244152  0.32513219  1  0  -0.573418  0  2.092031  0  0  -0.534677  0  2.317312  0  0  -0.548806  0  2.306379  0  0  -0.460568  -0.524603  0  2.324788  0
O  O49  1  0.21476136  0.87755847  0.82513251  1  0  -0.573473  0  2.091951  0  0  -0.53473  0  2.317199  0  0  -0.548858  0  2.306254  0  0  -0.460558  -0.524639  0  2.324694  0
O  O50  1  0.78524585  0.37755860  0.67486853  1  0  -0.573466  0  2.092025  0  0  -0.534699  0  2.317297  0  0  -0.548838  0  2.306383  0  0  -0.460578  -0.524625  0  2.324774  0
O  O51  1  0.78523762  0.12244164  0.17486801  1  0  -0.573428  0  2.092038  0  0  -0.534699  0  2.317261  0  0  -0.548823  0  2.306309  0  0  -0.460541  -0.52461  0  2.324758  0
O  O52  1  0.16359824  0.32955621  0.15872144  1  0  -0.606109  0  2.108467  0  0  -0.567221  0  2.348452  0  0  -0.581927  0  2.33646  0  0  -0.471457  -0.556633  0  2.356499  0
O  O53  1  0.16360139  0.17044274  0.65872349  1  0  -0.606005  0  2.108534  0  0  -0.567133  0  2.348562  0  0  -0.581817  0  2.336532  0  0  -0.471449  -0.556539  0  2.356589  0
O  O54  1  0.83640343  0.67044518  0.84127601  1  0  -0.606057  0  2.108556  0  0  -0.567178  0  2.348546  0  0  -0.581878  0  2.336546  0  0  -0.471439  -0.556588  0  2.356585  0
O  O55  1  0.83640027  0.82955611  0.34127743  1  0  -0.60602  0  2.108506  0  0  -0.567142  0  2.348558  0  0  -0.581828  0  2.336532  0  0  -0.471459  -0.556549  0  2.356585  0
O  O56  1  0.50247970  0.45252925  0.16957885  1  0  -0.632702  0  1.98014  0  0  -0.59379  0  2.215101  0  0  -0.615455  0  2.205409  0  0  -0.407111  -0.578853  0  2.221561  0
O  O57  1  0.50248357  0.04747363  0.66958253  1  0  -0.632715  0  1.980254  0  0  -0.593791  0  2.215273  0  0  -0.61545  0  2.205582  0  0  -0.407107  -0.578852  0  2.221727  0
O  O58  1  0.49752063  0.54747213  0.83041928  1  0  -0.632765  0  1.980193  0  0  -0.593879  0  2.215143  0  0  -0.615537  0  2.205455  0  0  -0.407189  -0.578946  0  2.221608  0
O  O59  1  0.49751408  0.95252649  0.33041779  1  0  -0.632739  0  1.980278  0  0  -0.593831  0  2.215263  0  0  -0.615497  0  2.205563  0  0  -0.407117  -0.578891  0  2.221718  0
O  O60  1  0.59075121  0.37746768  0.36298880  1  0  -0.575441  0  2.084391  0  0  -0.529325  0  2.312736  0  0  -0.552571  0  2.297561  0  0  -0.351166  -0.513085  0  2.32273  0
O  O61  1  0.59075412  0.12253111  0.86299073  1  0  -0.575392  0  2.084477  0  0  -0.529242  0  2.312805  0  0  -0.552482  0  2.297638  0  0  -0.351079  -0.513  0  2.322795  0
O  O62  1  0.40924912  0.62253244  0.63700932  1  0  -0.575478  0  2.084368  0  0  -0.529363  0  2.312683  0  0  -0.552602  0  2.297512  0  0  -0.351137  -0.51312  0  2.322667  0
O  O63  1  0.40924621  0.87746394  0.13701086  1  0  -0.575384  0  2.08449  0  0  -0.529257  0  2.312811  0  0  -0.552503  0  2.297637  0  0  -0.351106  -0.513022  0  2.322812  0
