# generated using pymatgen
data_NaH36C30(N2O)3
_symmetry_space_group_name_H-M   'P 1'
_cell_length_a   13.18577223
_cell_length_b   13.18576930
_cell_length_c   21.04848005
_cell_angle_alpha   78.29667290
_cell_angle_beta   78.29674198
_cell_angle_gamma   66.18957618
_symmetry_Int_Tables_number   1
_chemical_formula_structural   NaH36C30(N2O)3
_chemical_formula_sum   'Na4 H144 C120 N24 O12'
_cell_volume   3248.48200620
_cell_formula_units_Z   4
loop_
 _symmetry_equiv_pos_site_id
 _symmetry_equiv_pos_as_xyz
  1  'x, y, z'
loop_
 _atom_site_type_symbol
 _atom_site_label
 _atom_site_symmetry_multiplicity
 _atom_site_fract_x
 _atom_site_fract_y
 _atom_site_fract_z
 _atom_site_occupancy
 _atom_site_pbe_bader_charge
 _atom_site_pbe_bader_spin_density
 _atom_site_pbe_cm5_charge
 _atom_site_pbe_ddec_charge
 _atom_site_pbe_ddec_spin_density
 _atom_site_pbe_ddec_sum_bond_order
 _atom_site_pbe_magmom
Na  Na0  1  0.79053051  0.44286543  0.86541116  1  0.87132  0  0.699835  0.716833  0  0.734904  0
Na  Na1  1  0.55713367  0.20946967  0.63458935  1  0.87133  0  0.699857  0.716832  0  0.734918  0
Na  Na2  1  0.20944463  0.55715453  0.13460805  1  0.871407  0  0.699603  0.716688  0  0.734938  0
Na  Na3  1  0.44284643  0.79055686  0.36539229  1  0.871401  0  0.699589  0.716673  0  0.734949  0
H  H4  1  0.87419094  0.25626620  0.75469460  1  0.077549  0  0.107822  0.070713  0  0.99767  0
H  H5  1  0.74373578  0.12580787  0.74530487  1  0.077583  0  0.107837  0.070742  0  0.997661  0
H  H6  1  0.12579255  0.74371961  0.24531889  1  0.07788  0  0.107775  0.070599  0  0.99781  0
H  H7  1  0.25628197  0.87420444  0.25468185  1  0.077811  0  0.107783  0.070588  0  0.997774  0
H  H8  1  0.98968568  0.22965011  0.64445151  1  0.08961  0  0.099984  0.105765  0  1.016566  0
H  H9  1  0.77035146  0.01030938  0.85554758  1  0.089337  0  0.100013  0.10585  0  1.016438  0
H  H10  1  0.01039159  0.77032591  0.35560397  1  0.088428  0  0.100005  0.105917  0  1.016042  0
H  H11  1  0.22968043  0.98960219  0.14439510  1  0.088503  0  0.099939  0.10584  0  1.016108  0
H  H12  1  0.98045529  0.56427092  0.62962613  1  0.085666  0  0.099834  0.104202  0  1.031673  0
H  H13  1  0.43573121  0.01953833  0.87037295  1  0.085842  0  0.099849  0.104206  0  1.031697  0
H  H14  1  0.01958270  0.43569058  0.37045666  1  0.084554  0  0.099828  0.104216  0  1.03182  0
H  H15  1  0.56431236  0.98041370  0.12954215  1  0.084602  0  0.099801  0.104152  0  1.031847  0
H  H16  1  0.86454502  0.57772716  0.73943569  1  0.033709  0  0.10282  0.059225  0  1.0645  0
H  H17  1  0.42227458  0.13545304  0.76056378  1  0.03361  0  0.102827  0.059242  0  1.064495  0
H  H18  1  0.13541677  0.42222974  0.26061515  1  0.033812  0  0.102824  0.059188  0  1.064332  0
H  H19  1  0.57777325  0.86458036  0.23938408  1  0.033756  0  0.102861  0.059295  0  1.064384  0
H  H20  1  0.75644830  0.77176124  0.86905105  1  0.090414  0  0.094308  0.063848  0  1.020721  0
H  H21  1  0.22824410  0.24355016  0.63094733  1  0.090381  0  0.09429  0.063826  0  1.020691  0
H  H22  1  0.24353099  0.22825943  0.13094711  1  0.090178  0  0.094265  0.063776  0  1.020471  0
H  H23  1  0.77173686  0.75646678  0.36905395  1  0.089913  0  0.094265  0.063772  0  1.020495  0
H  H24  1  0.72605917  0.72589531  0.80318752  1  0.059653  0  0.104241  0.069766  0  1.013423  0
H  H25  1  0.27411085  0.27393795  0.69681141  1  0.059755  0  0.104226  0.069677  0  1.013527  0
H  H26  1  0.27391174  0.27413859  0.19680338  1  0.059755  0  0.104248  0.069612  0  1.01362  0
H  H27  1  0.72585507  0.72608858  0.30319722  1  0.05974  0  0.10423  0.069551  0  1.01365  0
H  H28  1  0.18123803  0.07738127  0.54318714  1  0.115735  0  0.105757  0.112597  0  1.020607  0
H  H29  1  0.92262279  0.81875904  0.95681163  1  0.115712  0  0.105765  0.112581  0  1.020625  0
H  H30  1  0.81874301  0.92258309  0.45686504  1  0.116912  0  0.105623  0.11229  0  1.020714  0
H  H31  1  0.07742000  0.18125921  0.04313549  1  0.116909  0  0.105649  0.112329  0  1.020648  0
H  H32  1  0.76241905  0.62003914  0.99465318  1  0.033413  0  0.09468  0.064487  0  1.005613  0
H  H33  1  0.37996262  0.23758008  0.50534705  1  0.033455  0  0.09467  0.064535  0  1.005637  0
H  H34  1  0.23755431  0.38001622  0.00530424  1  0.060748  0  0.094748  0.064529  0  1.005405  0
H  H35  1  0.61998662  0.76244198  0.49469612  1  0.060696  0  0.094754  0.064502  0  1.005371  0
H  H36  1  0.88236203  0.49255443  0.98878951  1  0.045363  0  0.099991  0.061929  0  1.009637  0
H  H37  1  0.50744811  0.11763673  0.51121170  1  0.045333  0  0.100025  0.061959  0  1.009695  0
H  H38  1  0.11761386  0.50751393  0.01117163  1  0.046271  0  0.099982  0.061919  0  1.009781  0
H  H39  1  0.49249108  0.88238447  0.48882905  1  0.046297  0  0.099998  0.061942  0  1.009769  0
H  H40  1  0.28046164  0.89699714  0.49363654  1  0.065055  0  0.111885  0.072757  0  1.015683  0
H  H41  1  0.10300587  0.71953744  0.00636328  1  0.06497  0  0.11191  0.072761  0  1.015773  0
H  H42  1  0.71949178  0.10297997  0.50641232  1  0.067004  0  0.111857  0.072414  0  1.0156  0
H  H43  1  0.89702188  0.28050897  0.99358976  1  0.066976  0  0.111841  0.072382  0  1.015596  0
H  H44  1  0.33784677  0.06655788  0.31070063  1  0.064201  0  0.11327  0.079803  0  0.99738  0
H  H45  1  0.93344506  0.66215256  0.18929900  1  0.064204  0  0.113279  0.079819  0  0.997373  0
H  H46  1  0.66212591  0.93341585  0.68935854  1  0.063851  0  0.113012  0.079225  0  0.997635  0
H  H47  1  0.06658351  0.33787338  0.81064230  1  0.063882  0  0.113034  0.079237  0  0.997633  0
H  H48  1  0.25216427  0.25264804  0.35511520  1  0.115078  0  0.103698  0.104756  0  1.043689  0
H  H49  1  0.74735741  0.74783135  0.14488306  1  0.115366  0  0.103659  0.104717  0  1.043848  0
H  H50  1  0.74786365  0.74731877  0.64494825  1  0.116097  0  0.103693  0.104739  0  1.043562  0
H  H51  1  0.25268285  0.25213360  0.85505124  1  0.116081  0  0.103698  0.104745  0  1.043579  0
H  H52  1  0.85328470  0.85677254  0.77841647  1  0.038415  0  0.091687  0.093611  0  1.016441  0
H  H53  1  0.14323260  0.14671337  0.72158199  1  0.038491  0  0.09165  0.093564  0  1.016451  0
H  H54  1  0.14668371  0.14326154  0.22157995  1  0.039169  0  0.091664  0.093621  0  1.016438  0
H  H55  1  0.85673917  0.85331093  0.27842190  1  0.039033  0  0.091659  0.093615  0  1.016428  0
H  H56  1  0.88671708  0.74720139  0.73133328  1  0.035611  0  0.087511  0.083669  0  1.004216  0
H  H57  1  0.25280248  0.11328053  0.76866544  1  0.035507  0  0.087513  0.083622  0  1.004309  0
H  H58  1  0.11325550  0.25283575  0.26865935  1  0.032434  0  0.087607  0.083724  0  1.004286  0
H  H59  1  0.74716427  0.88674336  0.23134151  1  0.032474  0  0.08759  0.083669  0  1.004313  0
H  H60  1  0.05721050  0.66144545  0.77303973  1  0.044553  0  0.088716  0.087975  0  1.016942  0
H  H61  1  0.33855790  0.94278721  0.72695974  1  0.044502  0  0.088718  0.087994  0  1.016928  0
H  H62  1  0.94275874  0.33859141  0.22695385  1  0.044184  0  0.088642  0.087875  0  1.016747  0
H  H63  1  0.66140969  0.05724023  0.27304713  1  0.044196  0  0.088657  0.0879  0  1.016741  0
H  H64  1  0.01245572  0.74947853  0.83497743  1  0.022648  0  0.088557  0.084839  0  0.99236  0
H  H65  1  0.25052564  0.98754188  0.66502190  1  0.022561  0  0.088557  0.084882  0  0.992326  0
H  H66  1  0.98751269  0.25054936  0.16502073  1  0.02304  0  0.088629  0.084923  0  0.992229  0
H  H67  1  0.74945282  0.01248377  0.33498001  1  0.023088  0  0.088603  0.084877  0  0.992264  0
H  H68  1  0.02278654  0.52130386  0.85736989  1  0.07386  0  0.098907  0.061891  0  1.019395  0
H  H69  1  0.47869897  0.97721040  0.64262931  1  0.073788  0  0.098959  0.061927  0  1.019362  0
H  H70  1  0.97718437  0.47872384  0.14261942  1  0.073278  0  0.098989  0.062081  0  1.019392  0
H  H71  1  0.52127783  0.02281744  0.35738156  1  0.073293  0  0.09897  0.062069  0  1.019353  0
H  H72  1  0.95220333  0.62380652  0.91200137  1  0.038798  0  0.088493  0.042165  0  1.017139  0
H  H73  1  0.37619749  0.04779333  0.58799753  1  0.038903  0  0.088532  0.042226  0  1.01708  0
H  H74  1  0.04776423  0.37621625  0.08799137  1  0.04034  0  0.088443  0.042123  0  1.017067  0
H  H75  1  0.62378432  0.95223416  0.41200989  1  0.040186  0  0.088439  0.042096  0  1.017063  0
H  H76  1  0.83796559  0.43268187  0.10263537  1  0.000985  0  0.086736  0.081136  0  1.027976  0
H  H77  1  0.56732221  0.16203249  0.39736527  1  0.000934  0  0.086736  0.081156  0  1.02792  0
H  H78  1  0.16202787  0.56740154  0.89732207  1  0.000131  0  0.086753  0.08095  0  1.028212  0
H  H79  1  0.43260360  0.83797209  0.60267933  1  0.000308  0  0.08673  0.080936  0  1.028224  0
H  H80  1  0.73343140  0.56960729  0.10627213  1  0.055261  0  0.088409  0.086734  0  1.030224  0
H  H81  1  0.43039476  0.26656464  0.39372800  1  0.055316  0  0.08845  0.086782  0  1.030239  0
H  H82  1  0.26653528  0.43045912  0.89369044  1  0.055636  0  0.088479  0.086715  0  1.030422  0
H  H83  1  0.56954443  0.73346354  0.60631044  1  0.0557  0  0.088482  0.086695  0  1.030464  0
H  H84  1  0.60326474  0.47869720  0.12441175  1  0.025477  0  0.092507  0.094658  0  1.00688  0
H  H85  1  0.52130015  0.39673582  0.37558792  1  0.025459  0  0.092484  0.09466  0  1.00688  0
H  H86  1  0.39673208  0.52132222  0.87556486  1  0.025055  0  0.092398  0.094399  0  1.006905  0
H  H87  1  0.47867918  0.60326786  0.62443712  1  0.025062  0  0.092398  0.094453  0  1.006845  0
H  H88  1  0.70853741  0.35550982  0.09539252  1  -0.014047  0  0.087582  0.081078  0  0.994857  0
H  H89  1  0.64448960  0.29146480  0.40460674  1  -0.014039  0  0.087583  0.081107  0  0.994819  0
H  H90  1  0.29148869  0.64452486  0.90457600  1  -0.014313  0  0.087537  0.08092  0  0.994878  0
H  H91  1  0.35547803  0.70851310  0.59542642  1  -0.014249  0  0.087543  0.080968  0  0.994848  0
H  H92  1  0.60627257  0.43096167  0.00153714  1  0.041155  0  0.103279  0.06594  0  1.0215  0
H  H93  1  0.56903714  0.39372835  0.49846183  1  0.041168  0  0.103297  0.06595  0  1.021523  0
H  H94  1  0.39373596  0.56905796  0.99843461  1  0.040625  0  0.103258  0.065875  0  1.021738  0
H  H95  1  0.43094052  0.60626512  0.50156758  1  0.040857  0  0.103255  0.06589  0  1.021779  0
H  H96  1  0.57256159  0.57180135  0.01510252  1  0.04748  0  0.092771  0.054749  0  1.013456  0
H  H97  1  0.42819997  0.42743786  0.48489768  1  0.04749  0  0.092774  0.054777  0  1.013439  0
H  H98  1  0.42741013  0.42822601  0.98487533  1  0.047109  0  0.092785  0.054637  0  1.013423  0
H  H99  1  0.57177267  0.57259004  0.51512654  1  0.04712  0  0.092766  0.054582  0  1.013418  0
H  H100  1  0.59097842  0.69978625  0.90048641  1  0.062961  0  0.105755  0.077458  0  0.996706  0
H  H101  1  0.30021415  0.40902265  0.59951461  1  0.063055  0  0.105753  0.077484  0  0.996692  0
H  H102  1  0.40903267  0.30024333  0.09951510  1  0.063323  0  0.105661  0.07739  0  0.996658  0
H  H103  1  0.69975593  0.59096742  0.40048580  1  0.063334  0  0.105674  0.07742  0  0.99662  0
H  H104  1  0.48451746  0.64546617  0.90869416  1  0.043517  0  0.093833  0.053251  0  1.021041  0
H  H105  1  0.35453563  0.51548279  0.59130677  1  0.043518  0  0.093817  0.053209  0  1.021067  0
H  H106  1  0.51549198  0.35456638  0.09131858  1  0.042561  0  0.093711  0.053117  0  1.021105  0
H  H107  1  0.64543526  0.48450617  0.40868133  1  0.042546  0  0.093723  0.053129  0  1.021103  0
H  H108  1  0.52546654  0.82919728  0.80464353  1  0.039233  0  0.091236  0.089852  0  1.001436  0
H  H109  1  0.17080348  0.47453648  0.69535760  1  0.03928  0  0.091273  0.089918  0  1.001411  0
H  H110  1  0.47454371  0.17081945  0.19535926  1  0.038991  0  0.091226  0.089885  0  1.001426  0
H  H111  1  0.82917999  0.52545783  0.30464055  1  0.038978  0  0.091225  0.089879  0  1.001421  0
H  H112  1  0.39551830  0.82684837  0.84732841  1  0.034945  0  0.096626  0.099073  0  0.980825  0
H  H113  1  0.17315512  0.60448257  0.65267213  1  0.034897  0  0.096639  0.099076  0  0.980868  0
H  H114  1  0.60448276  0.17318656  0.15267845  1  0.035152  0  0.096661  0.099058  0  0.980909  0
H  H115  1  0.82681663  0.39551847  0.34732239  1  0.034883  0  0.096633  0.099018  0  0.980971  0
H  H116  1  0.40479851  0.68200201  0.78654789  1  0.004384  0  0.089493  0.085408  0  1.004316  0
H  H117  1  0.31800181  0.59520180  0.71345178  1  0.004225  0  0.089484  0.085355  0  1.004287  0
H  H118  1  0.59520505  0.31802344  0.21345274  1  0.003787  0  0.089568  0.085527  0  1.004155  0
H  H119  1  0.68197747  0.40479332  0.28654917  1  0.004188  0  0.089574  0.085534  0  1.004171  0
H  H120  1  0.46089900  0.76528742  0.72377227  1  0.034421  0  0.094172  0.09644  0  1.015367  0
H  H121  1  0.23471677  0.53910186  0.77622822  1  0.034464  0  0.094149  0.096366  0  1.015372  0
H  H122  1  0.53910540  0.23474392  0.27623461  1  0.034318  0  0.09415  0.096388  0  1.015273  0
H  H123  1  0.76525748  0.46089127  0.22376699  1  0.034355  0  0.094152  0.096438  0  1.015319  0
H  H124  1  0.58450652  0.53968565  0.75662622  1  0.040961  0  0.097561  0.058179  0  1.007664  0
H  H125  1  0.46031682  0.41549194  0.74337349  1  0.040869  0  0.097542  0.058155  0  1.007659  0
H  H126  1  0.41549787  0.46034026  0.24337518  1  0.040729  0  0.09765  0.05834  0  1.007622  0
H  H127  1  0.53966162  0.58450039  0.25662460  1  0.040827  0  0.097638  0.058348  0  1.007686  0
H  H128  1  0.65131959  0.63739770  0.73433990  1  0.041155  0  0.094131  0.054559  0  1.003396  0
H  H129  1  0.36260375  0.34868047  0.76566115  1  0.041153  0  0.094122  0.054545  0  1.003378  0
H  H130  1  0.34868064  0.36263679  0.26567187  1  0.040926  0  0.094202  0.054696  0  1.003322  0
H  H131  1  0.63736548  0.65131687  0.23432845  1  0.04095  0  0.09422  0.054715  0  1.003307  0
H  H132  1  0.11550489  0.65610818  0.52269354  1  0.091642  0  0.101464  0.108111  0  1.021296  0
H  H133  1  0.34389657  0.88449098  0.97730553  1  0.091401  0  0.101414  0.108046  0  1.021368  0
H  H134  1  0.88458331  0.34386456  0.47739374  1  0.092183  0  0.101262  0.107819  0  1.021135  0
H  H135  1  0.65614029  0.11540547  0.02260614  1  0.091913  0  0.10128  0.107877  0  1.021115  0
H  H136  1  0.19992392  0.79706468  0.47080485  1  0.067571  0  0.103585  0.062475  0  1.021505  0
H  H137  1  0.20293745  0.80007680  0.02919392  1  0.067628  0  0.10358  0.062472  0  1.021443  0
H  H138  1  0.80011235  0.20294775  0.52924504  1  0.067884  0  0.103505  0.062397  0  1.02181  0
H  H139  1  0.79705597  0.19987954  0.97075555  1  0.067862  0  0.103507  0.062405  0  1.021742  0
H  H140  1  0.37539608  0.61469420  0.31786089  1  0.054762  0  0.103783  0.055869  0  1.035961  0
H  H141  1  0.38530687  0.62460623  0.18213937  1  0.054647  0  0.103775  0.055893  0  1.035892  0
H  H142  1  0.62461423  0.38529005  0.68217740  1  0.05538  0  0.103906  0.0561  0  1.03567  0
H  H143  1  0.61471168  0.37538248  0.81782460  1  0.055568  0  0.103865  0.056071  0  1.03575  0
H  H144  1  0.29632040  0.46675075  0.36324392  1  0.077158  0  0.100238  0.100953  0  1.047067  0
H  H145  1  0.53324956  0.70368207  0.13675644  1  0.077136  0  0.100241  0.100957  0  1.047047  0
H  H146  1  0.70372681  0.53319721  0.63684560  1  0.077174  0  0.100239  0.100952  0  1.047223  0
H  H147  1  0.46680655  0.29626676  0.86315415  1  0.077125  0  0.10027  0.100979  0  1.047191  0
C  C148  1  0.89985810  0.32276463  0.72551869  1  0.446449  0  0.026595  0.074918  0  4.048606  0
C  C149  1  0.67723868  0.10013716  0.77447962  1  0.446379  0  0.026576  0.074902  0  4.048606  0
C  C150  1  0.10016643  0.67719797  0.27451960  1  0.447799  0  0.026747  0.074977  0  4.048288  0
C  C151  1  0.32280413  0.89983076  0.22548106  1  0.447873  0  0.026798  0.0751  0  4.048194  0
C  C152  1  0.96484395  0.30717240  0.66481809  1  -0.103238  0  -0.094163  -0.169958  0  3.976575  0
C  C153  1  0.69283012  0.03515165  0.83517983  1  -0.10288  0  -0.094193  -0.170046  0  3.976579  0
C  C154  1  0.03520655  0.69279903  0.33523808  1  -0.103787  0  -0.094285  -0.170006  0  3.975528  0
C  C155  1  0.30720512  0.96479042  0.16476184  1  -0.103815  0  -0.094227  -0.170039  0  3.975437  0
C  C156  1  0.99771486  0.39415423  0.62843908  1  0.00929  0  -0.009167  0.025081  0  4.004623  0
C  C157  1  0.60584864  0.00228115  0.87155872  1  0.009253  0  -0.009189  0.025081  0  4.004772  0
C  C158  1  0.00234822  0.60581016  0.37163206  1  -0.012356  0  -0.009132  0.024651  0  4.005304  0
C  C159  1  0.39419410  0.99764720  0.12836712  1  -0.012385  0  -0.009071  0.024875  0  4.004964  0
C  C160  1  0.95895300  0.49431409  0.65628298  1  -0.054412  0  -0.097211  -0.16958  0  4.00474  0
C  C161  1  0.50568847  0.04104147  0.84371549  1  -0.05467  0  -0.097159  -0.169547  0  4.004812  0
C  C162  1  0.04111092  0.50564534  0.34379106  1  -0.053693  0  -0.097579  -0.169943  0  4.004963  0
C  C163  1  0.49435846  0.95888607  0.15620802  1  -0.053908  0  -0.097545  -0.169789  0  4.004802  0
C  C164  1  0.89398393  0.50151107  0.71688006  1  0.492218  0  0.015565  0.057013  0  4.072875  0
C  C165  1  0.49849170  0.10601099  0.78311877  1  0.492625  0  0.015515  0.057  0  4.072915  0
C  C166  1  0.10603309  0.49845130  0.28317204  1  0.494578  0  0.015731  0.057138  0  4.072279  0
C  C167  1  0.50155276  0.89396170  0.21682826  1  0.494705  0  0.015696  0.056895  0  4.07256  0
C  C168  1  0.06710669  0.38333514  0.56533087  1  0.9616  0  0.210525  0.309641  0  4.079222  0
C  C169  1  0.61666745  0.93288828  0.93466677  1  0.960877  0  0.210574  0.309595  0  4.079521  0
C  C170  1  0.93294383  0.61664250  0.43473685  1  0.981141  0  0.210743  0.310183  0  4.078814  0
C  C171  1  0.38336191  0.06704901  0.06526154  1  0.981467  0  0.210647  0.309942  0  4.079107  0
C  C172  1  0.21143395  0.17749920  0.45256190  1  -0.022566  0  0.012591  0.066739  0  3.951555  0
C  C173  1  0.82250491  0.78856340  0.04743728  1  -0.022536  0  0.012598  0.06676  0  3.951728  0
C  C174  1  0.78857388  0.82248682  0.54749929  1  -0.023154  0  0.012744  0.066477  0  3.951783  0
C  C175  1  0.17751527  0.21142464  0.95250092  1  -0.023126  0  0.012797  0.066647  0  3.951732  0
C  C176  1  0.16268931  0.45807455  0.47862036  1  1.007574  0  0.218653  0.322932  0  4.071032  0
C  C177  1  0.54193113  0.83730803  0.02137850  1  1.007383  0  0.218694  0.323125  0  4.070832  0
C  C178  1  0.83736287  0.54189857  0.52143823  1  1.009836  0  0.218631  0.322622  0  4.072195  0
C  C179  1  0.45810745  0.16262657  0.97855895  1  1.009814  0  0.218658  0.322628  0  4.072077  0
C  C180  1  0.16611966  0.28333279  0.48152493  1  1.143109  0  0.236492  0.355423  0  4.105836  0
C  C181  1  0.71667237  0.83387683  0.01847369  1  1.143491  0  0.23648  0.355437  0  4.105962  0
C  C182  1  0.83393086  0.71664949  0.51853649  1  1.136315  0  0.236453  0.355713  0  4.106292  0
C  C183  1  0.28335449  0.16606219  0.98146185  1  1.13619  0  0.236546  0.355787  0  4.106256  0
C  C184  1  0.79337239  0.72435013  0.82697380  1  0.356071  0  -0.075228  0.024288  0  3.875314  0
C  C185  1  0.27565544  0.20662519  0.67302517  1  0.355968  0  -0.075236  0.024358  0  3.875183  0
C  C186  1  0.20659853  0.27568609  0.17301965  1  0.356859  0  -0.075126  0.024777  0  3.874986  0
C  C187  1  0.72430964  0.79340165  0.32698163  1  0.357425  0  -0.075123  0.024822  0  3.875149  0
C  C188  1  0.21648855  0.07662886  0.49167103  1  -0.044717  0  -0.084737  -0.165741  0  3.960314  0
C  C189  1  0.92337408  0.78350864  0.00832787  1  -0.044724  0  -0.084761  -0.165773  0  3.960497  0
C  C190  1  0.78348748  0.92336064  0.50838284  1  -0.045517  0  -0.084594  -0.165336  0  3.960089  0
C  C191  1  0.07663942  0.21651525  0.99161752  1  -0.045523  0  -0.084589  -0.165424  0  3.960037  0
C  C192  1  0.79296877  0.52839101  0.00722999  1  0.413994  0  -0.074003  0.033631  0  3.852571  0
C  C193  1  0.47161164  0.20702994  0.49277118  1  0.414041  0  -0.074038  0.03348  0  3.852867  0
C  C194  1  0.20700963  0.47167252  0.99273002  1  0.38605  0  -0.07417  0.033271  0  3.852979  0
C  C195  1  0.52833091  0.79298845  0.50727094  1  0.386079  0  -0.074198  0.033289  0  3.852814  0
C  C196  1  0.26971802  0.97787775  0.46380296  1  0.495414  0  0.036941  0.081024  0  4.018257  0
C  C197  1  0.02212620  0.73027997  0.03619637  1  0.495415  0  0.036936  0.081055  0  4.018369  0
C  C198  1  0.73022537  0.02210781  0.53624990  1  0.491996  0  0.037008  0.081625  0  4.01772  0
C  C199  1  0.97789401  0.26977626  0.96375163  1  0.492139  0  0.03701  0.081686  0  4.017694  0
C  C200  1  0.30371607  0.07197503  0.36236609  1  0.475217  0  0.039289  0.083125  0  4.011053  0
C  C201  1  0.92802836  0.69628204  0.13763362  1  0.475044  0  0.039317  0.083116  0  4.011123  0
C  C202  1  0.69625410  0.92800429  0.63769032  1  0.476639  0  0.039704  0.083978  0  4.010565  0
C  C203  1  0.07199602  0.30374704  0.86231066  1  0.476559  0  0.039706  0.083999  0  4.010595  0
C  C204  1  0.25549840  0.17472158  0.38624089  1  -0.078023  0  -0.084629  -0.165227  0  3.951626  0
C  C205  1  0.82528241  0.74449707  0.11375808  1  -0.07817  0  -0.084608  -0.165166  0  3.95188  0
C  C206  1  0.74448600  0.82525935  0.61382156  1  -0.082368  0  -0.084684  -0.165214  0  3.951261  0
C  C207  1  0.17474196  0.25551418  0.88617899  1  -0.082377  0  -0.084757  -0.165347  0  3.951377  0
C  C208  1  0.20349367  0.54657089  0.44864416  1  -0.052974  0  -0.003468  0.03262  0  3.993247  0
C  C209  1  0.45343314  0.79650509  0.05135519  1  -0.052505  0  -0.003483  0.032574  0  3.993149  0
C  C210  1  0.79656354  0.45340035  0.55142305  1  -0.077023  0  -0.003145  0.032749  0  3.993172  0
C  C211  1  0.54660627  0.20342454  0.94857614  1  -0.077019  0  -0.003168  0.032758  0  3.993284  0
C  C212  1  0.87836151  0.76610034  0.78108371  1  -0.047358  0  -0.169873  -0.18292  0  3.915325  0
C  C213  1  0.23390407  0.12163745  0.71891429  1  -0.047121  0  -0.169783  -0.182717  0  3.915271  0
C  C214  1  0.12160773  0.23393342  0.21891121  1  -0.044949  0  -0.169926  -0.183059  0  3.915785  0
C  C215  1  0.76606602  0.87838903  0.28108953  1  -0.04519  0  -0.169857  -0.182915  0  3.915659  0
C  C216  1  0.98818046  0.69766704  0.81096763  1  -0.059472  0  -0.168799  -0.182924  0  3.900624  0
C  C217  1  0.30233703  0.01181709  0.68903209  1  -0.059279  0  -0.16879  -0.183043  0  3.900727  0
C  C218  1  0.01179130  0.30235648  0.18902923  1  -0.059338  0  -0.168749  -0.182802  0  3.900622  0
C  C219  1  0.69764310  0.98820715  0.31097121  1  -0.059314  0  -0.168762  -0.182832  0  3.900574  0
C  C220  1  0.96097972  0.60629561  0.86154825  1  0.369629  0  -0.074337  0.028037  0  3.884504  0
C  C221  1  0.39370712  0.03901846  0.63845063  1  0.369659  0  -0.074431  0.027954  0  3.884585  0
C  C222  1  0.03898701  0.39373290  0.13844340  1  0.369038  0  -0.07443  0.02784  0  3.884689  0
C  C223  1  0.60626717  0.96101265  0.36155776  1  0.369165  0  -0.074394  0.027928  0  3.884454  0
C  C224  1  0.76454511  0.49525112  0.08124942  1  -0.022079  0  -0.171204  -0.189211  0  3.893555  0
C  C225  1  0.50475052  0.23545171  0.41875117  1  -0.022105  0  -0.171225  -0.189236  0  3.893527  0
C  C226  1  0.23543663  0.50481657  0.91871010  1  -0.021568  0  -0.171349  -0.188991  0  3.894392  0
C  C227  1  0.49518700  0.76456238  0.58129071  1  -0.021881  0  -0.171351  -0.188979  0  3.894397  0
C  C228  1  0.67338993  0.44745765  0.08596434  1  0.005542  0  -0.170291  -0.186267  0  3.932107  0
C  C229  1  0.55254245  0.32660992  0.41403510  1  0.005545  0  -0.17026  -0.186299  0  3.932045  0
C  C230  1  0.32660438  0.55257665  0.91400783  1  0.005624  0  -0.169965  -0.185447  0  3.931676  0
C  C231  1  0.44742517  0.67339587  0.58599402  1  0.005523  0  -0.169933  -0.185499  0  3.931602  0
C  C232  1  0.63678623  0.48601296  0.01790776  1  0.409936  0  -0.074  0.028993  0  3.891305  0
C  C233  1  0.51398770  0.36321372  0.48209204  1  0.409922  0  -0.073996  0.028977  0  3.891288  0
C  C234  1  0.36320473  0.51402184  0.98206097  1  0.412046  0  -0.074207  0.0287  0  3.891329  0
C  C235  1  0.48597742  0.63679535  0.51794078  1  0.411859  0  -0.074202  0.028751  0  3.891337  0
C  C236  1  0.54158161  0.67811780  0.87323689  1  0.387129  0  -0.071681  0.034039  0  3.867424  0
C  C237  1  0.32188344  0.45841800  0.62676420  1  0.387096  0  -0.071663  0.034087  0  3.867398  0
C  C238  1  0.45842530  0.32190872  0.12677077  1  0.387997  0  -0.071424  0.034459  0  3.867211  0
C  C239  1  0.67809249  0.54157295  0.37322964  1  0.387972  0  -0.071422  0.034454  0  3.867115  0
C  C240  1  0.47825610  0.77478901  0.82464463  1  -0.033333  0  -0.166159  -0.186101  0  3.946938  0
C  C241  1  0.22521310  0.52174545  0.67535604  1  -0.033322  0  -0.166256  -0.186285  0  3.947138  0
C  C242  1  0.52174663  0.22523755  0.17536261  1  -0.032589  0  -0.166248  -0.186345  0  3.947564  0
C  C243  1  0.77476366  0.47825293  0.32463722  1  -0.032002  0  -0.166224  -0.186267  0  3.947614  0
C  C244  1  0.47307223  0.71321279  0.77151898  1  -0.019855  0  -0.170493  -0.195972  0  3.951393  0
C  C245  1  0.28678986  0.52692776  0.72848137  1  -0.019834  0  -0.170432  -0.195744  0  3.95137  0
C  C246  1  0.52692966  0.28681486  0.22848680  1  -0.020119  0  -0.170473  -0.195772  0  3.951437  0
C  C247  1  0.71318691  0.47306830  0.27151409  1  -0.020662  0  -0.170507  -0.195906  0  3.951616  0
C  C248  1  0.58632169  0.61569996  0.76947542  1  0.394891  0  -0.069773  0.038762  0  3.890581  0
C  C249  1  0.38430199  0.41367787  0.73052515  1  0.394846  0  -0.069773  0.038778  0  3.890536  0
C  C250  1  0.41368188  0.38432628  0.23053223  1  0.395273  0  -0.070059  0.038259  0  3.890894  0
C  C251  1  0.61567478  0.58631663  0.26946861  1  0.395148  0  -0.070047  0.038251  0  3.890962  0
C  C252  1  0.17422989  0.64379337  0.47772824  1  -0.019194  0  -0.090667  -0.166908  0  3.980798  0
C  C253  1  0.35621219  0.82576779  0.02227101  1  -0.019243  0  -0.090688  -0.166881  0  3.980786  0
C  C254  1  0.82583066  0.35618900  0.52233760  1  0.001122  0  -0.090855  -0.166564  0  3.980256  0
C  C255  1  0.64381635  0.17415976  0.97766246  1  0.00146  0  -0.090993  -0.16682  0  3.980341  0
C  C256  1  0.22134307  0.72170005  0.44858474  1  0.418496  0  0.024007  0.072975  0  4.04609  0
C  C257  1  0.27830191  0.77866003  0.05141378  1  0.418444  0  0.024041  0.072973  0  4.046085  0
C  C258  1  0.77867730  0.27831063  0.55146313  1  0.42138  0  0.024355  0.073158  0  4.046059  0
C  C259  1  0.72169152  0.22131646  0.94853834  1  0.421744  0  0.024379  0.073181  0  4.045858  0
C  C260  1  0.31837783  0.62064966  0.36383664  1  0.475364  0  0.028628  0.076771  0  4.049969  0
C  C261  1  0.37935215  0.68162265  0.13616184  1  0.475422  0  0.028587  0.076654  0  4.049941  0
C  C262  1  0.68163751  0.37935207  0.63620685  1  0.473145  0  0.028685  0.076651  0  4.049989  0
C  C263  1  0.62065049  0.31835734  0.86379436  1  0.472929  0  0.028737  0.076725  0  4.050217  0
C  C264  1  0.27555789  0.53801748  0.38878524  1  -0.016176  0  -0.091481  -0.165066  0  3.967631  0
C  C265  1  0.46198469  0.72443988  0.11121450  1  -0.016197  0  -0.091508  -0.165108  0  3.967719  0
C  C266  1  0.72450015  0.46195731  0.61127761  1  -0.015043  0  -0.091714  -0.16526  0  3.968241  0
C  C267  1  0.53804720  0.27549261  0.88872313  1  -0.015135  0  -0.091677  -0.165199  0  3.968383  0
N  N268  1  0.86447569  0.41775373  0.75273326  1  -1.230415  0  -0.42884  -0.35809  0  3.427391  0
N  N269  1  0.58224855  0.13552116  0.74726588  1  -1.230603  0  -0.428848  -0.358127  0  3.427424  0
N  N270  1  0.13553042  0.58220963  0.24730111  1  -1.231879  0  -0.428745  -0.357783  0  3.427338  0
N  N271  1  0.41779259  0.86446754  0.25269901  1  -1.231913  0  -0.428802  -0.35782  0  3.427337  0
N  N272  1  0.31366912  0.97412695  0.40037603  1  -1.232313  0  -0.38184  -0.305193  0  3.398601  0
N  N273  1  0.02587627  0.68632988  0.09962375  1  -1.23226  0  -0.381861  -0.30522  0  3.398669  0
N  N274  1  0.68628264  0.02585777  0.59967824  1  -1.229876  0  -0.382107  -0.305646  0  3.39832  0
N  N275  1  0.97414310  0.31371969  0.90032330  1  -1.229846  0  -0.382112  -0.305667  0  3.398378  0
N  N276  1  0.29542061  0.71089498  0.39302836  1  -1.236791  0  -0.403621  -0.342472  0  3.396284  0
N  N277  1  0.28910443  0.70458309  0.10697091  1  -1.23674  0  -0.403555  -0.342362  0  3.396293  0
N  N278  1  0.70458886  0.28911670  0.60700842  1  -1.236663  0  -0.403657  -0.342508  0  3.396578  0
N  N279  1  0.71088734  0.29540334  0.89299203  1  -1.236883  0  -0.403631  -0.342495  0  3.396392  0
N  N280  1  0.10306014  0.28421861  0.53977849  1  -1.206096  0  -0.344208  -0.468483  0  3.252137  0
N  N281  1  0.71578671  0.89693633  0.96022009  1  -1.206262  0  -0.344235  -0.468503  0  3.252084  0
N  N282  1  0.89699707  0.71576115  0.46028383  1  -1.204679  0  -0.344419  -0.46897  0  3.251989  0
N  N283  1  0.28424266  0.10299787  0.03971479  1  -1.204907  0  -0.344397  -0.468938  0  3.252033  0
N  N284  1  0.09875526  0.46874459  0.53679545  1  -1.222334  0  -0.312322  -0.393842  0  3.323794  0
N  N285  1  0.53126053  0.90124014  0.96320274  1  -1.221734  0  -0.312382  -0.393902  0  3.324065  0
N  N286  1  0.90129943  0.53122682  0.46326826  1  -1.220907  0  -0.312337  -0.393548  0  3.323766  0
N  N287  1  0.46877804  0.09869135  0.03672988  1  -1.220753  0  -0.312332  -0.393466  0  3.323857  0
N  N288  1  0.19862904  0.36514363  0.44717351  1  -1.192451  0  -0.344996  -0.47433  0  3.259544  0
N  N289  1  0.63486052  0.80136911  0.05282548  1  -1.192549  0  -0.344944  -0.474358  0  3.259682  0
N  N290  1  0.80142229  0.63483832  0.55287313  1  -1.186889  0  -0.344735  -0.474199  0  3.260788  0
N  N291  1  0.36516637  0.19856994  0.94712477  1  -1.186935  0  -0.344849  -0.474296  0  3.260746  0
O  O292  1  0.85646303  0.60888077  0.84943971  1  -1.035463  0  -0.255678  -0.262089  0  2.448767  0
O  O293  1  0.39112374  0.14353427  0.65055854  1  -1.035779  0  -0.255703  -0.262158  0  2.448744  0
O  O294  1  0.14350368  0.39114773  0.15054576  1  -1.036627  0  -0.25569  -0.262325  0  2.448842  0
O  O295  1  0.60884888  0.85649593  0.34945446  1  -1.036653  0  -0.255708  -0.262403  0  2.44885  0
O  O296  1  0.73662558  0.48426174  0.97459175  1  -1.048718  0  -0.289232  -0.277882  0  2.486136  0
O  O297  1  0.51574001  0.26337474  0.52540885  1  -1.048781  0  -0.289284  -0.277871  0  2.486128  0
O  O298  1  0.26336035  0.51579198  0.02537093  1  -1.049471  0  -0.288824  -0.277467  0  2.485661  0
O  O299  1  0.48420754  0.73663943  0.47463032  1  -1.049443  0  -0.288814  -0.277503  0  2.485546  0
O  O300  1  0.61749806  0.59080743  0.83457615  1  -1.033917  0  -0.282536  -0.284634  0  2.435964  0
O  O301  1  0.40919390  0.38250059  0.66542463  1  -1.033933  0  -0.282485  -0.28461  0  2.435963  0
O  O302  1  0.38250384  0.40921480  0.16543128  1  -1.034017  0  -0.282367  -0.284518  0  2.435718  0
O  O303  1  0.59078622  0.61749419  0.33456914  1  -1.03398  0  -0.282383  -0.284524  0  2.435642  0
