# generated using pymatgen
data_ZnH18C25(NO4)2
_symmetry_space_group_name_H-M   'P 1'
_cell_length_a   12.62671071
_cell_length_b   13.82826296
_cell_length_c   23.72346213
_cell_angle_alpha   87.32373201
_cell_angle_beta   85.74355738
_cell_angle_gamma   86.19652129
_symmetry_Int_Tables_number   1
_chemical_formula_structural   ZnH18C25(NO4)2
_chemical_formula_sum   'Zn2 H36 C50 N4 O16'
_cell_volume   4118.09003749
_cell_formula_units_Z   2
loop_
 _symmetry_equiv_pos_site_id
 _symmetry_equiv_pos_as_xyz
  1  'x, y, z'
loop_
 _atom_site_type_symbol
 _atom_site_label
 _atom_site_symmetry_multiplicity
 _atom_site_fract_x
 _atom_site_fract_y
 _atom_site_fract_z
 _atom_site_occupancy
 _atom_site_pbe_bader_charge
 _atom_site_pbe_bader_spin_density
 _atom_site_pbe_cm5_charge
 _atom_site_pbe_ddec_charge
 _atom_site_pbe_ddec_spin_density
 _atom_site_pbe_ddec_sum_bond_order
 _atom_site_pbe_magmom
Zn  Zn0  1  0.60913020  0.50773530  0.49508206  1  1.304978  0  0.680139  0.880372  0  2.447167  0
Zn  Zn1  1  0.39290015  0.48898481  0.50584582  1  1.31146  0  0.679041  0.880705  0  2.438488  0
H  H2  1  0.49621737  0.26676589  0.06578166  1  0.138566  0  0.123393  0.144201  0  0.97317  0
H  H3  1  0.37930256  0.02568080  0.50366151  1  0.118559  0  0.11991  0.121367  0  0.958541  0
H  H4  1  0.98874822  0.41389299  0.54606293  1  0.162982  0  0.15853  0.169986  0  0.92005  0
H  H5  1  0.01351099  0.58042682  0.45379793  1  0.199236  0  0.15828  0.169866  0  0.92029  0
H  H6  1  0.34990687  0.25264010  0.92605735  1  0.044751  0  0.096375  0.05141  0  0.997111  0
H  H7  1  0.35228475  0.19191060  0.99447664  1  0.03284  0  0.093334  0.045177  0  0.974647  0
H  H8  1  0.46315463  0.05187475  0.94941856  1  0.027174  0  0.092598  0.124856  0  1.004475  0
H  H9  1  0.33633733  0.07171617  0.92113216  1  0.007802  0  0.093821  0.122933  0  0.995707  0
H  H10  1  0.45212605  0.11264591  0.88184617  1  0.081228  0  0.099884  0.141633  0  0.980143  0
H  H11  1  0.35204687  0.79374031  0.07403313  1  0.060539  0  0.097616  0.056137  0  0.981014  0
H  H12  1  0.38125094  0.84763436  0.00482349  1  0.01832  0  0.093684  0.046004  0  0.978517  0
H  H13  1  0.51389957  0.74376881  0.93480164  1  0.159497  0  0.122195  0.142549  0  0.976409  0
H  H14  1  0.49447564  0.96549317  0.04817157  1  0.04082  0  0.093098  0.1253  0  0.999235  0
H  H15  1  0.35998037  0.97484789  0.07701530  1  0.029585  0  0.094768  0.125095  0  0.994137  0
H  H16  1  0.46000607  0.91199625  0.11643811  1  0.062357  0  0.101092  0.143071  0  0.979264  0
H  H17  1  0.27041113  0.32697679  0.83141881  1  0.015878  0  0.099156  0.063385  0  0.97689  0
H  H18  1  0.31946474  0.32765877  0.75927445  1  0.062955  0  0.104414  0.067806  0  0.979946  0
H  H19  1  0.12033962  0.44654026  0.80564265  1  0.023776  0  0.093821  0.089543  0  0.968011  0
H  H20  1  0.16533751  0.44049819  0.73354653  1  0.019327  0  0.090269  0.081648  0  0.981419  0
H  H21  1  0.13907050  0.25958369  0.73771795  1  0.032642  0  0.086143  0.110322  0  1.002949  0
H  H22  1  0.01830019  0.32642918  0.75793715  1  0.021124  0  0.088241  0.115585  0  1.000968  0
H  H23  1  0.09466993  0.26577416  0.81022212  1  0.02328  0  0.086379  0.109692  0  1.003803  0
H  H24  1  0.34656419  0.45485147  0.68734674  1  0.093514  0  0.107981  0.125118  0  1.012041  0
H  H25  1  0.19663332  0.55461852  0.16695879  1  0.038256  0  0.102024  0.070375  0  0.960824  0
H  H26  1  0.29794042  0.63101132  0.18347426  1  0.059083  0  0.096139  0.063401  0  1.023229  0
H  H27  1  0.11784196  0.56052345  0.26605672  1  0.007532  0  0.087473  0.077662  0  0.978291  0
H  H28  1  0.22039937  0.63233306  0.28422104  1  0.05505  0  0.091731  0.086815  0  0.983818  0
H  H29  1  0.16101775  0.76612903  0.21596213  1  0.038808  0  0.088166  0.114891  0  0.997627  0
H  H30  1  0.05423608  0.73737589  0.26538535  1  0.010133  0  0.08675  0.112624  0  1.003827  0
H  H31  1  0.05883758  0.69538503  0.19570482  1  0.037946  0  0.084498  0.106375  0  1.006278  0
H  H32  1  0.32569534  0.48638509  0.32776422  1  0.105153  0  0.109737  0.126138  0  1.000182  0
H  H33  1  0.67279874  0.52755127  0.67107496  1  0.053205  0  0.102109  0.108124  0  1.005624  0
H  H34  1  0.65962184  0.53428152  0.31474808  1  0.083809  0  0.105263  0.111478  0  1.001013  0
H  H35  1  0.67275581  0.53220193  0.77688472  1  0.075916  0  0.109319  0.116703  0  0.978345  0
H  H36  1  0.65928865  0.53894178  0.20868163  1  0.068285  0  0.109769  0.116661  0  0.977051  0
H  H37  1  0.62110647  0.97137826  0.49698369  1  0.102121  0  0.120318  0.121698  0  0.958213  0
C  C38  1  0.54727513  0.31197081  0.49825547  1  1.645034  0  0.217224  0.669012  0  4.239507  0
C  C39  1  0.58696128  0.52574404  0.29400662  1  0.032075  0  -0.084608  -0.090842  0  3.983415  0
C  C40  1  0.60196100  0.51465850  0.75680096  1  -0.027297  0  -0.084444  -0.133801  0  4.008111  0
C  C41  1  0.58650152  0.52848452  0.23535941  1  0.023512  0  -0.083517  -0.136456  0  4.00033  0
C  C42  1  0.51056943  0.49450669  0.79075047  1  0.380235  0  0.083572  0.098196  0  4.000384  0
C  C43  1  0.49249537  0.51672630  0.20988583  1  0.307423  0  0.086471  0.100328  0  4.008262  0
C  C44  1  0.44382116  0.78946717  0.50285172  1  0.20712  0  -0.04054  -0.178151  0  3.943311  0
C  C45  1  0.55847092  0.20752959  0.49805901  1  0.165663  0  -0.040296  -0.177416  0  3.941514  0
C  C46  1  0.45221825  0.97833199  0.50178823  1  0.124012  0  -0.058933  -0.042997  0  4.047519  0
C  C47  1  0.54829974  0.01886975  0.49886821  1  0.08801  0  -0.058964  -0.041903  0  4.047942  0
C  C48  1  0.55638887  0.11944309  0.49832614  1  -0.477787  0  -0.035567  -0.014851  0  4.168211  0
C  C49  1  0.45608806  0.68507334  0.50258519  1  1.688072  0  0.216929  0.666855  0  4.241434  0
C  C50  1  0.44465574  0.87766246  0.50250609  1  -0.526484  0  -0.035462  -0.014317  0  4.168413  0
C  C51  1  0.97366012  0.52888548  0.48304908  1  0.065874  0  -0.007108  -0.074671  0  3.939682  0
C  C52  1  0.02857538  0.46548776  0.51683828  1  0.234664  0  -0.007374  -0.075554  0  3.940341  0
C  C53  1  0.50764773  0.49094569  0.61033181  1  1.552702  0  0.217088  0.599517  0  4.154951  0
C  C54  1  0.49329314  0.50641322  0.39067737  1  1.52311  0  0.218703  0.60158  0  4.151583  0
C  C55  1  0.14067517  0.46410011  0.51558501  1  0.773062  0  0.251626  0.327577  0  3.931734  0
C  C56  1  0.86152344  0.53079005  0.48451534  1  0.872206  0  0.251326  0.327294  0  3.928611  0
C  C57  1  0.48476364  0.60442642  0.11851940  1  1.369319  0  0.245838  0.456166  0  4.082844  0
C  C58  1  0.49954556  0.40785695  0.88241645  1  1.311478  0  0.245548  0.454695  0  4.077548  0
C  C59  1  0.49846028  0.42229199  0.12636386  1  1.373084  0  0.244656  0.444715  0  4.094317  0
C  C60  1  0.41775195  0.47185347  0.76633098  1  0.499783  0  0.089581  0.192871  0  4.064522  0
C  C61  1  0.51199085  0.58881594  0.87420560  1  1.31029  0  0.24373  0.443401  0  4.09454  0
C  C62  1  0.49579948  0.42150780  0.06409197  1  -0.00939  0  -0.004173  -0.036595  0  3.995958  0
C  C63  1  0.50569496  0.58981739  0.93676514  1  0.040865  0  -0.004569  -0.03868  0  3.997118  0
C  C64  1  0.49649069  0.50893867  0.03044362  1  0.012477  0  0.001227  0.037128  0  4.000466  0
C  C65  1  0.49956451  0.50263230  0.97044041  1  -0.008469  0  0.001531  0.039207  0  3.998579  0
C  C66  1  0.49490847  0.60033439  0.05595494  1  -0.021793  0  -0.012253  -0.16985  0  3.938614  0
C  C67  1  0.49738319  0.41153918  0.94494506  1  0.020571  0  -0.010439  -0.168115  0  3.930615  0
C  C68  1  0.49540038  0.33317864  0.03913309  1  -0.04202  0  -0.071085  -0.180728  0  3.9197  0
C  C69  1  0.50707481  0.67808419  0.96174196  1  -0.073986  0  -0.071457  -0.182723  0  3.923175  0
C  C70  1  0.49514395  0.32669047  0.98005406  1  0.599815  0  0.106537  0.261669  0  4.034029  0
C  C71  1  0.39723448  0.50286195  0.24289077  1  0.550736  0  0.088564  0.192019  0  4.042292  0
C  C72  1  0.50158513  0.68486865  0.02096480  1  0.550696  0  0.105028  0.26037  0  4.041465  0
C  C73  1  0.39534877  0.19942363  0.95237473  1  0.409162  0  -0.062623  0.099008  0  3.917064  0
C  C74  1  0.41326297  0.10313497  0.92447870  1  -0.038624  0  -0.240006  -0.392445  0  3.972196  0
C  C75  1  0.41092201  0.83391750  0.04729327  1  0.40754  0  -0.061721  0.097903  0  3.914685  0
C  C76  1  0.43311441  0.92706042  0.07381381  1  -0.056714  0  -0.240205  -0.395038  0  3.972807  0
C  C77  1  0.27318080  0.37097666  0.79143063  1  0.410407  0  -0.062802  0.043617  0  3.882509  0
C  C78  1  0.16129369  0.39841874  0.77414840  1  0.027533  0  -0.169292  -0.139433  0  3.999167  0
C  C79  1  0.09986100  0.30771982  0.76966015  1  -0.076957  0  -0.242316  -0.352451  0  3.988857  0
C  C80  1  0.24384751  0.57598257  0.20096295  1  0.402801  0  -0.070607  0.027517  0  3.892183  0
C  C81  1  0.17151199  0.61655321  0.24962202  1  -0.034068  0  -0.172315  -0.138185  0  3.99408  0
C  C82  1  0.41800647  0.47007099  0.70753938  1  0.0021  0  -0.09431  -0.209543  0  3.962045  0
C  C83  1  0.10786416  0.70880383  0.23064317  1  -0.072314  0  -0.242073  -0.349698  0  3.986498  0
C  C84  1  0.39844828  0.49925620  0.30167947  1  -0.034351  0  -0.085015  -0.186676  0  3.942657  0
C  C85  1  0.50976416  0.49020791  0.67347392  1  -0.027896  0  -0.01491  -0.00537  0  3.975817  0
C  C86  1  0.49283337  0.51057653  0.32741124  1  0.01203  0  -0.013547  -0.010465  0  3.967296  0
C  C87  1  0.60217793  0.51203304  0.69825697  1  0.080713  0  -0.092058  -0.104558  0  3.994915  0
N  N88  1  0.49424645  0.51463322  0.14920133  1  -1.188527  0  -0.232591  -0.219143  0  3.614726  0
N  N89  1  0.51004940  0.49718533  0.85126224  1  -1.179462  0  -0.229502  -0.210453  0  3.604122  0
N  N90  1  0.76936246  0.53237662  0.48579837  1  -1.10662  0  -0.236233  -0.239583  0  3.04495  0
N  N91  1  0.23275146  0.46344303  0.51468307  1  -1.04588  0  -0.237019  -0.240698  0  3.045754  0
O  O92  1  0.63141005  0.35851356  0.49547982  1  -1.135054  0  -0.320079  -0.546986  0  2.232469  0
O  O93  1  0.49358044  0.33325229  0.85704264  1  -1.08774  0  -0.260775  -0.421846  0  2.131666  0
O  O94  1  0.50438877  0.34811996  0.15677859  1  -1.089639  0  -0.274449  -0.426133  0  2.055783  0
O  O95  1  0.51805465  0.66299034  0.84380090  1  -1.105519  0  -0.280031  -0.4355  0  2.059697  0
O  O96  1  0.49847409  0.23583125  0.95966972  1  -1.075322  0  -0.200676  -0.235979  0  2.499859  0
O  O97  1  0.50968285  0.77388265  0.04210132  1  -1.0647  0  -0.199722  -0.234154  0  2.499664  0
O  O98  1  0.33008021  0.45495348  0.80188366  1  -1.079921  0  -0.199954  -0.228744  0  2.529828  0
O  O99  1  0.30555819  0.48811643  0.21724421  1  -1.071338  0  -0.21368  -0.248128  0  2.479497  0
O  O100  1  0.37231910  0.63780950  0.50734661  1  -1.134883  0  -0.320579  -0.547143  0  2.234731  0
O  O101  1  0.45120936  0.34740458  0.50133214  1  -1.132881  0  -0.31651  -0.551873  0  2.271959  0
O  O102  1  0.55225967  0.65035530  0.49743197  1  -1.143667  0  -0.315654  -0.549174  0  2.267858  0
O  O103  1  0.59595399  0.50013232  0.58141199  1  -1.154439  0  -0.320663  -0.554022  0  2.317283  0
O  O104  1  0.40403845  0.50021082  0.41908933  1  -1.155274  0  -0.322223  -0.554674  0  2.303777  0
O  O105  1  0.41780217  0.48297543  0.59029612  1  -1.15982  0  -0.320976  -0.55338  0  2.314572  0
O  O106  1  0.58343522  0.50951892  0.41123223  1  -1.158751  0  -0.319991  -0.555183  0  2.323175  0
O  O107  1  0.46754212  0.67966097  0.14428094  1  -1.105074  0  -0.266743  -0.433047  0  2.124417  0
