# generated using pymatgen
data_ZnH8C9SN2
_symmetry_space_group_name_H-M   'P 1'
_cell_length_a   7.33051592
_cell_length_b   9.72680694
_cell_length_c   12.59991043
_cell_angle_alpha   89.99991783
_cell_angle_beta   89.99972678
_cell_angle_gamma   89.99909255
_symmetry_Int_Tables_number   1
_chemical_formula_structural   ZnH8C9SN2
_chemical_formula_sum   'Zn4 H32 C36 S4 N8'
_cell_volume   898.40527895
_cell_formula_units_Z   4
loop_
 _symmetry_equiv_pos_site_id
 _symmetry_equiv_pos_as_xyz
  1  'x, y, z'
loop_
 _atom_site_type_symbol
 _atom_site_label
 _atom_site_symmetry_multiplicity
 _atom_site_fract_x
 _atom_site_fract_y
 _atom_site_fract_z
 _atom_site_occupancy
 _atom_site_hle17_bader_spin_density
 _atom_site_hle17_ddec_charge
 _atom_site_hle17_ddec_spin_density
 _atom_site_hle17_ddec_sum_bond_order
 _atom_site_hle17_magmom
 _atom_site_hse06_10hf_bader_spin_density
 _atom_site_hse06_10hf_ddec_charge
 _atom_site_hse06_10hf_ddec_spin_density
 _atom_site_hse06_10hf_ddec_sum_bond_order
 _atom_site_hse06_10hf_magmom
 _atom_site_hse06_bader_spin_density
 _atom_site_hse06_ddec_charge
 _atom_site_hse06_ddec_spin_density
 _atom_site_hse06_ddec_sum_bond_order
 _atom_site_hse06_magmom
 _atom_site_pbe_bader_spin_density
 _atom_site_pbe_cm5_charge
 _atom_site_pbe_ddec_charge
 _atom_site_pbe_ddec_spin_density
 _atom_site_pbe_ddec_sum_bond_order
 _atom_site_pbe_magmom
Zn  Zn0  1  0.72250372  0.78420074  0.86168327  1  0  0.726279  0  2.175887  0  0  0.557166  0  2.642791  0  0  0.590444  0  2.608772  0  0  0.570807  0.53438  0  2.665708  0
Zn  Zn1  1  0.22251362  0.21580417  0.13831643  1  0  0.726265  0  2.175944  0  0  0.557145  0  2.64286  0  0  0.59042  0  2.608837  0  0  0.570802  0.534366  0  2.665751  0
Zn  Zn2  1  0.72251046  0.28419766  0.13831729  1  0  0.726189  0  2.17596  0  0  0.557105  0  2.642854  0  0  0.590373  0  2.608831  0  0  0.570791  0.534326  0  2.665756  0
Zn  Zn3  1  0.22250551  0.71580416  0.86168320  1  0  0.726252  0  2.17591  0  0  0.557167  0  2.642792  0  0  0.590438  0  2.608766  0  0  0.570805  0.534386  0  2.665679  0
H  H4  1  0.19596337  0.98155759  0.78175316  1  0  0.075258  0  1.000032  0  0  0.086782  0  1.068904  0  0  0.089439  0  1.067087  0  0  0.086838  0.08481  0  1.070322  0
H  H5  1  0.69597312  0.01843736  0.21824026  1  0  0.07523  0  1.00005  0  0  0.086839  0  1.068851  0  0  0.089501  0  1.067023  0  0  0.086854  0.084866  0  1.07027  0
H  H6  1  0.19597491  0.48156465  0.21824705  1  0  0.075266  0  1.000048  0  0  0.086897  0  1.068824  0  0  0.089559  0  1.066995  0  0  0.086842  0.084922  0  1.070237  0
H  H7  1  0.69596431  0.51844573  0.78175590  1  0  0.075325  0  1.000049  0  0  0.086932  0  1.06883  0  0  0.08959  0  1.067008  0  0  0.086863  0.08496  0  1.070249  0
H  H8  1  0.20669132  0.20332484  0.68608067  1  0  0.082809  0  0.972924  0  0  0.093645  0  1.034455  0  0  0.095669  0  1.035196  0  0  0.095991  0.09232  0  1.033878  0
H  H9  1  0.70670069  0.79666382  0.31390955  1  0  0.082743  0  0.973088  0  0  0.093541  0  1.034641  0  0  0.095567  0  1.035384  0  0  0.095978  0.092218  0  1.034066  0
H  H10  1  0.20670409  0.70333408  0.31392140  1  0  0.082743  0  0.972895  0  0  0.093546  0  1.03447  0  0  0.09557  0  1.035215  0  0  0.095974  0.092219  0  1.033894  0
H  H11  1  0.70670156  0.29667102  0.68609183  1  0  0.082752  0  0.97296  0  0  0.093548  0  1.034532  0  0  0.095575  0  1.03527  0  0  0.095959  0.09222  0  1.033958  0
H  H12  1  0.99067311  0.24951109  0.53743327  1  0  0.083188  0  0.975541  0  0  0.093179  0  1.040407  0  0  0.09557  0  1.03998  0  0  0.094507  0.091307  0  1.041116  0
H  H13  1  0.49068437  0.75048232  0.46255696  1  0  0.08318  0  0.97561  0  0  0.093109  0  1.040541  0  0  0.095494  0  1.040131  0  0  0.094506  0.091263  0  1.041224  0
H  H14  1  0.99068057  0.74951389  0.46256976  1  0  0.083247  0  0.975487  0  0  0.093155  0  1.040455  0  0  0.095546  0  1.040028  0  0  0.094527  0.091304  0  1.041144  0
H  H15  1  0.49068237  0.25048055  0.53744586  1  0  0.083169  0  0.975457  0  0  0.093063  0  1.040441  0  0  0.095449  0  1.040029  0  0  0.094469  0.091214  0  1.041129  0
H  H16  1  0.76537180  0.06907509  0.48456425  1  0  0.08781  0  0.973718  0  0  0.097682  0  1.037122  0  0  0.099494  0  1.038102  0  0  0.09521  0.096376  0  1.036443  0
H  H17  1  0.26538575  0.93092210  0.51543295  1  0  0.087848  0  0.973809  0  0  0.097737  0  1.037199  0  0  0.099545  0  1.038186  0  0  0.095243  0.096433  0  1.036509  0
H  H18  1  0.76538019  0.56907676  0.51543801  1  0  0.087831  0  0.973684  0  0  0.09769  0  1.037126  0  0  0.099494  0  1.038117  0  0  0.095227  0.096399  0  1.036422  0
H  H19  1  0.26537736  0.43091837  0.48456871  1  0  0.087946  0  0.973584  0  0  0.097821  0  1.037005  0  0  0.099628  0  1.037991  0  0  0.09529  0.09651  0  1.036323  0
H  H20  1  0.75528774  0.84730476  0.58058833  1  0  0.096409  0  0.967641  0  0  0.106582  0  1.031649  0  0  0.109032  0  1.031357  0  0  0.094552  0.104806  0  1.032051  0
H  H21  1  0.25530207  0.15269564  0.41941366  1  0  0.096486  0  0.967616  0  0  0.106664  0  1.031587  0  0  0.109113  0  1.031296  0  0  0.09461  0.104894  0  1.031983  0
H  H22  1  0.75529353  0.34730835  0.41940968  1  0  0.096461  0  0.967583  0  0  0.106643  0  1.031574  0  0  0.109095  0  1.031281  0  0  0.094582  0.104865  0  1.031974  0
H  H23  1  0.25529082  0.65269410  0.58058516  1  0  0.096451  0  0.967663  0  0  0.106637  0  1.031635  0  0  0.109087  0  1.031345  0  0  0.094573  0.104857  0  1.032034  0
H  H24  1  0.57873025  0.07390078  0.76790144  1  0  0.101254  0  0.957892  0  0  0.115046  0  1.012363  0  0  0.116882  0  1.012678  0  0  0.112664  0.113518  0  1.012671  0
H  H25  1  0.07873980  0.92611514  0.23209865  1  0  0.101338  0  0.957918  0  0  0.1151  0  1.012423  0  0  0.116936  0  1.012741  0  0  0.112614  0.113571  0  1.012734  0
H  H26  1  0.57872459  0.57388859  0.23209657  1  0  0.101386  0  0.957902  0  0  0.11515  0  1.012387  0  0  0.116986  0  1.012703  0  0  0.112657  0.113617  0  1.012703  0
H  H27  1  0.07874136  0.42611500  0.76790035  1  0  0.101376  0  0.957922  0  0  0.115136  0  1.012427  0  0  0.116973  0  1.012745  0  0  0.112616  0.113607  0  1.012734  0
H  H28  1  0.56658360  0.30273225  0.89985148  1  0  0.098888  0  0.972932  0  0  0.109063  0  1.034563  0  0  0.110695  0  1.03521  0  0  0.110367  0.107774  0  1.03445  0
H  H29  1  0.06658529  0.69728279  0.10015024  1  0  0.098893  0  0.972811  0  0  0.109084  0  1.034398  0  0  0.11072  0  1.035043  0  0  0.110355  0.107784  0  1.034298  0
H  H30  1  0.56657358  0.80272647  0.10015346  1  0  0.098881  0  0.972752  0  0  0.109071  0  1.034352  0  0  0.11071  0  1.034998  0  0  0.110329  0.107773  0  1.034255  0
H  H31  1  0.06658304  0.19728035  0.89984667  1  0  0.098895  0  0.972851  0  0  0.10909  0  1.034422  0  0  0.110726  0  1.035066  0  0  0.110341  0.107794  0  1.034322  0
H  H32  1  0.83154240  0.97671004  0.05860588  1  0  0.066613  0  0.988014  0  0  0.077224  0  1.055295  0  0  0.078599  0  1.054405  0  0  0.117067  0.076194  0  1.056126  0
H  H33  1  0.33154418  0.02329251  0.94139035  1  0  0.066624  0  0.987963  0  0  0.077277  0  1.055191  0  0  0.078656  0  1.054299  0  0  0.117116  0.076252  0  1.056018  0
H  H34  1  0.83154253  0.47670752  0.94139179  1  0  0.066587  0  0.987969  0  0  0.07718  0  1.055271  0  0  0.078554  0  1.054382  0  0  0.117079  0.076152  0  1.056096  0
H  H35  1  0.33153859  0.52328886  0.05861158  1  0  0.06656  0  0.987946  0  0  0.07716  0  1.055252  0  0  0.078534  0  1.054362  0  0  0.117069  0.076134  0  1.056073  0
C  C36  1  0.97678960  0.89870764  0.68675939  1  0  0.100301  0  3.78727  0  0  0.118889  0  4.032263  0  0  0.121107  0  4.056325  0  0  -0.017107  0.117257  0  4.015891  0
C  C37  1  0.47679631  0.10128697  0.31323881  1  0  0.100428  0  3.787178  0  0  0.118858  0  4.032416  0  0  0.121076  0  4.056479  0  0  -0.017083  0.117226  0  4.016054  0
C  C38  1  0.97679763  0.39871246  0.31323796  1  0  0.100402  0  3.786867  0  0  0.118823  0  4.032144  0  0  0.121041  0  4.056211  0  0  -0.017079  0.117194  0  4.015767  0
C  C39  1  0.47679101  0.60129449  0.68676024  1  0  0.100443  0  3.787106  0  0  0.118949  0  4.032239  0  0  0.121168  0  4.056301  0  0  -0.017052  0.117314  0  4.01587  0
C  C40  1  0.10170476  0.00059705  0.71668035  1  0  -0.133397  0  3.78143  0  0  -0.151827  0  4.024436  0  0  -0.154934  0  4.046237  0  0  -0.105314  -0.149636  0  4.009758  0
C  C41  1  0.60171294  0.99939700  0.28331333  1  0  -0.133407  0  3.781528  0  0  -0.151859  0  4.024534  0  0  -0.154963  0  4.046331  0  0  -0.105295  -0.149665  0  4.009864  0
C  C42  1  0.10171642  0.50060841  0.28331985  1  0  -0.133457  0  3.781467  0  0  -0.151928  0  4.024472  0  0  -0.155034  0  4.046269  0  0  -0.105302  -0.149733  0  4.009786  0
C  C43  1  0.60171356  0.49940414  0.71668732  1  0  -0.133476  0  3.781378  0  0  -0.151942  0  4.024346  0  0  -0.155048  0  4.046141  0  0  -0.105305  -0.149755  0  4.009673  0
C  C44  1  0.10680975  0.12588073  0.66285608  1  0  -0.06622  0  3.782604  0  0  -0.074946  0  4.022396  0  0  -0.076563  0  4.043849  0  0  -0.094194  -0.073906  0  4.007811  0
C  C45  1  0.60682006  0.87411120  0.33713441  1  0  -0.066224  0  3.782802  0  0  -0.07491  0  4.022566  0  0  -0.076526  0  4.044006  0  0  -0.094204  -0.073871  0  4.007995  0
C  C46  1  0.10681551  0.62588171  0.33714397  1  0  -0.066131  0  3.782813  0  0  -0.074814  0  4.022574  0  0  -0.076436  0  4.044031  0  0  -0.094178  -0.073778  0  4.008  0
C  C47  1  0.60681430  0.37411639  0.66286319  1  0  -0.066207  0  3.782802  0  0  -0.074899  0  4.022562  0  0  -0.076515  0  4.044007  0  0  -0.094184  -0.07386  0  4.007986  0
C  C48  1  0.98619950  0.15159303  0.57940743  1  0  -0.083178  0  3.776789  0  0  -0.095833  0  4.021539  0  0  -0.097498  0  4.041704  0  0  -0.098375  -0.094721  0  4.007885  0
C  C49  1  0.48621183  0.84839633  0.42058598  1  0  -0.083088  0  3.776793  0  0  -0.095663  0  4.0215  0  0  -0.097327  0  4.041662  0  0  -0.098401  -0.094571  0  4.007835  0
C  C50  1  0.98620867  0.65159796  0.42059413  1  0  -0.083266  0  3.776923  0  0  -0.095855  0  4.02166  0  0  -0.097516  0  4.041825  0  0  -0.098458  -0.094765  0  4.008002  0
C  C51  1  0.48620675  0.34840476  0.57941754  1  0  -0.083126  0  3.777153  0  0  -0.095673  0  4.02186  0  0  -0.097338  0  4.042025  0  0  -0.098369  -0.094585  0  4.008198  0
C  C52  1  0.85971433  0.05102023  0.55001857  1  0  -0.064315  0  3.769181  0  0  -0.075356  0  4.012577  0  0  -0.076769  0  4.034087  0  0  -0.093256  -0.074112  0  3.997733  0
C  C53  1  0.35972162  0.94897581  0.44998075  1  0  -0.06439  0  3.769339  0  0  -0.075486  0  4.012748  0  0  -0.076888  0  4.034247  0  0  -0.093257  -0.07424  0  3.997912  0
C  C54  1  0.85972325  0.55102305  0.44998187  1  0  -0.064266  0  3.769423  0  0  -0.07532  0  4.012814  0  0  -0.076723  0  4.034316  0  0  -0.09321  -0.074087  0  3.997965  0
C  C55  1  0.35972634  0.44897505  0.55002539  1  0  -0.06445  0  3.769446  0  0  -0.075534  0  4.012855  0  0  -0.076937  0  4.034354  0  0  -0.093334  -0.074292  0  3.998029  0
C  C56  1  0.85484737  0.92519506  0.60324308  1  0  -0.133576  0  3.754459  0  0  -0.148896  0  3.996795  0  0  -0.152136  0  4.018221  0  0  -0.101328  -0.146662  0  3.982338  0
C  C57  1  0.35486212  0.07480104  0.39675467  1  0  -0.133708  0  3.754403  0  0  -0.148976  0  3.996821  0  0  -0.152217  0  4.018246  0  0  -0.10142  -0.146752  0  3.98236  0
C  C58  1  0.85485471  0.42520177  0.39675855  1  0  -0.133739  0  3.754401  0  0  -0.149017  0  3.996805  0  0  -0.152259  0  4.018232  0  0  -0.101445  -0.146782  0  3.98234  0
C  C59  1  0.35485205  0.57480255  0.60324237  1  0  -0.133723  0  3.754514  0  0  -0.149019  0  3.996879  0  0  -0.152262  0  4.018307  0  0  -0.101393  -0.14678  0  3.982406  0
C  C60  1  0.62801007  0.08773125  0.84837178  1  0  -0.030868  0  3.761527  0  0  -0.059164  0  4.014416  0  0  -0.058407  0  4.03565  0  0  -0.018925  -0.059374  0  3.99959  0
C  C61  1  0.12801648  0.91228201  0.15162818  1  0  -0.031019  0  3.761588  0  0  -0.059301  0  4.014411  0  0  -0.058546  0  4.035649  0  0  -0.018863  -0.059512  0  3.999583  0
C  C62  1  0.62800372  0.58772332  0.15163005  1  0  -0.031104  0  3.761571  0  0  -0.059356  0  4.014422  0  0  -0.058608  0  4.035654  0  0  -0.018922  -0.059557  0  3.999602  0
C  C63  1  0.12801601  0.41228069  0.84837071  1  0  -0.031158  0  3.761588  0  0  -0.059435  0  4.014433  0  0  -0.058684  0  4.035673  0  0  -0.01891  -0.059638  0  3.999596  0
C  C64  1  0.62382066  0.20151984  0.91355393  1  0  -0.025704  0  3.759137  0  0  -0.056218  0  4.01818  0  0  -0.054689  0  4.039311  0  0  -0.018808  -0.057501  0  4.004091  0
C  C65  1  0.12382312  0.79849039  0.08644683  1  0  -0.025732  0  3.759134  0  0  -0.056238  0  4.018201  0  0  -0.05471  0  4.039329  0  0  -0.018881  -0.057507  0  4.0041  0
C  C66  1  0.62382030  0.70150895  0.08644540  1  0  -0.025817  0  3.759462  0  0  -0.056333  0  4.018518  0  0  -0.05481  0  4.039655  0  0  -0.0189  -0.057613  0  4.004428  0
C  C67  1  0.12382348  0.29848791  0.91355378  1  0  -0.025771  0  3.75929  0  0  -0.056279  0  4.018345  0  0  -0.054749  0  4.039476  0  0  -0.018876  -0.057569  0  4.00426  0
C  C68  1  0.75867338  0.03458132  0.99827825  1  0  0.19063  0  3.729902  0  0  0.139111  0  3.990148  0  0  0.152244  0  4.004958  0  0  0.113278  0.130594  0  3.979983  0
C  C69  1  0.25867584  0.96542521  0.00171738  1  0  0.190621  0  3.729768  0  0  0.139079  0  3.990004  0  0  0.152209  0  4.004819  0  0  0.113212  0.130548  0  3.97984  0
C  C70  1  0.75866962  0.53457984  0.00172089  1  0  0.190737  0  3.729816  0  0  0.139262  0  3.990076  0  0  0.152393  0  4.004881  0  0  0.113336  0.130743  0  3.979909  0
C  C71  1  0.25866868  0.46541949  0.99827871  1  0  0.190813  0  3.729904  0  0  0.139303  0  3.990167  0  0  0.152439  0  4.004974  0  0  0.11335  0.130775  0  3.979996  0
S  S72  1  0.96710002  0.73507634  0.74944089  1  0  -0.402599  0  2.399474  0  0  -0.342512  0  2.81618  0  0  -0.358507  0  2.803281  0  0  -0.183878  -0.331558  0  2.824921  0
S  S73  1  0.46710662  0.26491941  0.25056051  1  0  -0.402612  0  2.399413  0  0  -0.342477  0  2.816187  0  0  -0.358475  0  2.803293  0  0  -0.183883  -0.331521  0  2.824919  0
S  S74  1  0.96710857  0.23508334  0.25055905  1  0  -0.402595  0  2.399462  0  0  -0.342455  0  2.816234  0  0  -0.358454  0  2.803346  0  0  -0.183858  -0.331504  0  2.82497  0
S  S75  1  0.46709944  0.76492475  0.74943839  1  0  -0.402595  0  2.39942  0  0  -0.342485  0  2.816149  0  0  -0.358479  0  2.803251  0  0  -0.183891  -0.331533  0  2.824889  0
N  N76  1  0.71293466  0.98224622  0.90305013  1  0  -0.377309  0  3.338582  0  0  -0.287226  0  3.623471  0  0  -0.307139  0  3.639256  0  0  -0.379666  -0.273375  0  3.612037  0
N  N77  1  0.21294214  0.01776189  0.09694642  1  0  -0.377245  0  3.338421  0  0  -0.287103  0  3.623208  0  0  -0.307017  0  3.638994  0  0  -0.379615  -0.273242  0  3.611763  0
N  N78  1  0.71293220  0.48223911  0.09694547  1  0  -0.377178  0  3.338429  0  0  -0.287134  0  3.623306  0  0  -0.307029  0  3.639073  0  0  -0.37966  -0.273293  0  3.611873  0
N  N79  1  0.21293915  0.51776078  0.90305584  1  0  -0.377288  0  3.338605  0  0  -0.287173  0  3.623414  0  0  -0.307085  0  3.639196  0  0  -0.379676  -0.27331  0  3.611958  0
N  N80  1  0.70721723  0.16708545  0.00844264  1  0  -0.392257  0  3.353065  0  0  -0.302397  0  3.643292  0  0  -0.322542  0  3.658006  0  0  -0.380418  -0.288498  0  3.633086  0
N  N81  1  0.20721699  0.83292274  0.99155551  1  0  -0.392212  0  3.353061  0  0  -0.302397  0  3.643329  0  0  -0.32254  0  3.658046  0  0  -0.380359  -0.288496  0  3.633118  0
N  N82  1  0.70721215  0.66708417  0.99155888  1  0  -0.392185  0  3.353157  0  0  -0.302329  0  3.643362  0  0  -0.322474  0  3.658077  0  0  -0.380353  -0.288425  0  3.633153  0
N  N83  1  0.20721389  0.33291887  0.00844165  1  0  -0.392211  0  3.353214  0  0  -0.302365  0  3.643432  0  0  -0.322509  0  3.658145  0  0  -0.380365  -0.288463  0  3.633228  0
