# generated using pymatgen
data_NiH16C22(SN3)2
_symmetry_space_group_name_H-M   'P 1'
_cell_length_a   8.22296646
_cell_length_b   8.22302064
_cell_length_c   16.47477948
_cell_angle_alpha   82.45741593
_cell_angle_beta   82.45724734
_cell_angle_gamma   86.98437024
_symmetry_Int_Tables_number   1
_chemical_formula_structural   NiH16C22(SN3)2
_chemical_formula_sum   'Ni2 H32 C44 S4 N12'
_cell_volume   1094.08146429
_cell_formula_units_Z   2
loop_
 _symmetry_equiv_pos_site_id
 _symmetry_equiv_pos_as_xyz
  1  'x, y, z'
loop_
 _atom_site_type_symbol
 _atom_site_label
 _atom_site_symmetry_multiplicity
 _atom_site_fract_x
 _atom_site_fract_y
 _atom_site_fract_z
 _atom_site_occupancy
 _atom_site_hle17_ddec_charge
 _atom_site_hle17_ddec_spin_density
 _atom_site_hle17_ddec_sum_bond_order
 _atom_site_hle17_magmom
 _atom_site_hse06_10hf_ddec_charge
 _atom_site_hse06_10hf_ddec_spin_density
 _atom_site_hse06_10hf_ddec_sum_bond_order
 _atom_site_hse06_10hf_magmom
 _atom_site_hse06_ddec_charge
 _atom_site_hse06_ddec_spin_density
 _atom_site_hse06_ddec_sum_bond_order
 _atom_site_hse06_magmom
 _atom_site_pbe_cm5_charge
 _atom_site_pbe_ddec_charge
 _atom_site_pbe_ddec_spin_density
 _atom_site_pbe_ddec_sum_bond_order
 _atom_site_pbe_magmom
Ni  Ni0  1  0.86828128  0.13172620  0.74999829  1  0.716309  -1.798274  2.346912  -1.506  0.685126  -1.817334  2.763889  -1.599  0.764654  -1.877381  2.699041  -1.686  0.701095  0.633251  -1.766448  2.806607  -1.523
Ni  Ni1  1  0.13172186  0.86827644  0.25000030  1  0.716263  -1.798272  2.347077  -1.506  0.685052  -1.817326  2.764075  -1.599  0.764576  -1.877375  2.699233  -1.686  0.701077  0.633178  -1.766438  2.806788  -1.523
H  H2  1  0.74425318  0.39843389  0.62547104  1  0.086827  -0.000658  0.954906  -0.002  0.090936  -0.000587  1.023784  -0.001  0.092675  -0.000373  1.022226  -0.001  0.112116  0.089647  -0.000796  1.025107  -0.001
H  H3  1  0.60157062  0.25574632  0.87452827  1  0.086798  -0.000659  0.954818  -0.002  0.090911  -0.000587  1.023701  -0.001  0.092648  -0.000373  1.022142  -0.001  0.112099  0.089634  -0.000796  1.025026  -0.001
H  H4  1  0.25574766  0.60156505  0.37452976  1  0.08684  -0.000658  0.954952  -0.002  0.090947  -0.000587  1.023822  -0.001  0.092685  -0.000373  1.022265  -0.001  0.112134  0.089669  -0.000796  1.025139  -0.001
H  H5  1  0.39843012  0.74425508  0.12547238  1  0.086835  -0.000659  0.954804  -0.002  0.090953  -0.000587  1.023677  -0.001  0.092692  -0.000373  1.022119  -0.001  0.112121  0.089654  -0.000796  1.02502  -0.001
H  H6  1  0.52262196  0.61631957  0.61905287  1  0.114105  -0.000376  0.953107  0.0  0.122359  -0.000392  1.016816  0.0  0.125114  -0.000262  1.016409  0.0  0.101802  0.120467  -0.000528  1.017179  -0.001
H  H7  1  0.38367699  0.47737209  0.88094815  1  0.114081  -0.000376  0.953096  0.0  0.122342  -0.000392  1.016797  0.0  0.125092  -0.000263  1.016407  0.0  0.101801  0.120447  -0.000528  1.017162  -0.001
H  H8  1  0.47737669  0.38367321  0.38094787  1  0.114107  -0.000376  0.953057  0.0  0.122363  -0.000392  1.016772  0.0  0.125118  -0.000263  1.016364  0.0  0.101808  0.120468  -0.000528  1.017134  -0.001
H  H9  1  0.61632023  0.52262560  0.11905237  1  0.114087  -0.000376  0.953093  0.0  0.122347  -0.000392  1.016802  0.0  0.125107  -0.000263  1.016382  0.0  0.101813  0.120449  -0.000528  1.017166  -0.001
H  H10  1  0.19012012  0.61777333  0.65034554  1  0.113213  -0.000256  0.981904  0.0  0.118919  -0.000286  1.049139  0.0  0.121927  -0.000199  1.048568  0.0  0.10153  0.116716  -0.00038  1.049715  -0.001
H  H11  1  0.38222862  0.80987429  0.84965770  1  0.113247  -0.000256  0.981823  0.0  0.118973  -0.000286  1.04903  0.0  0.121966  -0.000199  1.048473  0.0  0.101558  0.116769  -0.00038  1.049603  -0.001
H  H12  1  0.80987939  0.38222806  0.34965520  1  0.113211  -0.000256  0.981906  0.0  0.118924  -0.000286  1.04912  0.0  0.12193  -0.000199  1.048555  0.0  0.101528  0.116722  -0.00038  1.049688  -0.001
H  H13  1  0.61777238  0.19012097  0.15034212  1  0.113225  -0.000256  0.98183  0.0  0.118929  -0.000286  1.049057  0.0  0.121944  -0.000199  1.048479  0.0  0.101542  0.116723  -0.00038  1.04963  -0.001
H  H14  1  0.96427448  0.83252110  0.66062561  1  0.08394  -0.000563  0.948402  -0.001  0.092326  -0.000563  1.008736  -0.001  0.094418  -0.000352  1.00734  -0.001  0.120301  0.090853  -0.00078  1.00989  -0.001
H  H15  1  0.16749067  0.03572590  0.83937510  1  0.083975  -0.000563  0.948332  -0.001  0.092333  -0.000563  1.008696  -0.001  0.094424  -0.000352  1.0073  -0.001  0.120333  0.090862  -0.00078  1.009849  -0.001
H  H16  1  0.03572855  0.16748400  0.33937465  1  0.083896  -0.000563  0.948389  -0.001  0.092297  -0.000563  1.008714  -0.001  0.094389  -0.000352  1.007318  -0.001  0.1203  0.090824  -0.00078  1.00987  -0.001
H  H17  1  0.83251631  0.96427308  0.16062530  1  0.083893  -0.000563  0.948414  -0.001  0.092304  -0.000563  1.008725  -0.001  0.094396  -0.000352  1.007329  -0.001  0.120308  0.090828  -0.00078  1.009879  -0.001
H  H18  1  0.45734779  0.98375020  0.26063663  1  0.084078  -0.000596  0.964819  -0.001  0.089886  -0.000563  1.029862  -0.001  0.091293  -0.000383  1.02926  -0.001  0.115524  0.088793  -0.000741  1.030574  -0.001
H  H19  1  0.01624741  0.54265265  0.23936438  1  0.084059  -0.000597  0.964891  -0.001  0.089863  -0.000563  1.029916  -0.001  0.09127  -0.000383  1.029313  -0.001  0.115521  0.088769  -0.000741  1.03063  -0.001
H  H20  1  0.54264692  0.01624870  0.73936519  1  0.084005  -0.000596  0.96486  -0.001  0.089807  -0.000563  1.02991  -0.001  0.091213  -0.000383  1.029308  -0.001  0.115474  0.088711  -0.000741  1.030628  -0.001
H  H21  1  0.98375824  0.45734878  0.76063473  1  0.084045  -0.000596  0.964839  -0.001  0.089825  -0.000563  1.029911  -0.001  0.091232  -0.000383  1.029308  -0.001  0.115535  0.088733  -0.000742  1.030627  -0.001
H  H22  1  0.64219546  0.01239309  0.36421984  1  0.09967  -0.000262  0.98512  0.0  0.108804  -0.000302  1.047449  0.0  0.110692  -0.000201  1.048652  0.0  0.103809  0.107462  -0.000403  1.04673  -0.001
H  H23  1  0.98761103  0.35780397  0.13578084  1  0.099671  -0.000262  0.98511  0.0  0.1088  -0.000302  1.047438  0.0  0.110695  -0.000201  1.048628  0.0  0.10381  0.107449  -0.000403  1.046727  -0.001
H  H24  1  0.35780032  0.98760950  0.63578106  1  0.099639  -0.000262  0.985127  0.0  0.108769  -0.000302  1.047448  0.0  0.110669  -0.000201  1.048635  0.0  0.103793  0.107402  -0.000403  1.046802  -0.001
H  H25  1  0.01239472  0.64219500  0.86422025  1  0.09966  -0.000262  0.985157  0.0  0.108789  -0.000302  1.047489  0.0  0.110676  -0.000201  1.048696  0.0  0.1038  0.107443  -0.000403  1.04677  -0.001
H  H26  1  0.21952048  0.95154972  0.55025764  1  0.096147  -0.000332  0.981936  0.0  0.105304  -0.00037  1.047066  0.0  0.107467  -0.000258  1.047442  0.0  0.10305  0.103683  -0.000485  1.047134  -0.001
H  H27  1  0.04843502  0.78047910  0.94974291  1  0.096196  -0.000332  0.981925  0.0  0.10535  -0.00037  1.047054  0.0  0.107515  -0.000258  1.047427  0.0  0.103065  0.103724  -0.000485  1.047117  -0.001
H  H28  1  0.78047705  0.04844060  0.44974031  1  0.096145  -0.000332  0.981986  0.0  0.105293  -0.000371  1.047118  0.0  0.107457  -0.000258  1.047492  0.0  0.103039  0.103664  -0.000485  1.047183  -0.001
H  H29  1  0.95155842  0.21952102  0.05025952  1  0.096129  -0.000332  0.981971  0.0  0.105282  -0.00037  1.047098  0.0  0.107445  -0.000258  1.047473  0.0  0.10302  0.103653  -0.000485  1.047159  -0.001
H  H30  1  0.05841847  0.90652747  0.43934909  1  0.081771  -0.000637  0.953216  -0.001  0.088445  -0.000613  1.018443  -0.001  0.089703  -0.000407  1.017804  -0.001  0.116556  0.087513  -0.000823  1.019103  -0.001
H  H31  1  0.09346140  0.94157735  0.06065236  1  0.081706  -0.000638  0.953189  -0.001  0.088354  -0.000613  1.018458  -0.001  0.089613  -0.000407  1.017819  -0.001  0.116525  0.087422  -0.000823  1.019119  -0.001
H  H32  1  0.94157666  0.09346161  0.56065153  1  0.08172  -0.000637  0.953191  -0.001  0.088376  -0.000613  1.018457  -0.001  0.089635  -0.000407  1.017819  -0.001  0.116531  0.087441  -0.000823  1.01912  -0.001
H  H33  1  0.90653945  0.05842159  0.93934845  1  0.081706  -0.000637  0.953208  -0.001  0.088358  -0.000613  1.01847  -0.001  0.089617  -0.000407  1.017832  -0.001  0.116527  0.087428  -0.000823  1.019127  -0.001
C  C34  1  0.58191804  0.34055577  0.81976321  1  0.129258  0.014446  3.684175  0.01  0.101368  0.004483  3.938474  0.003  0.109775  0.00562  3.956624  0.004  0.046512  0.095442  0.003947  3.926505  0.002
C  C35  1  0.65944503  0.41808469  0.68023619  1  0.1292  0.014448  3.684178  0.01  0.10133  0.004484  3.93845  0.003  0.109726  0.005621  3.956611  0.004  0.046474  0.095425  0.003948  3.926457  0.002
C  C36  1  0.41808270  0.65944563  0.18023744  1  0.129207  0.014453  3.684101  0.01  0.101336  0.004483  3.938369  0.003  0.109733  0.005623  3.956532  0.004  0.046499  0.095432  0.003948  3.926388  0.002
C  C37  1  0.34055464  0.58191301  0.31976478  1  0.129138  0.014453  3.684274  0.01  0.101276  0.004483  3.938549  0.003  0.109673  0.005623  3.956711  0.004  0.046431  0.095353  0.003947  3.926561  0.002
C  C38  1  0.45965863  0.46361519  0.82275043  1  -0.14949  -0.007959  3.701651  -0.01  -0.168623  -0.002798  3.946342  -0.004  -0.175787  -0.002696  3.96693  -0.004  -0.080681  -0.163916  -0.003146  3.932666  -0.004
C  C39  1  0.53638098  0.54034259  0.67725192  1  -0.149517  -0.007957  3.7017  -0.01  -0.168652  -0.002798  3.946387  -0.004  -0.17581  -0.002695  3.96698  -0.004  -0.080687  -0.163955  -0.003146  3.932709  -0.004
C  C40  1  0.54034109  0.53638128  0.17725061  1  -0.149504  -0.007961  3.70163  -0.01  -0.168656  -0.002798  3.946321  -0.004  -0.175813  -0.002696  3.966917  -0.004  -0.080706  -0.163953  -0.003146  3.932633  -0.004
C  C41  1  0.46361752  0.45965388  0.32274981  1  -0.149533  -0.007961  3.701588  -0.01  -0.168677  -0.002798  3.946277  -0.004  -0.175835  -0.002696  3.96687  -0.004  -0.080692  -0.163977  -0.003146  3.932594  -0.004
C  C42  1  0.43465397  0.56534863  0.75000065  1  0.094376  0.013676  3.753949  0.009  0.108602  0.005292  3.980566  0.003  0.1115  0.005413  4.002722  0.003  0.012016  0.106637  0.005823  3.965611  0.003
C  C43  1  0.56534928  0.43465155  0.24999931  1  0.094416  0.013681  3.753839  0.009  0.10866  0.005292  3.980451  0.003  0.111558  0.005415  4.002606  0.003  0.012007  0.106695  0.005823  3.965487  0.003
C  C44  1  0.30434664  0.69565223  0.75000217  1  0.103828  0.012125  3.75291  0.008  0.113627  0.004652  3.983751  0.003  0.118204  0.004774  4.003895  0.003  0.016555  0.110509  0.005218  3.970104  0.003
C  C45  1  0.69565420  0.30434671  0.24999863  1  0.103795  0.012128  3.752779  0.008  0.113572  0.004652  3.983655  0.003  0.118147  0.004774  4.003805  0.003  0.016553  0.110448  0.005217  3.97001  0.003
C  C46  1  0.29426311  0.81309845  0.80509279  1  -0.160442  -0.006839  3.694772  -0.009  -0.174384  -0.002567  3.937101  -0.003  -0.180993  -0.002463  3.955506  -0.003  -0.077287  -0.169913  -0.002903  3.924867  -0.004
C  C47  1  0.18690178  0.70573586  0.69490910  1  -0.16039  -0.006839  3.694757  -0.009  -0.174337  -0.002567  3.937118  -0.003  -0.18096  -0.002463  3.955515  -0.003  -0.077284  -0.169867  -0.002903  3.924885  -0.004
C  C48  1  0.70573650  0.18690048  0.19490810  1  -0.160421  -0.006841  3.694672  -0.009  -0.174352  -0.002567  3.937059  -0.003  -0.180984  -0.002462  3.955452  -0.003  -0.077297  -0.169883  -0.002904  3.924818  -0.004
C  C49  1  0.81309906  0.29426308  0.30509171  1  -0.16036  -0.006841  3.69467  -0.009  -0.174298  -0.002567  3.937051  -0.003  -0.180922  -0.002463  3.955445  -0.003  -0.077276  -0.169833  -0.002904  3.924818  -0.004
C  C50  1  0.17276676  0.93714467  0.80085096  1  0.116394  0.01289  3.689263  0.009  0.090073  0.003977  3.946636  0.003  0.097837  0.005016  3.963448  0.003  0.046909  0.084626  0.003515  3.935494  0.002
C  C51  1  0.06285875  0.82723760  0.69914927  1  0.116492  0.012891  3.689201  0.009  0.090165  0.003978  3.946547  0.003  0.097928  0.005017  3.963363  0.003  0.047013  0.084721  0.003516  3.9354  0.002
C  C52  1  0.82723771  0.06285553  0.19914952  1  0.116538  0.012895  3.689154  0.009  0.09018  0.003978  3.946522  0.003  0.097938  0.005016  3.963335  0.003  0.046972  0.084738  0.003516  3.93537  0.002
C  C53  1  0.93714322  0.17276380  0.30085130  1  0.116485  0.012894  3.689222  0.009  0.090134  0.003977  3.946585  0.003  0.097892  0.005016  3.963397  0.003  0.046963  0.084686  0.003515  3.935449  0.002
C  C54  1  0.58917039  0.02314476  0.67411095  1  0.12832  0.011982  3.686854  0.008  0.100333  0.003671  3.942308  0.002  0.108857  0.004543  3.960009  0.003  0.045651  0.094114  0.00331  3.931114  0.002
C  C55  1  0.97686441  0.41082838  0.82588921  1  0.128254  0.011978  3.686784  0.008  0.100276  0.003672  3.942282  0.002  0.108804  0.004541  3.959981  0.003  0.045573  0.094049  0.003309  3.931098  0.002
C  C56  1  0.41082528  0.97686028  0.32589040  1  0.128136  0.011979  3.686824  0.008  0.100129  0.00367  3.94233  0.002  0.108658  0.004546  3.960028  0.003  0.045542  0.093906  0.003309  3.931135  0.002
C  C57  1  0.02313883  0.58917180  0.17411075  1  0.12819  0.011995  3.68689  0.008  0.100212  0.00367  3.942347  0.002  0.108739  0.004544  3.960048  0.003  0.045573  0.093989  0.003309  3.931156  0.002
C  C58  1  0.48734912  0.00540463  0.61538173  1  -0.142662  -0.005762  3.702527  -0.007  -0.161659  -0.002007  3.950093  -0.003  -0.168494  -0.001944  3.970447  -0.003  -0.078898  -0.157354  -0.002216  3.937033  -0.003
C  C59  1  0.99459449  0.51264994  0.88461972  1  -0.142709  -0.00576  3.702445  -0.007  -0.161728  -0.002008  3.949991  -0.003  -0.168559  -0.001944  3.970336  -0.003  -0.078901  -0.157415  -0.002215  3.936941  -0.003
C  C60  1  0.51264672  0.99459674  0.38461986  1  -0.142632  -0.00576  3.702505  -0.007  -0.161683  -0.002007  3.950046  -0.003  -0.168514  -0.001946  3.970391  -0.003  -0.078895  -0.157371  -0.002215  3.936995  -0.003
C  C61  1  0.00540747  0.48735146  0.11538206  1  -0.142604  -0.005771  3.702508  -0.007  -0.161649  -0.002007  3.950026  -0.003  -0.168482  -0.001944  3.970378  -0.003  -0.078872  -0.157332  -0.002216  3.936966  -0.003
C  C62  1  0.55188213  0.01129814  0.53198179  1  0.097483  0.010393  3.749376  0.007  0.107585  0.004055  3.980707  0.002  0.112355  0.00404  3.999731  0.002  0.01443  0.104079  0.004676  3.968344  0.003
C  C63  1  0.98870122  0.44811209  0.96801994  1  0.097541  0.010389  3.74922  0.007  0.107702  0.004055  3.980478  0.002  0.112477  0.004038  3.999497  0.002  0.014391  0.104202  0.004675  3.968112  0.003
C  C64  1  0.44811259  0.98870076  0.46801942  1  0.09745  0.01039  3.749504  0.007  0.107742  0.004054  3.980666  0.002  0.112517  0.004042  3.999687  0.002  0.014456  0.104245  0.004675  3.968298  0.003
C  C65  1  0.01129968  0.55188562  0.03198156  1  0.097382  0.010409  3.749435  0.007  0.107647  0.004055  3.980591  0.002  0.112421  0.00404  3.999613  0.002  0.014433  0.104142  0.004676  3.968231  0.003
C  C66  1  0.27996370  0.95928398  0.48718260  1  -0.142778  -0.006051  3.703844  -0.008  -0.163716  -0.002245  3.952474  -0.003  -0.170711  -0.002125  3.972908  -0.003  -0.078761  -0.15929  -0.002529  3.939362  -0.004
C  C67  1  0.04070414  0.72003458  0.01281926  1  -0.142857  -0.006061  3.704028  -0.008  -0.163802  -0.002245  3.95264  -0.003  -0.170797  -0.002124  3.973072  -0.003  -0.078769  -0.159379  -0.002529  3.939536  -0.004
C  C68  1  0.72003260  0.04070633  0.51281726  1  -0.142786  -0.006053  3.703896  -0.008  -0.163668  -0.002245  3.952537  -0.003  -0.170661  -0.002124  3.972969  -0.003  -0.078713  -0.159238  -0.002529  3.93942  -0.004
C  C69  1  0.95929431  0.27996312  0.98718300  1  -0.142774  -0.00605  3.703859  -0.008  -0.163685  -0.002245  3.95248  -0.003  -0.17068  -0.002123  3.972914  -0.003  -0.078675  -0.159255  -0.002529  3.93936  -0.004
C  C70  1  0.18732223  0.93673773  0.42518951  1  0.113307  0.010494  3.704068  0.007  0.088419  0.00275  3.959652  0.002  0.0964  0.003695  3.97775  0.002  0.04485  0.082616  0.002377  3.948056  0.001
C  C71  1  0.06324982  0.81267638  0.07481179  1  0.113421  0.010509  3.703937  0.007  0.088573  0.00275  3.959483  0.002  0.096553  0.003692  3.97758  0.002  0.044868  0.082769  0.002377  3.947886  0.001
C  C72  1  0.81267535  0.06325137  0.57481094  1  0.113365  0.010496  3.704099  0.007  0.088488  0.00275  3.95966  0.002  0.096466  0.003693  3.977757  0.002  0.044857  0.082689  0.002377  3.948052  0.001
C  C73  1  0.93675097  0.18732378  0.92518894  1  0.113366  0.010491  3.704096  0.007  0.088531  0.002751  3.959629  0.002  0.096511  0.00369  3.977728  0.002  0.044848  0.082726  0.002377  3.948029  0.001
C  C74  1  0.67857230  0.87924323  0.88907696  1  0.277713  0.016593  4.069326  0.006  0.273782  0.003825  4.373817  -0.003  0.299937  0.005337  4.383558  -0.001  0.127789  0.256078  0.002855  4.366378  -0.005
C  C75  1  0.12076480  0.32143867  0.61091982  1  0.277504  0.016593  4.069326  0.006  0.273576  0.003826  4.373809  -0.003  0.299729  0.005339  4.383555  -0.001  0.127713  0.255862  0.002857  4.366374  -0.004
C  C76  1  0.32142941  0.12076430  0.11092141  1  0.277649  0.016597  4.069079  0.006  0.273722  0.003826  4.373577  -0.003  0.299879  0.00534  4.383321  -0.001  0.127801  0.256011  0.002857  4.36614  -0.004
C  C77  1  0.87923440  0.67857007  0.38907802  1  0.277715  0.016595  4.069095  0.006  0.273789  0.003827  4.373597  -0.003  0.299947  0.005339  4.383333  -0.001  0.127816  0.256078  0.002857  4.366166  -0.004
S  S78  1  0.60155269  0.73993202  0.96031315  1  -0.386723  0.004479  1.977947  -0.001  -0.375148  0.004833  2.248296  0.0  -0.389448  0.005806  2.243225  0.001  -0.204196  -0.364193  0.003495  2.251267  -0.001
S  S79  1  0.26009050  0.39845609  0.53967793  1  -0.386753  0.004479  1.977791  -0.001  -0.375174  0.004831  2.248125  0.0  -0.389478  0.005805  2.243059  0.001  -0.204248  -0.364211  0.003495  2.2511  -0.001
S  S80  1  0.39845323  0.26009151  0.03968206  1  -0.386779  0.004477  1.977695  -0.001  -0.375197  0.00483  2.248019  0.0  -0.389502  0.005806  2.242954  0.001  -0.204243  -0.36424  0.003494  2.250993  -0.001
S  S81  1  0.73989775  0.60155012  0.46031412  1  -0.386804  0.004477  1.977696  -0.001  -0.375219  0.004832  2.248012  0.0  -0.389522  0.005804  2.242943  0.001  -0.204253  -0.364259  0.003494  2.250984  -0.001
N  N82  1  0.68102974  0.31897128  0.75000063  1  -0.279855  -0.064323  3.326002  -0.099  -0.233547  -0.042249  3.601419  -0.067  -0.262091  -0.033179  3.625672  -0.056  -0.31745  -0.213515  -0.050278  3.584425  -0.077
N  N83  1  0.31897106  0.68102889  0.25000071  1  -0.279792  -0.064325  3.326007  -0.099  -0.233499  -0.042249  3.601409  -0.067  -0.262043  -0.033181  3.62567  -0.056  -0.317427  -0.213465  -0.050279  3.584404  -0.077
N  N84  1  0.74990477  0.05249116  0.65492495  1  -0.274862  -0.055948  3.292671  -0.087  -0.230495  -0.037809  3.571164  -0.06  -0.256791  -0.029576  3.591961  -0.05  -0.317002  -0.212403  -0.045401  3.557153  -0.069
N  N85  1  0.94751637  0.25009644  0.84507448  1  -0.274825  -0.055944  3.292577  -0.087  -0.230491  -0.037808  3.571083  -0.06  -0.256793  -0.029573  3.591884  -0.05  -0.316989  -0.212399  -0.0454  3.557076  -0.069
N  N86  1  0.25009112  0.94750898  0.34507489  1  -0.274755  -0.055947  3.292598  -0.087  -0.230387  -0.03781  3.571102  -0.06  -0.25669  -0.029577  3.591906  -0.05  -0.316979  -0.212291  -0.045401  3.557087  -0.069
N  N87  1  0.05248682  0.74990497  0.15492601  1  -0.274804  -0.055953  3.292445  -0.087  -0.230458  -0.037808  3.570936  -0.06  -0.256761  -0.029576  3.591738  -0.05  -0.316971  -0.212362  -0.0454  3.556928  -0.069
N  N88  1  0.05640477  0.94360314  0.74999927  1  -0.260696  -0.055385  3.288541  -0.087  -0.221152  -0.037666  3.579026  -0.061  -0.246786  -0.029762  3.600289  -0.051  -0.312908  -0.203374  -0.045034  3.564282  -0.07
N  N89  1  0.94360078  0.05640074  0.25000029  1  -0.260703  -0.055388  3.288556  -0.087  -0.221152  -0.037668  3.579067  -0.061  -0.246772  -0.029764  3.600313  -0.051  -0.312888  -0.203381  -0.045036  3.564331  -0.07
N  N90  1  0.73290010  0.98238916  0.83642391  1  -0.552168  -0.048962  3.080315  -0.072  -0.530842  -0.032843  3.382172  -0.048  -0.558955  -0.027757  3.385595  -0.042  -0.413647  -0.511771  -0.03769  3.379383  -0.053
N  N91  1  0.01762027  0.26710442  0.66356776  1  -0.551939  -0.048951  3.080357  -0.072  -0.530606  -0.032838  3.382192  -0.048  -0.558714  -0.027754  3.385615  -0.042  -0.413536  -0.51153  -0.037684  3.3794  -0.053
N  N92  1  0.26710170  0.01761592  0.16357339  1  -0.55208  -0.048957  3.080352  -0.072  -0.530742  -0.03284  3.382184  -0.048  -0.558851  -0.027756  3.385601  -0.042  -0.413608  -0.511667  -0.037686  3.379393  -0.053
N  N93  1  0.98237919  0.73289819  0.33642561  1  -0.552127  -0.048956  3.080372  -0.072  -0.530796  -0.032842  3.382208  -0.048  -0.558908  -0.027756  3.385629  -0.042  -0.413603  -0.511726  -0.037687  3.379434  -0.053
