# generated using pymatgen
data_Cu2H8C7N6
_symmetry_space_group_name_H-M   'P 1'
_cell_length_a   11.19875117
_cell_length_b   14.28055387
_cell_length_c   15.31953337
_cell_angle_alpha   65.91390076
_cell_angle_beta   68.54457091
_cell_angle_gamma   66.91178737
_symmetry_Int_Tables_number   1
_chemical_formula_structural   Cu2H8C7N6
_chemical_formula_sum   'Cu16 H64 C56 N48'
_cell_volume   1994.80763186
_cell_formula_units_Z   8
loop_
 _symmetry_equiv_pos_site_id
 _symmetry_equiv_pos_as_xyz
  1  'x, y, z'
loop_
 _atom_site_type_symbol
 _atom_site_label
 _atom_site_symmetry_multiplicity
 _atom_site_fract_x
 _atom_site_fract_y
 _atom_site_fract_z
 _atom_site_occupancy
 _atom_site_pbe_bader_charge
 _atom_site_pbe_bader_spin_density
 _atom_site_pbe_cm5_charge
 _atom_site_pbe_ddec_charge
 _atom_site_pbe_ddec_spin_density
 _atom_site_pbe_ddec_sum_bond_order
 _atom_site_pbe_magmom
Cu  Cu0  1  0.32582372  0.25002901  0.74991098  1  0.550659  0  0.518084  0.338487  0  2.031741  0
Cu  Cu1  1  0.67417609  0.74997233  0.25009046  1  0.550771  0  0.518086  0.338504  0  2.031741  0
Cu  Cu2  1  0.64049556  0.03379151  0.45033557  1  0.610175  0  0.510785  0.24777  0  2.375874  0
Cu  Cu3  1  0.12476423  0.46622301  0.04954524  1  0.608321  0  0.510111  0.247507  0  2.374576  0
Cu  Cu4  1  0.35950518  0.96620984  0.54966367  1  0.610064  0  0.510784  0.247717  0  2.375997  0
Cu  Cu5  1  0.87523682  0.53377753  0.95045552  1  0.60832  0  0.510086  0.247472  0  2.374542  0
Cu  Cu6  1  0.45811700  0.29959596  0.32777867  1  0.610878  0  0.524892  0.272347  0  2.347805  0
Cu  Cu7  1  0.08566922  0.20040996  0.17209893  1  0.610554  0  0.524848  0.271243  0  2.349053  0
Cu  Cu8  1  0.54188074  0.70040299  0.67222035  1  0.610895  0  0.524879  0.272365  0  2.34777  0
Cu  Cu9  1  0.91433395  0.79958738  0.82790378  1  0.610609  0  0.52481  0.271188  0  2.348988  0
Cu  Cu10  1  0.08229070  0.62773481  0.50898143  1  0.634025  0  0.530128  0.304367  0  2.326189  0
Cu  Cu11  1  0.21885010  0.87228623  0.99104678  1  0.633218  0  0.530309  0.303978  0  2.327039  0
Cu  Cu12  1  0.91770896  0.37226413  0.49101706  1  0.634101  0  0.530133  0.304382  0  2.326219  0
Cu  Cu13  1  0.78115296  0.12771671  0.00895186  1  0.633233  0  0.530334  0.304028  0  2.327048  0
Cu  Cu14  1  0.11119546  0.75000678  0.24997071  1  0.709673  0  0.544235  0.264312  0  2.563317  0
Cu  Cu15  1  0.88880462  0.24999376  0.75002966  1  0.709716  0  0.544186  0.264275  0  2.56327  0
H  H16  1  0.63164585  0.96994416  0.66765666  1  0.056354  0  0.096842  0.141924  0  1.044639  0
H  H17  1  0.26977306  0.52998970  0.83218073  1  0.078851  0  0.096575  0.141968  0  1.045443  0
H  H18  1  0.36835432  0.03005879  0.33234147  1  0.056335  0  0.09683  0.141916  0  1.044663  0
H  H19  1  0.73022963  0.47001165  0.16781993  1  0.078917  0  0.096568  0.141983  0  1.045475  0
H  H20  1  0.48136046  0.99990056  0.75853955  1  0.052639  0  0.0971  0.149301  0  1.021169  0
H  H21  1  0.24031577  0.50001896  0.74136477  1  0.067403  0  0.096373  0.148766  0  1.02018  0
H  H22  1  0.51864028  0.00010079  0.24145904  1  0.052595  0  0.097085  0.149312  0  1.021195  0
H  H23  1  0.75968337  0.49998158  0.25863717  1  0.067371  0  0.09639  0.148807  0  1.020203  0
H  H24  1  0.60782975  0.06043147  0.72973342  1  0.05852  0  0.099627  0.151786  0  0.993106  0
H  H25  1  0.39856065  0.43950303  0.77005114  1  0.068923  0  0.098984  0.150906  0  0.992127  0
H  H26  1  0.39217130  0.93956908  0.27026734  1  0.05856  0  0.09963  0.151766  0  0.993088  0
H  H27  1  0.60143903  0.56049592  0.22994930  1  0.06891  0  0.098969  0.150901  0  0.992113  0
H  H28  1  0.26234908  0.42021622  0.57874439  1  0.070587  0  0.101402  0.105344  0  1.024654  0
H  H29  1  0.26155695  0.07973712  0.92115867  1  0.038763  0  0.102092  0.107355  0  1.024607  0
H  H30  1  0.73764433  0.57978673  0.42125297  1  0.070542  0  0.101402  0.105357  0  1.024677  0
H  H31  1  0.73844619  0.92026022  0.07884209  1  0.038793  0  0.102056  0.107291  0  1.024667  0
H  H32  1  0.17395609  0.36037706  0.55290311  1  0.096128  0  0.110483  0.131427  0  1.012698  0
H  H33  1  0.08747397  0.13961572  0.94709190  1  0.097362  0  0.111141  0.132834  0  1.010526  0
H  H34  1  0.82604069  0.63962188  0.44709616  1  0.096222  0  0.110502  0.131439  0  1.012679  0
H  H35  1  0.91252948  0.86038082  0.05290973  1  0.097282  0  0.111146  0.132817  0  1.010548  0
H  H36  1  0.36567872  0.64482268  0.12743514  1  0.065817  0  0.097516  0.139157  0  1.024279  0
H  H37  1  0.13794385  0.85525008  0.37256261  1  0.061503  0  0.097986  0.139597  0  1.023604  0
H  H38  1  0.63431718  0.35517867  0.87256150  1  0.065863  0  0.097487  0.139111  0  1.024365  0
H  H39  1  0.86205255  0.14475286  0.62744177  1  0.061489  0  0.097973  0.13959  0  1.023579  0
H  H40  1  0.34738483  0.52477807  0.13148161  1  0.039772  0  0.095139  0.141711  0  1.010946  0
H  H41  1  0.00372067  0.97532342  0.36835023  1  0.055883  0  0.094632  0.140963  0  1.011837  0
H  H42  1  0.65261072  0.47522168  0.86851835  1  0.039664  0  0.095156  0.141723  0  1.010923  0
H  H43  1  0.99627824  0.02468033  0.63164729  1  0.05591  0  0.094629  0.140969  0  1.011839  0
H  H44  1  0.49720900  0.52193095  0.14818914  1  0.027623  0  0.09287  0.134354  0  1.02212  0
H  H45  1  0.16738223  0.97816864  0.35173089  1  0.043789  0  0.093488  0.135403  0  1.02201  0
H  H46  1  0.50278757  0.47807119  0.85180766  1  0.027453  0  0.092886  0.134341  0  1.022235  0
H  H47  1  0.83261787  0.02183191  0.64827078  1  0.043792  0  0.093513  0.135435  0  1.021995  0
H  H48  1  0.81212443  0.71719244  0.64693891  1  0.068927  0  0.095201  0.143386  0  1.024383  0
H  H49  1  0.17590377  0.78296685  0.85306385  1  0.063191  0  0.095269  0.143327  0  1.024803  0
H  H50  1  0.18787426  0.28280650  0.35305919  1  0.069015  0  0.09519  0.143367  0  1.024392  0
H  H51  1  0.82409976  0.21703210  0.14693619  1  0.063185  0  0.095283  0.143367  0  1.024717  0
H  H52  1  0.67318123  0.83201705  0.62346747  1  0.064867  0  0.088271  0.123666  0  1.077703  0
H  H53  1  0.12843475  0.66809097  0.87660560  1  0.070346  0  0.088939  0.124429  0  1.078169  0
H  H54  1  0.32681558  0.16798189  0.37653376  1  0.064896  0  0.088268  0.123658  0  1.077737  0
H  H55  1  0.87156879  0.33190797  0.12339444  1  0.070311  0  0.088957  0.124442  0  1.078138  0
H  H56  1  0.82141998  0.84510601  0.62911166  1  0.036226  0  0.091254  0.132097  0  1.02473  0
H  H57  1  0.29542272  0.65511882  0.87074774  1  0.057955  0  0.092336  0.132949  0  1.024408  0
H  H58  1  0.17857778  0.15489294  0.37088865  1  0.036189  0  0.091229  0.132034  0  1.024778  0
H  H59  1  0.70458207  0.34487932  0.12925292  1  0.057996  0  0.092345  0.132949  0  1.024447  0
H  H60  1  0.92158009  0.97294728  0.19302387  1  0.083681  0  0.110771  0.132386  0  1.007206  0
H  H61  1  0.08748422  0.52701495  0.30693524  1  0.085785  0  0.111013  0.132741  0  1.006849  0
H  H62  1  0.07842084  0.02705087  0.80697589  1  0.083714  0  0.110781  0.132404  0  1.007174  0
H  H63  1  0.91250593  0.47299200  0.69306802  1  0.08568  0  0.111017  0.132745  0  1.006959  0
H  H64  1  0.81080836  0.90667199  0.20812658  1  0.06868  0  0.101262  0.105579  0  1.03549  0
H  H65  1  0.92550873  0.59331149  0.29186079  1  0.067955  0  0.101206  0.105868  0  1.035321  0
H  H66  1  0.18919174  0.09332856  0.79187509  1  0.068699  0  0.101234  0.105533  0  1.035505  0
H  H67  1  0.07448371  0.40669146  0.70813618  1  0.068017  0  0.101219  0.105842  0  1.035301  0
H  H68  1  0.40952535  0.33893558  0.13754546  1  0.081969  0  0.093179  0.129431  0  1.038985  0
H  H69  1  0.88600357  0.16088937  0.36259953  1  0.055543  0  0.093359  0.130535  0  1.038948  0
H  H70  1  0.59047323  0.66106097  0.86245229  1  0.081953  0  0.093192  0.12945  0  1.03903  0
H  H71  1  0.11399869  0.83911038  0.63739859  1  0.055518  0  0.093375  0.130565  0  1.03896  0
H  H72  1  0.45855113  0.25586336  0.06207441  1  0.044243  0  0.100022  0.1531  0  0.976316  0
H  H73  1  0.77657598  0.24400377  0.43805676  1  0.073238  0  0.100176  0.153173  0  0.977287  0
H  H74  1  0.54144806  0.74413158  0.93792704  1  0.044331  0  0.100044  0.153149  0  0.976347  0
H  H75  1  0.22342407  0.75599677  0.56194101  1  0.073214  0  0.100169  0.153173  0  0.977301  0
H  H76  1  0.55639330  0.33958665  0.03849403  1  0.057561  0  0.096384  0.146095  0  1.008454  0
H  H77  1  0.93461795  0.16036341  0.46149716  1  0.053679  0  0.096727  0.146853  0  1.008063  0
H  H78  1  0.44360395  0.66040830  0.96150600  1  0.057488  0  0.096382  0.146083  0  1.008464  0
H  H79  1  0.06538174  0.83963554  0.53850329  1  0.053685  0  0.096711  0.146843  0  1.008085  0
C  C80  1  0.55824293  0.03348988  0.69806676  1  -0.042403  0  -0.238991  -0.472242  0  3.936356  0
C  C81  1  0.29036866  0.46643066  0.80178695  1  -0.080261  0  -0.236857  -0.470685  0  3.933504  0
C  C82  1  0.44175879  0.96651147  0.30193351  1  -0.042367  0  -0.238974  -0.472214  0  3.936402  0
C  C83  1  0.70963393  0.53356829  0.19821466  1  -0.080431  0  -0.236831  -0.470741  0  3.933543  0
C  C84  1  0.49861821  0.12330485  0.61944404  1  1.000608  0  0.209718  0.379771  0  3.980291  0
C  C85  1  0.24186383  0.37663382  0.88042909  1  0.990309  0  0.209982  0.381755  0  3.978267  0
C  C86  1  0.50138255  0.87669650  0.38055649  1  1.000523  0  0.209703  0.379736  0  3.980329  0
C  C87  1  0.75813542  0.62336913  0.11957255  1  0.990202  0  0.21005  0.381891  0  3.978159  0
C  C88  1  0.37761837  0.27556405  0.54413428  1  0.988439  0  0.211034  0.351505  0  3.963178  0
C  C89  1  0.19766825  0.22441899  0.95574548  1  1.008046  0  0.211676  0.352585  0  3.964581  0
C  C90  1  0.62238074  0.72443649  0.45586571  1  0.988353  0  0.211066  0.351535  0  3.963175  0
C  C91  1  0.80233123  0.77557515  0.04425620  1  1.008144  0  0.211766  0.352719  0  3.964629  0
C  C92  1  0.27017132  0.37899197  0.52888234  1  0.008652  0  -0.143864  -0.325002  0  3.979431  0
C  C93  1  0.17834833  0.12097127  0.97102910  1  0.040461  0  -0.144632  -0.328324  0  3.979865  0
C  C94  1  0.72982518  0.62100777  0.47111671  1  0.008706  0  -0.143924  -0.325064  0  3.979548  0
C  C95  1  0.82165772  0.87902607  0.02897282  1  0.040474  0  -0.144634  -0.328276  0  3.979581  0
C  C96  1  0.28152923  0.45716243  0.42756307  1  1.001149  0  0.201663  0.337228  0  3.980831  0
C  C97  1  0.16653421  0.04281540  0.07236025  1  0.989638  0  0.201626  0.338659  0  3.978261  0
C  C98  1  0.71846878  0.54283572  0.57243488  1  1.001121  0  0.201719  0.337231  0  3.980687  0
C  C99  1  0.83347212  0.95718114  0.92764125  1  0.989635  0  0.201565  0.3387  0  3.978197  0
C  C100  1  0.32858029  0.53675184  0.27133444  1  0.953928  0  0.196763  0.361327  0  4.002474  0
C  C101  1  0.13693067  0.96322348  0.22861015  1  0.954145  0  0.196765  0.360278  0  4.003077  0
C  C102  1  0.67141909  0.46324790  0.72866383  1  0.953976  0  0.1968  0.361382  0  4.002494  0
C  C103  1  0.86307441  0.03677387  0.77139139  1  0.954109  0  0.196722  0.36034  0  4.002911  0
C  C104  1  0.38835668  0.55814042  0.16368507  1  -0.013039  0  -0.238776  -0.467653  0  3.966377  0
C  C105  1  0.11031372  0.94190430  0.33624408  1  -0.045486  0  -0.239276  -0.467784  0  3.967357  0
C  C106  1  0.61163895  0.44186173  0.83631329  1  -0.012836  0  -0.238768  -0.467604  0  3.966504  0
C  C107  1  0.88968640  0.05809624  0.66375890  1  -0.045428  0  -0.239306  -0.467902  0  3.96736  0
C  C108  1  0.78282586  0.80213277  0.60497551  1  -0.04605  0  -0.244654  -0.474609  0  3.966655  0
C  C109  1  0.18972021  0.69801745  0.89503166  1  -0.093527  0  -0.246578  -0.476423  0  3.968845  0
C  C110  1  0.21717351  0.19786697  0.39502275  1  -0.046158  0  -0.244643  -0.474509  0  3.966659  0
C  C111  1  0.81028113  0.30198230  0.10496998  1  -0.093533  0  -0.246625  -0.476461  0  3.968794  0
C  C112  1  0.83268220  0.81853227  0.49740218  1  0.944836  0  0.200896  0.369379  0  4.003618  0
C  C113  1  0.14848298  0.68154708  0.00259411  1  0.984222  0  0.20068  0.369866  0  4.003662  0
C  C114  1  0.16731652  0.18146667  0.50259788  1  0.944879  0  0.200866  0.369266  0  4.003546  0
C  C115  1  0.85151970  0.31845427  0.99740590  1  0.984168  0  0.20063  0.369764  0  4.003735  0
C  C116  1  0.84746753  0.88688698  0.34123361  1  0.979721  0  0.202919  0.329797  0  3.950629  0
C  C117  1  0.07553039  0.61310175  0.15875350  1  0.967458  0  0.202921  0.331945  0  3.948978  0
C  C118  1  0.15253475  0.11311277  0.65876581  1  0.979708  0  0.202932  0.329898  0  3.950336  0
C  C119  1  0.92446730  0.38690279  0.84124600  1  0.967394  0  0.202998  0.332028  0  3.948995  0
C  C120  1  0.82663680  0.95574529  0.24060142  1  -0.006789  0  -0.141427  -0.314633  0  3.951138  0
C  C121  1  0.02288950  0.54422619  0.25937852  1  -0.004254  0  -0.141317  -0.314878  0  3.952379  0
C  C122  1  0.17336642  0.04425446  0.75939644  1  -0.006783  0  -0.141417  -0.31464  0  3.951116  0
C  C123  1  0.97710214  0.45577916  0.74062167  1  -0.004377  0  -0.14133  -0.314835  0  3.952352  0
C  C124  1  0.71637400  0.05832343  0.23092482  1  0.96129  0  0.201891  0.328519  0  3.989422  0
C  C125  1  0.00553120  0.44165747  0.26903984  1  0.975912  0  0.20305  0.327641  0  3.989024  0
C  C126  1  0.28362953  0.94167552  0.76907522  1  0.960995  0  0.201866  0.32846  0  3.989593  0
C  C127  1  0.99446869  0.55834628  0.73095872  1  0.976215  0  0.203077  0.327706  0  3.988867  0
C  C128  1  0.57462430  0.20197497  0.16670966  1  0.971975  0  0.203374  0.370615  0  4.00486  0
C  C129  1  0.94331614  0.29793796  0.33324584  1  0.995231  0  0.201619  0.366458  0  4.009812  0
C  C130  1  0.42537404  0.79802237  0.83329176  1  0.971791  0  0.203406  0.370664  0  4.004778  0
C  C131  1  0.05668640  0.70206099  0.66675252  1  0.995107  0  0.201621  0.366485  0  4.009718  0
C  C132  1  0.49549691  0.28879355  0.09736730  1  -0.05731  0  -0.234364  -0.464722  0  3.951383  0
C  C133  1  0.88172756  0.21108329  0.40267867  1  -0.071676  0  -0.234381  -0.465359  0  3.954045  0
C  C134  1  0.50450168  0.71120300  0.90263175  1  -0.057341  0  -0.234387  -0.4648  0  3.951499  0
C  C135  1  0.11827472  0.78891645  0.59732076  1  -0.071445  0  -0.234372  -0.465381  0  3.954082  0
N  N136  1  0.40279295  0.21425531  0.63453520  1  -1.233174  0  -0.425463  -0.414984  0  3.675102  0
N  N137  1  0.25197710  0.28571390  0.86533412  1  -1.245463  0  -0.426107  -0.415696  0  3.674979  0
N  N138  1  0.59720589  0.78574603  0.36546521  1  -1.233102  0  -0.425432  -0.414937  0  3.675175  0
N  N139  1  0.74802463  0.71428744  0.13466680  1  -1.245425  0  -0.426186  -0.415878  0  3.675152  0
N  N140  1  0.53061391  0.12880996  0.52458265  1  -0.775133  0  -0.307362  -0.231708  0  3.671434  0
N  N141  1  0.18437758  0.37117951  0.97527305  1  -0.769553  0  -0.308443  -0.233081  0  3.671408  0
N  N142  1  0.46938533  0.87119299  0.47541834  1  -0.774797  0  -0.307368  -0.231725  0  3.671576  0
N  N143  1  0.81562214  0.62881944  0.02473000  1  -0.769542  0  -0.308443  -0.233073  0  3.671244  0
N  N144  1  0.45340104  0.22678228  0.47670428  1  -0.764171  0  -0.281755  -0.223471  0  3.470994  0
N  N145  1  0.15719390  0.27318478  0.02317242  1  -0.772346  0  -0.281249  -0.224679  0  3.471872  0
N  N146  1  0.54659558  0.77321987  0.52329578  1  -0.76442  0  -0.281804  -0.223507  0  3.471092  0
N  N147  1  0.84280460  0.72681497  0.97683261  1  -0.772413  0  -0.281268  -0.224683  0  3.472069  0
N  N148  1  0.35638640  0.43851832  0.34055222  1  -1.241255  0  -0.409541  -0.40957  0  3.630534  0
N  N149  1  0.13579095  0.06145308  0.15935808  1  -1.229601  0  -0.408985  -0.407902  0  3.628738  0
N  N150  1  0.64361105  0.56148143  0.65944657  1  -1.241259  0  -0.409596  -0.409672  0  3.630485  0
N  N151  1  0.86421478  0.93854506  0.84064167  1  -1.229657  0  -0.408952  -0.407888  0  3.6287  0
N  N152  1  0.21013347  0.56004512  0.41345628  1  -0.797454  0  -0.320011  -0.25616  0  3.684038  0
N  N153  1  0.18375745  0.93994096  0.08651596  1  -0.793129  0  -0.320238  -0.257059  0  3.684162  0
N  N154  1  0.78986552  0.43995303  0.58654271  1  -0.797613  0  -0.320001  -0.256156  0  3.683992  0
N  N155  1  0.81624610  0.06005799  0.91348538  1  -0.793271  0  -0.320242  -0.25719  0  3.684206  0
N  N156  1  0.23935449  0.61139204  0.31291336  1  -0.755325  0  -0.290862  -0.244075  0  3.5274  0
N  N157  1  0.16376594  0.88860380  0.18705029  1  -0.757578  0  -0.291284  -0.244645  0  3.527692  0
N  N158  1  0.76064327  0.38860691  0.68708695  1  -0.755334  0  -0.290893  -0.244052  0  3.527307  0
N  N159  1  0.83623790  0.11139434  0.81295194  1  -0.757343  0  -0.291221  -0.244593  0  3.527572  0
N  N160  1  0.94543704  0.79445982  0.35373472  1  -0.765381  0  -0.294312  -0.250631  0  3.546432  0
N  N161  1  0.09357458  0.70552608  0.14627469  1  -0.762976  0  -0.294134  -0.25239  0  3.546617  0
N  N162  1  0.05456181  0.20554152  0.64626634  1  -0.765478  0  -0.294347  -0.250703  0  3.546311  0
N  N163  1  0.90642491  0.29447607  0.85372393  1  -0.762958  0  -0.294144  -0.252432  0  3.546696  0
N  N164  1  0.93596162  0.75066767  0.45437094  1  -0.782057  0  -0.300145  -0.25835  0  3.556862  0
N  N165  1  0.14089142  0.74936690  0.04564770  1  -0.794495  0  -0.3005  -0.257567  0  3.557257  0
N  N166  1  0.06403588  0.24933208  0.54563110  1  -0.781973  0  -0.300112  -0.25831  0  3.556833  0
N  N167  1  0.85911124  0.25063445  0.95435036  1  -0.79439  0  -0.300479  -0.257482  0  3.557236  0
N  N168  1  0.77510544  0.90532234  0.42919718  1  -1.225698  0  -0.405296  -0.394208  0  3.603611  0
N  N169  1  0.10953436  0.59471215  0.07078533  1  -1.210658  0  -0.404207  -0.394509  0  3.602638  0
N  N170  1  0.22489712  0.09467660  0.57080182  1  -1.225738  0  -0.405257  -0.394134  0  3.603505  0
N  N171  1  0.89046487  0.40529079  0.92921502  1  -1.210719  0  -0.40421  -0.3945  0  3.602729  0
N  N172  1  0.67757340  0.11755782  0.14449632  1  -1.229226  0  -0.410277  -0.441058  0  3.609949  0
N  N173  1  0.93960164  0.38235439  0.35548557  1  -1.241484  0  -0.410309  -0.439682  0  3.609273  0
N  N174  1  0.32242754  0.88244033  0.85550474  1  -1.228932  0  -0.410278  -0.440985  0  3.610015  0
N  N175  1  0.06040073  0.61764775  0.64451226  1  -1.241675  0  -0.410346  -0.43977  0  3.60928  0
N  N176  1  0.55408297  0.19684643  0.26020060  1  -0.77185  0  -0.318415  -0.239836  0  3.678128  0
N  N177  1  0.01112839  0.30310939  0.23974522  1  -0.781455  0  -0.318019  -0.238274  0  3.677951  0
N  N178  1  0.44591508  0.80315171  0.73979994  1  -0.771659  0  -0.318442  -0.239901  0  3.677984  0
N  N179  1  0.98887705  0.69688956  0.76025299  1  -0.781434  0  -0.318031  -0.238288  0  3.677809  0
N  N180  1  0.64410603  0.10414657  0.30165397  1  -0.765697  0  -0.287526  -0.232225  0  3.486018  0
N  N181  1  0.04985568  0.39588910  0.19827153  1  -0.771304  0  -0.288008  -0.231672  0  3.482285  0
N  N182  1  0.35589404  0.89585398  0.69834575  1  -0.765702  0  -0.28748  -0.232151  0  3.486012  0
N  N183  1  0.95014535  0.60411145  0.80172793  1  -0.771291  0  -0.287985  -0.231664  0  3.482266  0
