# generated using pymatgen
data_Cu2H7(C5N)4
_symmetry_space_group_name_H-M   'P 1'
_cell_length_a   33.80482491
_cell_length_b   33.96214465
_cell_length_c   34.92276111
_cell_angle_alpha   89.99585154
_cell_angle_beta   89.87937312
_cell_angle_gamma   89.92141274
_symmetry_Int_Tables_number   1
_chemical_formula_structural   Cu2H7(C5N)4
_chemical_formula_sum   'Cu12 H42 C120 N24'
_cell_volume   40094.14894438
_cell_formula_units_Z   6
loop_
 _symmetry_equiv_pos_site_id
 _symmetry_equiv_pos_as_xyz
  1  'x, y, z'
loop_
 _atom_site_type_symbol
 _atom_site_label
 _atom_site_symmetry_multiplicity
 _atom_site_fract_x
 _atom_site_fract_y
 _atom_site_fract_z
 _atom_site_occupancy
 _atom_site_pbe_bader_charge
 _atom_site_pbe_bader_spin_density
 _atom_site_pbe_cm5_charge
 _atom_site_pbe_ddec_charge
 _atom_site_pbe_ddec_spin_density
 _atom_site_pbe_ddec_sum_bond_order
 _atom_site_pbe_magmom
Cu  Cu0  1  0.21733833  0.21792310  0.15534914  1  0.531877  0  0.495094  0.215419  0  2.09868  0
Cu  Cu1  1  0.21740603  0.15146979  0.21932833  1  0.54093  0  0.49489  0.215117  0  2.094751  0
Cu  Cu2  1  0.15018535  0.21755052  0.21897258  1  0.544041  0  0.494495  0.215354  0  2.093569  0
Cu  Cu3  1  0.78287798  0.21788569  0.84516983  1  0.532566  0  0.4952  0.215569  0  2.098692  0
Cu  Cu4  1  0.78289320  0.15130958  0.78120721  1  0.545345  0  0.494425  0.215506  0  2.091694  0
Cu  Cu5  1  0.84962542  0.21765765  0.78125936  1  0.545903  0  0.494896  0.215605  0  2.095969  0
Cu  Cu6  1  0.21693318  0.78258676  0.84510536  1  0.530527  0  0.494518  0.215109  0  2.095683  0
Cu  Cu7  1  0.21730719  0.84896503  0.78083812  1  0.538272  0  0.494665  0.215844  0  2.091896  0
Cu  Cu8  1  0.15034347  0.78280293  0.78139619  1  0.543986  0  0.494561  0.215915  0  2.094697  0
Cu  Cu9  1  0.78288649  0.78249824  0.15510009  1  0.532192  0  0.494487  0.215057  0  2.096031  0
Cu  Cu10  1  0.78296513  0.84914018  0.21902723  1  0.538929  0  0.494456  0.215358  0  2.091378  0
Cu  Cu11  1  0.84950499  0.78239154  0.21890321  1  0.546255  0  0.494552  0.216108  0  2.093568  0
H  H12  1  0.28694620  0.18769859  0.10185311  1  0.103457  0  0.128964  0.122716  0  0.976706  0
H  H13  1  0.28694277  0.09646943  0.18872218  1  0.106301  0  0.128902  0.122658  0  0.976906  0
H  H14  1  0.09484823  0.28666765  0.18838417  1  0.110526  0  0.128913  0.122742  0  0.97585  0
H  H15  1  0.18751332  0.28775778  0.10235270  1  0.124053  0  0.129045  0.12268  0  0.976217  0
H  H16  1  0.18769886  0.09799778  0.28806981  1  0.109101  0  0.128941  0.122276  0  0.976545  0
H  H17  1  0.09598540  0.18739644  0.28716857  1  0.095153  0  0.129079  0.122657  0  0.977135  0
H  H18  1  0.71397404  0.18733995  0.89916349  1  0.1072  0  0.128701  0.122503  0  0.97622  0
H  H19  1  0.71368200  0.09626246  0.81213870  1  0.122954  0  0.128989  0.122529  0  0.976721  0
H  H20  1  0.90465667  0.28705647  0.81134303  1  0.111178  0  0.128836  0.122781  0  0.976283  0
H  H21  1  0.81242816  0.28805500  0.89782243  1  0.117316  0  0.128921  0.122219  0  0.97607  0
H  H22  1  0.81268998  0.09797054  0.71224582  1  0.116613  0  0.128636  0.122244  0  0.97617  0
H  H23  1  0.90398733  0.18752935  0.71318508  1  0.092031  0  0.129117  0.122653  0  0.977375  0
H  H24  1  0.28503781  0.81379582  0.89938612  1  0.138151  0  0.128914  0.122952  0  0.976816  0
H  H25  1  0.28617789  0.90428099  0.81178306  1  0.124493  0  0.129024  0.123221  0  0.976973  0
H  H26  1  0.09542077  0.71316778  0.81144820  1  0.113996  0  0.129054  0.1229  0  0.976583  0
H  H27  1  0.18785668  0.71166974  0.89733350  1  0.125273  0  0.128887  0.12255  0  0.976694  0
H  H28  1  0.18820589  0.90168085  0.71125508  1  0.105406  0  0.128957  0.122864  0  0.977499  0
H  H29  1  0.09581582  0.81326279  0.71379336  1  0.116511  0  0.128658  0.121863  0  0.976378  0
H  H30  1  0.71388997  0.81322805  0.10146070  1  0.128534  0  0.128743  0.122767  0  0.976545  0
H  H31  1  0.71371596  0.90436038  0.18842076  1  0.123851  0  0.128936  0.123098  0  0.976873  0
H  H32  1  0.90431902  0.71256980  0.18885695  1  0.11446  0  0.129081  0.123133  0  0.975966  0
H  H33  1  0.81252526  0.71224448  0.10231048  1  0.123286  0  0.128786  0.122659  0  0.976034  0
H  H34  1  0.81294410  0.90257715  0.28763374  1  0.144393  0  0.128925  0.122492  0  0.976748  0
H  H35  1  0.90391992  0.81242472  0.28673228  1  0.094713  0  0.129056  0.122845  0  0.976941  0
H  H36  1  0.95572491  0.95395171  0.47402821  1  0.059372  0  0.109261  0.118811  0  0.987124  0
H  H37  1  0.04427843  0.04517941  0.47418572  1  0.080257  0  0.109225  0.118788  0  0.987672  0
H  H38  1  0.04423820  0.95387716  0.52573451  1  0.057448  0  0.109155  0.118694  0  0.987733  0
H  H39  1  0.95575297  0.04540895  0.52569833  1  0.075524  0  0.109437  0.119337  0  0.98726  0
H  H40  1  0.00044253  0.99958503  0.36699560  1  0.051513  0  0.113414  0.123532  0  0.97903  0
H  H41  1  0.00021904  0.00012934  0.63283320  1  0.054605  0  0.113385  0.124487  0  0.978139  0
H  H42  1  0.47308489  0.95657998  0.95463875  1  0.082515  0  0.109412  0.118704  0  0.986944  0
H  H43  1  0.47339339  0.04292251  0.04509342  1  0.077894  0  0.109571  0.119038  0  0.986974  0
H  H44  1  0.52670067  0.04300617  0.95474892  1  0.088092  0  0.1095  0.118853  0  0.987469  0
H  H45  1  0.52650075  0.95652118  0.04507157  1  0.085286  0  0.109594  0.119021  0  0.986959  0
H  H46  1  0.36255562  0.00021825  0.00017539  1  0.070439  0  0.113361  0.124026  0  0.97965  0
H  H47  1  0.63728122  0.00046140  0.00069134  1  0.073944  0  0.113498  0.124376  0  0.978903  0
H  H48  1  0.95740561  0.47334638  0.95396287  1  0.109871  0  0.109608  0.119123  0  0.986681  0
H  H49  1  0.04261523  0.47320953  0.04559779  1  0.088694  0  0.109379  0.118538  0  0.987545  0
H  H50  1  0.95748947  0.52646412  0.04580255  1  0.077881  0  0.109574  0.118886  0  0.986596  0
H  H51  1  0.04261997  0.52635733  0.95377777  1  0.106591  0  0.109513  0.118829  0  0.987407  0
H  H52  1  0.99998401  0.36310688  0.99976325  1  0.087583  0  0.113185  0.123252  0  0.979439  0
H  H53  1  0.00022419  0.63658123  0.99992595  1  0.100273  0  0.113363  0.123769  0  0.979646  0
C  C54  1  0.28194072  0.16909573  0.12663142  1  0.47162  0  0.020606  -0.040191  0  3.917521  0
C  C55  1  0.29998233  0.13294350  0.13620131  1  0.167852  0  -0.02623  0.037502  0  4.20552  0
C  C56  1  0.28192208  0.12232462  0.17115058  1  0.372614  0  0.02057  -0.040851  0  3.917477  0
C  C57  1  0.12104980  0.28191837  0.17100236  1  0.427201  0  0.020762  -0.040308  0  3.915425  0
C  C58  1  0.13209404  0.30027587  0.13636161  1  0.13074  0  -0.026064  0.036983  0  4.205325  0
C  C59  1  0.16855306  0.28247664  0.12690614  1  0.419183  0  0.020529  -0.03988  0  3.91665  0
C  C60  1  0.16889518  0.12333735  0.28289838  1  0.47128  0  0.021434  -0.038967  0  3.915096  0
C  C61  1  0.13288864  0.13377478  0.30070081  1  0.087292  0  -0.02728  0.036443  0  4.20628  0
C  C62  1  0.12188491  0.16915028  0.28240094  1  0.448996  0  0.020859  -0.039748  0  3.917951  0
C  C63  1  0.71886393  0.16876099  0.87433892  1  0.43984  0  0.02069  -0.040021  0  3.917155  0
C  C64  1  0.70081165  0.13265426  0.86479138  1  0.139775  0  -0.026443  0.037129  0  4.205467  0
C  C65  1  0.71872412  0.12207830  0.82974036  1  0.417756  0  0.02109  -0.039202  0  3.914928  0
C  C66  1  0.87856425  0.28229350  0.82885499  1  0.430127  0  0.021466  -0.039238  0  3.915108  0
C  C67  1  0.86759569  0.30066914  0.86351787  1  0.1231  0  -0.02632  0.037709  0  4.204253  0
C  C68  1  0.83129065  0.28278513  0.87318219  1  0.433054  0  0.021142  -0.039016  0  3.916552  0
C  C69  1  0.83137486  0.12333876  0.71743798  1  0.46263  0  0.021304  -0.039385  0  3.916404  0
C  C70  1  0.86733597  0.13383353  0.69962013  1  0.090446  0  -0.026475  0.03775  0  4.205095  0
C  C71  1  0.87818960  0.16921084  0.71794235  1  0.447311  0  0.02061  -0.040361  0  3.91706  0
C  C72  1  0.28035985  0.83221527  0.87442727  1  0.377527  0  0.020369  -0.041083  0  3.91807  0
C  C73  1  0.29853382  0.86824009  0.86472226  1  0.168464  0  -0.025922  0.038145  0  4.205799  0
C  C74  1  0.28096270  0.87858140  0.82951862  1  0.428618  0  0.02066  -0.041237  0  3.917212  0
C  C75  1  0.12153751  0.71786191  0.82883847  1  0.42989  0  0.021029  -0.03976  0  3.917322  0
C  C76  1  0.13262159  0.69922090  0.86329510  1  0.104321  0  -0.026322  0.037554  0  4.204255  0
C  C77  1  0.16892570  0.71709009  0.87285124  1  0.454761  0  0.021073  -0.039815  0  3.917892  0
C  C78  1  0.16921425  0.87661658  0.71686796  1  0.47336  0  0.020923  -0.040629  0  3.917548  0
C  C79  1  0.13306424  0.86635997  0.69943655  1  0.107882  0  -0.026503  0.037779  0  4.204538  0
C  C80  1  0.12188021  0.83128155  0.71817195  1  0.425721  0  0.021148  -0.038894  0  3.915536  0
C  C81  1  0.71881119  0.83180537  0.12625075  1  0.427164  0  0.020905  -0.040413  0  3.916154  0
C  C82  1  0.70077523  0.86797106  0.13587068  1  0.09914  0  -0.026591  0.037694  0  4.204678  0
C  C83  1  0.71873988  0.87852400  0.17080692  1  0.415369  0  0.020453  -0.042164  0  3.917864  0
C  C84  1  0.87833484  0.71751595  0.17132797  1  0.43025  0  0.020824  -0.040459  0  3.915578  0
C  C85  1  0.86748142  0.69924502  0.13663184  1  0.125178  0  -0.026057  0.039175  0  4.202937  0
C  C86  1  0.83127751  0.71735990  0.12697230  1  0.427149  0  0.020623  -0.04109  0  3.917045  0
C  C87  1  0.83155624  0.87708114  0.28246744  1  0.418192  0  0.020995  -0.039522  0  3.916438  0
C  C88  1  0.86746797  0.86642030  0.30019403  1  0.095994  0  -0.026481  0.036103  0  4.206578  0
C  C89  1  0.87819032  0.83088738  0.28198493  1  0.448086  0  0.020924  -0.039693  0  3.917187  0
C  C90  1  0.97520345  0.97391681  0.45848456  1  -0.030868  0  -0.077443  -0.171658  0  3.888562  0
C  C91  1  0.00001512  0.99953062  0.47856491  1  0.025291  0  -0.004454  0.077286  0  4.040325  0
C  C92  1  0.02493500  0.02520248  0.45857255  1  -0.088145  0  -0.077632  -0.172341  0  3.888726  0
C  C93  1  0.02536990  0.02542634  0.41815417  1  0.176746  0  0.000169  0.139307  0  4.152948  0
C  C94  1  0.00032157  0.99957445  0.39818106  1  0.004081  0  -0.068788  -0.157303  0  3.842875  0
C  C95  1  0.97507956  0.97374042  0.41805893  1  0.170652  0  0.000462  0.139821  0  4.153314  0
C  C96  1  0.99995614  0.99958898  0.52125937  1  -0.143486  0  -0.004178  0.077044  0  4.040533  0
C  C97  1  0.02485971  0.97396562  0.54130802  1  0.165576  0  -0.076702  -0.17115  0  3.889434  0
C  C98  1  0.02523770  0.97394910  0.58172961  1  0.015457  0  0.000145  0.1403  0  4.153069  0
C  C99  1  0.00015471  0.99997428  0.60164575  1  0.011093  0  -0.069043  -0.159511  0  3.842405  0
C  C100  1  0.97496733  0.02579806  0.58170732  1  0.020666  0  0.000107  0.140813  0  4.151078  0
C  C101  1  0.97515877  0.02541570  0.54128397  1  0.055013  0  -0.077537  -0.172961  0  3.887998  0
C  C102  1  0.45709316  0.97561177  0.97447793  1  0.054742  0  -0.07702  -0.170468  0  3.885817  0
C  C103  1  0.47787611  0.99975389  0.99985399  1  0.034724  0  -0.004544  0.076759  0  4.042137  0
C  C104  1  0.45723861  0.02404840  0.02533626  1  0.061748  0  -0.076966  -0.171337  0  3.888715  0
C  C105  1  0.41547789  0.02450535  0.02564415  1  0.047935  0  0.000461  0.140093  0  4.154535  0
C  C106  1  0.39477490  0.00007226  0.00009251  1  0.018802  0  -0.069787  -0.160417  0  3.847703  0
C  C107  1  0.41531816  0.97548525  0.97441462  1  -0.011548  0  0.000345  0.139652  0  4.153259  0
C  C108  1  0.52196772  0.99974203  0.99988330  1  -0.092147  0  -0.005107  0.076077  0  4.043642  0
C  C109  1  0.54273417  0.02410867  0.97461433  1  0.050151  0  -0.076669  -0.17057  0  3.888426  0
C  C110  1  0.58449966  0.02465124  0.97470750  1  0.062044  0  -0.000139  0.13917  0  4.155834  0
C  C111  1  0.60506442  0.00025384  0.00044916  1  -0.040855  0  -0.069517  -0.160455  0  3.846424  0
C  C112  1  0.58438285  0.97554284  0.02585666  1  0.057494  0  0.000594  0.140342  0  4.153652  0
C  C113  1  0.54261969  0.97557600  0.02538677  1  0.033678  0  -0.07729  -0.171181  0  3.889501  0
C  C114  1  0.97614584  0.45733798  0.97399839  1  -0.044178  0  -0.077249  -0.171392  0  3.888272  0
C  C115  1  0.00002889  0.47791429  0.99976586  1  0.025933  0  -0.004289  0.076936  0  4.04389  0
C  C116  1  0.02388937  0.45725379  0.02554693  1  -0.071955  0  -0.076636  -0.170122  0  3.888885  0
C  C117  1  0.02423860  0.41568111  0.02566317  1  0.090978  0  -0.000138  0.138649  0  4.153745  0
C  C118  1  0.99999541  0.39518140  0.99976084  1  0.024902  0  -0.069379  -0.158782  0  3.8441  0
C  C119  1  0.97576290  0.41577256  0.97386347  1  0.105939  0  -0.000137  0.139507  0  4.152699  0
C  C120  1  0.00004240  0.52178105  0.99978345  1  -0.131687  0  -0.004321  0.076544  0  4.043116  0
C  C121  1  0.97620979  0.54244021  0.02568381  1  -0.011182  0  -0.077168  -0.170643  0  3.887242  0
C  C122  1  0.97590515  0.58401247  0.02586939  1  0.155662  0  -0.000231  0.138962  0  4.153022  0
C  C123  1  0.00017651  0.60450971  0.99988082  1  0.025105  0  -0.069603  -0.159951  0  3.844028  0
C  C124  1  0.02437813  0.58394042  0.97383802  1  0.16684  0  -0.000149  0.139426  0  4.150998  0
C  C125  1  0.02392813  0.54236974  0.97392559  1  -0.093721  0  -0.07692  -0.170619  0  3.887891  0
C  C126  1  0.32763334  0.11146930  0.11473404  1  -0.061531  0  -0.030504  -0.069228  0  4.094246  0
C  C127  1  0.35032711  0.09191081  0.09487186  1  -0.118545  0  -0.05025  -0.055303  0  4.329324  0
C  C128  1  0.37371748  0.06965993  0.07219246  1  -0.046925  0  -0.043166  -0.033849  0  4.315923  0
C  C129  1  0.39411203  0.04906853  0.05104603  1  -0.187063  0  -0.028569  -0.089169  0  4.037302  0
C  C130  1  0.67313619  0.11126813  0.88625182  1  -0.012615  0  -0.030688  -0.070527  0  4.093639  0
C  C131  1  0.65022850  0.09186063  0.90596635  1  -0.210613  0  -0.050016  -0.053823  0  4.327711  0
C  C132  1  0.62664794  0.06972443  0.92851752  1  -0.100707  0  -0.043647  -0.034767  0  4.316154  0
C  C133  1  0.60603261  0.04923544  0.94951137  1  -0.081325  0  -0.028139  -0.08861  0  4.038491  0
C  C134  1  0.32620562  0.88957723  0.88610733  1  -0.042098  0  -0.030694  -0.070449  0  4.095188  0
C  C135  1  0.34914510  0.90886853  0.90579582  1  -0.216665  0  -0.049935  -0.053863  0  4.329442  0
C  C136  1  0.37291921  0.93078561  0.92826293  1  -0.219048  0  -0.043475  -0.034267  0  4.317509  0
C  C137  1  0.39369599  0.95111843  0.94916476  1  0.053755  0  -0.028549  -0.089643  0  4.038364  0
C  C138  1  0.67303610  0.88934803  0.11452535  1  -0.144637  0  -0.030339  -0.068276  0  4.095054  0
C  C139  1  0.65011512  0.90868737  0.09479545  1  0.000164  0  -0.050215  -0.056783  0  4.330873  0
C  C140  1  0.62647807  0.93073642  0.07226206  1  -0.03685  0  -0.043287  -0.032063  0  4.316397  0
C  C141  1  0.60585319  0.95112906  0.05122641  1  -0.216246  0  -0.029062  -0.091206  0  4.038759  0
C  C142  1  0.11071811  0.32798130  0.11501703  1  -0.269581  0  -0.030406  -0.068538  0  4.094029  0
C  C143  1  0.09120437  0.35064108  0.09519046  1  0.10059  0  -0.050216  -0.055933  0  4.329263  0
C  C144  1  0.06907560  0.37399130  0.07244431  1  -0.043004  0  -0.043327  -0.033512  0  4.31552  0
C  C145  1  0.04856950  0.39429077  0.05120477  1  -0.17213  0  -0.028602  -0.089416  0  4.037221  0
C  C146  1  0.88892003  0.67148157  0.11532334  1  0.06221  0  -0.030866  -0.070714  0  4.095469  0
C  C147  1  0.90859448  0.64886770  0.09551951  1  -0.239291  0  -0.049917  -0.054734  0  4.330317  0
C  C148  1  0.93091142  0.62558984  0.07278750  1  -0.056784  0  -0.04288  -0.033111  0  4.314941  0
C  C149  1  0.95153880  0.60536856  0.05150484  1  -0.196118  0  -0.028835  -0.089805  0  4.037308  0
C  C150  1  0.88898275  0.32835892  0.88478748  1  0.059744  0  -0.030659  -0.069935  0  4.095628  0
C  C151  1  0.90855935  0.35096329  0.90454654  1  -0.251225  0  -0.050096  -0.055241  0  4.331821  0
C  C152  1  0.93077616  0.37422075  0.92722312  1  -0.071232  0  -0.043469  -0.033403  0  4.316338  0
C  C153  1  0.95136100  0.39448253  0.94836833  1  -0.141599  0  -0.028062  -0.089637  0  4.037205  0
C  C154  1  0.11127961  0.67136320  0.88450274  1  -0.347201  0  -0.030541  -0.0697  0  4.095135  0
C  C155  1  0.09169228  0.64867387  0.90424607  1  0.147846  0  -0.050191  -0.055146  0  4.330985  0
C  C156  1  0.06941204  0.62539838  0.92695374  1  -0.174615  0  -0.042957  -0.033078  0  4.314629  0
C  C157  1  0.04882091  0.60520284  0.94824143  1  -0.078609  0  -0.028878  -0.090218  0  4.035703  0
C  C158  1  0.11194422  0.11280662  0.32868114  1  -0.175029  0  -0.030408  -0.068904  0  4.095304  0
C  C159  1  0.09278596  0.09361381  0.35201357  1  0.010846  0  -0.050131  -0.055847  0  4.329662  0
C  C160  1  0.07075565  0.07159432  0.37608734  1  -0.024574  0  -0.043301  -0.033013  0  4.316431  0
C  C161  1  0.05030868  0.05090635  0.39705768  1  -0.233139  0  -0.028572  -0.089977  0  4.035657  0
C  C162  1  0.11211739  0.88720295  0.67139491  1  -0.212274  0  -0.030525  -0.070268  0  4.0942  0
C  C163  1  0.09285185  0.90621450  0.64803881  1  0.024914  0  -0.050465  -0.054715  0  4.327871  0
C  C164  1  0.07074587  0.92808367  0.62393398  1  -0.068292  0  -0.042864  -0.033016  0  4.314803  0
C  C165  1  0.05021629  0.94857658  0.60288002  1  -0.149244  0  -0.029076  -0.091006  0  4.036452  0
C  C166  1  0.88851577  0.88722798  0.32814467  1  -0.152321  0  -0.030423  -0.068469  0  4.09521  0
C  C167  1  0.90775471  0.90618934  0.35150736  1  -0.070744  0  -0.050417  -0.055884  0  4.329866  0
C  C168  1  0.92977374  0.92797181  0.37570791  1  -0.001652  0  -0.042793  -0.03192  0  4.315463  0
C  C169  1  0.95018493  0.94841109  0.39685830  1  -0.172811  0  -0.029271  -0.091892  0  4.037818  0
C  C170  1  0.88835287  0.11296944  0.67155869  1  -0.060449  0  -0.030961  -0.070887  0  4.094849  0
C  C171  1  0.90757605  0.09390871  0.64813916  1  -0.110088  0  -0.049953  -0.054187  0  4.32755  0
C  C172  1  0.92963534  0.07196159  0.62396073  1  -0.021907  0  -0.042534  -0.03227  0  4.314571  0
C  C173  1  0.95006883  0.05133832  0.60286069  1  -0.221478  0  -0.029693  -0.092313  0  4.03611  0
N  N174  1  0.25522252  0.14985680  0.18118994  1  -0.745946  0  -0.333517  -0.13792  0  3.766766  0
N  N175  1  0.25523732  0.17881974  0.15361325  1  -0.78227  0  -0.334172  -0.139611  0  3.769909  0
N  N176  1  0.17805479  0.25563387  0.15366033  1  -0.785971  0  -0.334001  -0.138966  0  3.769594  0
N  N177  1  0.14863739  0.25528183  0.18097368  1  -0.757965  0  -0.333664  -0.138688  0  3.766921  0
N  N178  1  0.14911069  0.17865449  0.25585156  1  -0.786104  0  -0.333695  -0.139195  0  3.769318  0
N  N179  1  0.17821888  0.15027336  0.25615243  1  -0.746382  0  -0.333412  -0.138485  0  3.767822  0
N  N180  1  0.74531949  0.14960671  0.81960162  1  -0.806313  0  -0.333472  -0.139011  0  3.764714  0
N  N181  1  0.74539136  0.17851660  0.84722573  1  -0.751692  0  -0.334023  -0.139383  0  3.770665  0
N  N182  1  0.82178758  0.25588688  0.84651385  1  -0.748964  0  -0.33441  -0.139489  0  3.770775  0
N  N183  1  0.85106210  0.25557547  0.81905921  1  -0.796975  0  -0.334296  -0.140095  0  3.7686  0
N  N184  1  0.85093747  0.17865334  0.74450977  1  -0.785174  0  -0.333857  -0.138672  0  3.769883  0
N  N185  1  0.82194960  0.15023017  0.74421664  1  -0.734889  0  -0.333172  -0.138735  0  3.768514  0
N  N186  1  0.25447376  0.85097339  0.81942208  1  -0.757796  0  -0.333262  -0.138462  0  3.765039  0
N  N187  1  0.25412151  0.82225142  0.84723618  1  -0.790738  0  -0.33388  -0.138628  0  3.767819  0
N  N188  1  0.17829738  0.74425682  0.84634787  1  -0.752547  0  -0.3338  -0.138721  0  3.767748  0
N  N189  1  0.14894993  0.74473071  0.81908079  1  -0.793221  0  -0.334226  -0.140139  0  3.768971  0
N  N190  1  0.14914670  0.82176688  0.74459014  1  -0.763178  0  -0.333926  -0.139614  0  3.76925  0
N  N191  1  0.17846090  0.84985391  0.74379712  1  -0.769242  0  -0.333273  -0.138656  0  3.766018  0
N  N192  1  0.74536420  0.85093892  0.18081040  1  -0.753098  0  -0.332679  -0.136951  0  3.76287  0
N  N193  1  0.74540351  0.82200561  0.15320548  1  -0.770362  0  -0.333671  -0.139277  0  3.767381  0
N  N194  1  0.82173885  0.74429889  0.15366219  1  -0.749513  0  -0.333457  -0.137871  0  3.768091  0
N  N195  1  0.85087878  0.74439705  0.18113839  1  -0.801064  0  -0.334109  -0.140427  0  3.768811  0
N  N196  1  0.85090992  0.82150279  0.25555901  1  -0.776382  0  -0.33409  -0.139836  0  3.769039  0
N  N197  1  0.82203502  0.85012283  0.25584290  1  -0.750939  0  -0.333399  -0.138551  0  3.766282  0
