# generated using pymatgen
data_Zn3H11C20Br2(NO6)3
_symmetry_space_group_name_H-M   'P 1'
_cell_length_a   18.76090898
_cell_length_b   18.79939641
_cell_length_c   18.81648086
_cell_angle_alpha   109.60944352
_cell_angle_beta   109.15039105
_cell_angle_gamma   108.68097397
_symmetry_Int_Tables_number   1
_chemical_formula_structural   Zn3H11C20Br2(NO6)3
_chemical_formula_sum   'Zn6 H22 C40 Br4 N6 O36'
_cell_volume   5168.91754937
_cell_formula_units_Z   2
loop_
 _symmetry_equiv_pos_site_id
 _symmetry_equiv_pos_as_xyz
  1  'x, y, z'
loop_
 _atom_site_type_symbol
 _atom_site_label
 _atom_site_symmetry_multiplicity
 _atom_site_fract_x
 _atom_site_fract_y
 _atom_site_fract_z
 _atom_site_occupancy
 _atom_site_pbe_bader_charge
 _atom_site_pbe_bader_spin_density
 _atom_site_pbe_cm5_charge
 _atom_site_pbe_ddec_charge
 _atom_site_pbe_ddec_spin_density
 _atom_site_pbe_ddec_sum_bond_order
 _atom_site_pbe_magmom
Zn  Zn0  1  0.57982390  0.07833933  0.99881950  1  1.312689  0  0.728416  0.9644  0  2.128848  0
Zn  Zn1  1  0.45474946  0.95089890  0.99703505  1  1.317412  0  0.744359  0.986318  0  2.069339  0
Zn  Zn2  1  0.55571853  0.49256100  0.56283479  1  1.309305  0  0.731166  0.959692  0  2.1225  0
Zn  Zn3  1  0.43180145  0.47998215  0.42526436  1  1.309825  0  0.733175  0.969076  0  2.115823  0
Zn  Zn4  1  0.98995018  0.05939876  0.56510742  1  1.30513  0  0.720465  0.94635  0  2.16095  0
Zn  Zn5  1  0.98543601  0.93345651  0.43645325  1  1.309938  0  0.726443  0.954999  0  2.125958  0
H  H6  1  0.48007690  0.24962883  0.12343820  1  0.03525  0  0.099984  0.104119  0  0.968047  0
H  H7  1  0.58301541  0.26964574  0.19049732  1  0.092654  0  0.104172  0.119373  0  0.974989  0
H  H8  1  0.59236816  0.36829605  0.31524310  1  0.070835  0  0.102788  0.110922  0  0.957612  0
H  H9  1  0.50426005  0.36825018  0.24218755  1  0.039743  0  0.101086  0.1072  0  0.96894  0
H  H10  1  0.35274882  0.13378995  0.08785503  1  0.122327  0  0.132567  0.111516  0  0.947259  0
H  H11  1  0.35663059  0.25057088  0.18332443  1  0.124038  0  0.13734  0.121148  0  0.933394  0
H  H12  1  0.60078650  0.22261765  0.29197909  1  0.083148  0  0.119003  0.08884  0  0.978422  0
H  H13  1  0.56720543  0.28636713  0.39918391  1  0.084755  0  0.107428  0.131989  0  0.960932  0
H  H14  1  0.46464134  0.19561733  0.34686468  1  0.119288  0  0.110358  0.128099  0  1.005873  0
H  H15  1  0.88655504  0.16923284  0.39634822  1  0.108531  0  0.116147  0.128254  0  0.969109  0
H  H16  1  0.75372063  0.97509135  0.30132732  1  0.140473  0  0.122936  0.144173  0  0.975284  0
H  H17  1  0.47744018  0.62437635  0.72109611  1  0.117233  0  0.121141  0.136228  0  0.959711  0
H  H18  1  0.43393207  0.70816609  0.81694781  1  0.09725  0  0.118789  0.120266  0  0.95871  0
H  H19  1  0.51040151  0.84096817  0.76505979  1  0.098092  0  0.107256  0.132718  0  0.997657  0
H  H20  1  0.19671838  0.93862637  0.61992067  1  0.126171  0  0.11298  0.125628  0  0.978755  0
H  H21  1  0.20610507  0.07860560  0.77301738  1  0.098673  0  0.107003  0.130606  0  0.999712  0
H  H22  1  0.75471439  0.69318097  0.36084191  1  0.111601  0  0.117074  0.117484  0  0.966506  0
H  H23  1  0.80914345  0.81859254  0.54772849  1  0.096745  0  0.115377  0.134396  0  0.976665  0
H  H24  1  0.62417234  0.61273643  0.37284452  1  0.114448  0  0.11368  0.112317  0  0.971002  0
H  H25  1  0.76611623  0.68104140  0.55708107  1  0.106899  0  0.116072  0.13762  0  0.97723  0
H  H26  1  0.15821382  0.24666808  0.54001910  1  0.124639  0  0.124496  0.138372  0  0.960726  0
H  H27  1  0.20402710  0.12055748  0.43440533  1  0.144638  0  0.126717  0.150683  0  0.962742  0
C  C28  1  0.65706288  0.04200025  0.11514813  1  1.632219  0  0.223338  0.61261  0  4.169982  0
C  C29  1  0.48711351  0.10056198  0.11321528  1  1.597989  0  0.221094  0.585018  0  4.122989  0
C  C30  1  0.43320095  0.05277504  0.88971846  1  1.60307  0  0.204617  0.603937  0  4.194501  0
C  C31  1  0.48845445  0.87858064  0.87470032  1  1.511421  0  0.212885  0.642103  0  4.149313  0
C  C32  1  0.51957959  0.25551473  0.18521811  1  -0.039484  0  -0.156816  -0.182363  0  3.859772  0
C  C33  1  0.52569841  0.32663971  0.26170874  1  -0.058864  0  -0.15332  -0.181468  0  3.846868  0
C  C34  1  0.38359791  0.14323666  0.15315998  1  0.194623  0  0.01882  -0.05887  0  3.677901  0
C  C35  1  0.53302984  0.18633566  0.27469800  1  0.197267  0  0.010602  -0.010607  0  3.710253  0
C  C36  1  0.47930667  0.16687107  0.18088108  1  0.042586  0  -6.2e-05  -0.020838  0  3.718336  0
C  C37  1  0.46972708  0.28446564  0.29624060  1  0.047371  0  -0.012742  0.009309  0  3.814584  0
C  C38  1  0.38043191  0.21907596  0.21762190  1  0.185325  0  0.01839  -0.059387  0  3.688616  0
C  C39  1  0.50994189  0.23857651  0.33609204  1  -0.047796  0  -0.167934  -0.255121  0  3.896683  0
C  C40  1  0.82874499  0.10838093  0.34509455  1  -0.003154  0  -0.08183  -0.092515  0  4.006558  0
C  C41  1  0.81197831  0.03608865  0.35097798  1  -0.041749  0  -0.072178  -0.172377  0  3.831429  0
C  C42  1  0.77208279  0.10992667  0.27180622  1  0.084439  0  0.003847  0.095427  0  3.95149  0
C  C43  1  0.72647137  0.04727942  0.18854123  1  0.170684  0  0.070424  -0.104025  0  3.784545  0
C  C44  1  0.45830714  0.66989815  0.70820571  1  0.060718  0  -0.071131  -0.078619  0  3.94742  0
C  C45  1  0.44010441  0.66004061  0.62864951  1  -0.136829  0  -0.019284  -0.035631  0  3.860506  0
C  C46  1  0.45469823  0.73061571  0.77696693  1  -0.019104  0  -0.062992  -0.000622  0  3.960729  0
C  C47  1  0.48323859  0.81451747  0.79919011  1  0.016467  0  -0.090144  -0.229304  0  3.898237  0
C  C48  1  0.22365692  0.98569565  0.68754903  1  -0.053792  0  -0.075476  -0.056633  0  3.98441  0
C  C49  1  0.18495464  0.03281713  0.70695544  1  0.060535  0  -0.087359  -0.204857  0  3.869402  0
C  C50  1  0.29572077  0.98839172  0.75080338  1  -0.053009  0  -0.010734  0.083782  0  3.946376  0
C  C51  1  0.36619767  0.05728710  0.82392712  1  -0.025029  0  -0.027623  -0.082315  0  3.833918  0
C  C52  1  0.63159008  0.58997721  0.50704562  1  1.511239  0  0.213853  0.644786  0  4.15168  0
C  C53  1  0.46776346  0.35707799  0.36190374  1  1.571351  0  0.222328  0.593477  0  4.119706  0
C  C54  1  0.41028330  0.37688016  0.53131322  1  1.631347  0  0.222908  0.601261  0  4.189676  0
C  C55  1  0.45298565  0.59561701  0.56927984  1  1.579957  0  0.216036  0.605905  0  4.163578  0
C  C56  1  0.87663875  0.85937440  0.48277228  1  1.542222  0  0.215305  0.642534  0  4.151751  0
C  C57  1  0.87528474  0.03023100  0.41780846  1  1.564027  0  0.222103  0.652971  0  4.136489  0
C  C58  1  0.10174893  0.08058603  0.46916257  1  1.54756  0  0.218265  0.639106  0  4.142409  0
C  C59  1  0.11092579  0.02501465  0.63852616  1  1.539496  0  0.212691  0.643642  0  4.140156  0
C  C60  1  0.75490349  0.71326266  0.42264139  1  -0.037339  0  -0.063864  -0.027373  0  3.965855  0
C  C61  1  0.81231437  0.79429994  0.48806912  1  -0.030216  0  -0.081883  -0.213086  0  3.871792  0
C  C62  1  0.68868758  0.65400325  0.42940778  1  -0.053906  0  -0.061379  -0.010319  0  3.965041  0
C  C63  1  0.70195002  0.64686532  0.50109847  1  -0.046091  0  -0.089211  -0.237238  0  3.885332  0
C  C64  1  0.19613656  0.22869036  0.51130573  1  0.066861  0  -0.065742  -0.078079  0  3.97716  0
C  C65  1  0.17355568  0.14464457  0.46982023  1  -0.042496  0  -0.062213  -0.165968  0  3.799126  0
C  C66  1  0.26532627  0.29736885  0.51743612  1  0.208824  0  0.099812  0.070191  0  3.906402  0
C  C67  1  0.34543269  0.31009086  0.53590191  1  0.277207  0  0.090586  -0.095  0  3.795267  0
Br  Br68  1  0.76265114  0.21304801  0.30302732  1  -0.033211  0  0.048869  -0.031158  0  1.377001  0
Br  Br69  1  0.39394849  0.72063928  0.58305762  1  -0.010686  0  0.044161  -0.023808  0  1.405496  0
Br  Br70  1  0.28477550  0.87558777  0.71767437  1  -0.018891  0  0.04496  -0.025157  0  1.370358  0
Br  Br71  1  0.38945818  0.17251409  0.85323326  1  -0.009006  0  0.052576  -0.007201  0  1.381629  0
N  N72  1  0.32949251  0.05658084  0.14316397  1  0.456746  0  0.045258  0.514636  0  4.207216  0
N  N73  1  0.31076616  0.18653340  0.24182422  1  0.492099  0  0.05243  0.511596  0  4.178539  0
N  N74  1  0.73995256  0.97056619  0.16169857  1  0.42197  0  0.061598  0.534016  0  4.231054  0
N  N75  1  0.24215972  0.36291525  0.50406833  1  0.445877  0  0.065577  0.51784  0  4.211746  0
N  N76  1  0.37486134  0.25471567  0.56322496  1  0.440258  0  0.063812  0.53455  0  4.245438  0
N  N77  1  0.53459174  0.10978170  0.28677408  1  0.470592  0  0.048691  0.509121  0  4.168988  0
O  O78  1  0.68221106  0.09509399  0.08879716  1  -1.103112  0  -0.305914  -0.509283  0  2.246063  0
O  O79  1  0.58106828  0.98538377  0.08530037  1  -1.144071  0  -0.287184  -0.527774  0  2.317349  0
O  O80  1  0.54489236  0.12913220  0.09455460  1  -1.176356  0  -0.301592  -0.558923  0  2.364391  0
O  O81  1  0.43212545  0.02090877  0.07887401  1  -1.118211  0  -0.304324  -0.503814  0  2.326935  0
O  O82  1  0.51283250  0.10438785  0.91822263  1  -1.121677  0  -0.316673  -0.516024  0  2.247474  0
O  O83  1  0.40642095  0.00001193  0.91437689  1  -1.160952  0  -0.303685  -0.56164  0  2.350566  0
O  O84  1  0.54212387  0.95708384  0.90485802  1  -1.168925  0  -0.315679  -0.567544  0  2.284169  0
O  O85  1  0.43929498  0.85244479  0.90538225  1  -1.128477  0  -0.31672  -0.53177  0  2.231192  0
O  O86  1  0.65508611  0.57314120  0.56959746  1  -1.120105  0  -0.32115  -0.53068  0  2.213918  0
O  O87  1  0.55377610  0.56143855  0.45237029  1  -1.179085  0  -0.316757  -0.580147  0  2.299227  0
O  O88  1  0.52136972  0.39181820  0.44067903  1  -1.178935  0  -0.29957  -0.549142  0  2.327527  0
O  O89  1  0.41466297  0.38220667  0.33025136  1  -1.13231  0  -0.321887  -0.538676  0  2.271527  0
O  O90  1  0.48985831  0.40739765  0.58513797  1  -1.111626  0  -0.306647  -0.500255  0  2.214903  0
O  O91  1  0.38134117  0.39694954  0.47498476  1  -1.142222  0  -0.290731  -0.54076  0  2.322483  0
O  O92  1  0.50877659  0.57626070  0.60431324  1  -1.164329  0  -0.307661  -0.562277  0  2.310573  0
O  O93  1  0.40759477  0.56478557  0.48746270  1  -1.11462  0  -0.313226  -0.51544  0  2.292373  0
O  O94  1  0.90476990  0.93775039  0.53634774  1  -1.160311  0  -0.314525  -0.569794  0  2.276312  0
O  O95  1  0.89964726  0.83364010  0.42559162  1  -1.130482  0  -0.318498  -0.531184  0  2.22383  0
O  O96  1  0.90798457  0.08448462  0.49814662  1  -1.129915  0  -0.314582  -0.522112  0  2.207936  0
O  O97  1  0.89246958  0.97029241  0.38864310  1  -1.158275  0  -0.306403  -0.561343  0  2.261314  0
O  O98  1  0.07445699  0.10846854  0.51994300  1  -1.17181  0  -0.309692  -0.575962  0  2.308542  0
O  O99  1  0.07222445  0.00029506  0.41659754  1  -1.111765  0  -0.311375  -0.514478  0  2.190033  0
O  O100  1  0.08281448  0.07760524  0.66494388  1  -1.122184  0  -0.322207  -0.52769  0  2.205279  0
O  O101  1  0.08016886  0.96981705  0.56022648  1  -1.178858  0  -0.312772  -0.573253  0  2.290914  0
O  O102  1  0.26765212  0.00141366  0.07133530  1  -0.40996  0  -0.118933  -0.301616  0  1.895885  0
O  O103  1  0.35200134  0.04928030  0.20879302  1  -0.442735  0  -0.121789  -0.309478  0  1.935475  0
O  O104  1  0.23657902  0.13969700  0.18060579  1  -0.43666  0  -0.125376  -0.312483  0  1.887214  0
O  O105  1  0.33236539  0.21063688  0.31867968  1  -0.443754  0  -0.103499  -0.288558  0  1.966665  0
O  O106  1  0.67987664  0.90053814  0.13798276  1  -0.42329  0  -0.12291  -0.31055  0  1.866001  0
O  O107  1  0.80887946  0.98294749  0.16229520  1  -0.403259  0  -0.117575  -0.303968  0  1.849101  0
O  O108  1  0.17817161  0.33478283  0.43495697  1  -0.410916  0  -0.113112  -0.294628  0  1.849175  0
O  O109  1  0.28555528  0.43789761  0.56449785  1  -0.426861  0  -0.119454  -0.309117  0  1.886479  0
O  O110  1  0.38205598  0.20128924  0.51025055  1  -0.41184  0  -0.106462  -0.291346  0  1.851475  0
O  O111  1  0.39160256  0.26824295  0.63710148  1  -0.413097  0  -0.112304  -0.300792  0  1.848203  0
O  O112  1  0.52340728  0.10219772  0.34522557  1  -0.433507  0  -0.115407  -0.292582  0  1.907548  0
O  O113  1  0.55466465  0.06533184  0.24035889  1  -0.448932  0  -0.134062  -0.33558  0  2.001681  0
