# generated using pymatgen
data_ZnPH6C6NO6
_symmetry_space_group_name_H-M   'P 1'
_cell_length_a   6.58925022
_cell_length_b   8.03672131
_cell_length_c   9.11878125
_cell_angle_alpha   115.22008853
_cell_angle_beta   90.00010523
_cell_angle_gamma   89.99997862
_symmetry_Int_Tables_number   1
_chemical_formula_structural   ZnPH6C6NO6
_chemical_formula_sum   'Zn2 P2 H12 C12 N2 O12'
_cell_volume   436.86333651
_cell_formula_units_Z   2
loop_
 _symmetry_equiv_pos_site_id
 _symmetry_equiv_pos_as_xyz
  1  'x, y, z'
loop_
 _atom_site_type_symbol
 _atom_site_label
 _atom_site_symmetry_multiplicity
 _atom_site_fract_x
 _atom_site_fract_y
 _atom_site_fract_z
 _atom_site_occupancy
 _atom_site_hle17_bader_spin_density
 _atom_site_hle17_ddec_charge
 _atom_site_hle17_ddec_spin_density
 _atom_site_hle17_ddec_sum_bond_order
 _atom_site_hle17_magmom
 _atom_site_hse06_10hf_bader_spin_density
 _atom_site_hse06_10hf_ddec_charge
 _atom_site_hse06_10hf_ddec_spin_density
 _atom_site_hse06_10hf_ddec_sum_bond_order
 _atom_site_hse06_10hf_magmom
 _atom_site_hse06_bader_spin_density
 _atom_site_hse06_ddec_charge
 _atom_site_hse06_ddec_spin_density
 _atom_site_hse06_ddec_sum_bond_order
 _atom_site_hse06_magmom
 _atom_site_pbe_bader_spin_density
 _atom_site_pbe_cm5_charge
 _atom_site_pbe_ddec_charge
 _atom_site_pbe_ddec_spin_density
 _atom_site_pbe_ddec_sum_bond_order
 _atom_site_pbe_magmom
Zn  Zn0  1  0.75000083  0.78105164  0.52685062  1  0  1.159433  0  1.806161  0  0  0.993424  0  2.260919  0  0  1.036198  0  2.205868  0  0  0.69214  0.963172  0  2.298962  0
Zn  Zn1  1  0.25000015  0.21894891  0.47314941  1  0  1.159408  0  1.806206  0  0  0.99341  0  2.260965  0  0  1.036185  0  2.205913  0  0  0.692129  0.963161  0  2.299008  0
P  P2  1  0.75000095  0.16426501  0.50614526  1  0  1.444732  0  4.930244  0  0  1.272107  0  5.439146  0  0  1.323677  0  5.399022  0  0  0.342447  1.235403  0  5.466989  0
P  P3  1  0.25000004  0.83573693  0.49385420  1  0  1.444716  0  4.930289  0  0  1.272108  0  5.439176  0  0  1.323679  0  5.39905  0  0  0.342408  1.235407  0  5.467019  0
H  H4  1  0.75000280  0.48363368  0.83074442  1  0  0.119233  0  0.96325  0  0  0.126567  0  1.029426  0  0  0.130691  0  1.026747  0  0  0.113419  0.123263  0  1.032085  0
H  H5  1  0.24999667  0.51636686  0.16925670  1  0  0.119236  0  0.963259  0  0  0.126557  0  1.029451  0  0  0.130679  0  1.026775  0  0  0.113412  0.123252  0  1.032111  0
H  H6  1  0.74999897  0.20761450  0.14591778  1  0  0.131629  0  0.927495  0  0  0.140521  0  0.984037  0  0  0.144758  0  0.981526  0  0  0.118807  0.136431  0  0.988329  0
H  H7  1  0.25000050  0.79238467  0.85408173  1  0  0.131652  0  0.92753  0  0  0.140549  0  0.984063  0  0  0.144785  0  0.981552  0  0  0.118824  0.136458  0  0.988357  0
H  H8  1  0.75000126  0.90475308  0.89376862  1  0  0.093294  0  0.929923  0  0  0.101601  0  0.991203  0  0  0.104646  0  0.988936  0  0  0.121502  0.098815  0  0.993687  0
H  H9  1  0.25000124  0.09524749  0.10622922  1  0  0.093266  0  0.929913  0  0  0.101588  0  0.991184  0  0  0.104598  0  0.988956  0  0  0.121489  0.098799  0  0.993672  0
H  H10  1  0.74999742  0.81201044  0.23493453  1  0  0.4329  0  0.859543  0  0  0.399941  0  0.933966  0  0  0.412619  0  0.916255  0  0  0.30642  0.390946  0  0.946574  0
H  H11  1  0.25000053  0.18799010  0.76506659  1  0  0.432928  0  0.85948  0  0  0.399998  0  0.933878  0  0  0.412679  0  0.91616  0  0  0.30641  0.391003  0  0.946487  0
H  H12  1  0.86532518  0.51412042  0.59599860  1  0  0.432637  0  0.837696  0  0  0.404556  0  0.908117  0  0  0.414621  0  0.896947  0  0  0.305152  0.397293  0  0.916155  0
H  H13  1  0.36532572  0.48587881  0.40399999  1  0  0.432633  0  0.837701  0  0  0.404549  0  0.908131  0  0  0.414615  0  0.896959  0  0  0.305145  0.397286  0  0.91617  0
H  H14  1  0.13467581  0.48587876  0.40399981  1  0  0.432641  0  0.837696  0  0  0.40456  0  0.90812  0  0  0.414624  0  0.89695  0  0  0.305154  0.397297  0  0.916158  0
H  H15  1  0.63467526  0.51412174  0.59600004  1  0  0.432645  0  0.837661  0  0  0.404565  0  0.908083  0  0  0.41463  0  0.896913  0  0  0.305155  0.397303  0  0.916118  0
C  C16  1  0.75000272  0.18571374  0.71544204  1  0  -0.035369  0  3.662347  0  0  -0.014465  0  3.913371  0  0  -0.014915  0  3.930466  0  0  0.110446  -0.014287  0  3.902776  0
C  C17  1  0.24999826  0.81428819  0.28455742  1  0  -0.035387  0  3.662462  0  0  -0.014465  0  3.91345  0  0  -0.014917  0  3.930545  0  0  0.11041  -0.014287  0  3.902864  0
C  C18  1  0.75000285  0.35800503  0.84875858  1  0  -0.084905  0  3.675167  0  0  -0.122081  0  3.927313  0  0  -0.124786  0  3.94672  0  0  -0.071192  -0.120166  0  3.915333  0
C  C19  1  0.24999662  0.64199552  0.15124145  1  0  -0.084914  0  3.675155  0  0  -0.122082  0  3.927286  0  0  -0.124787  0  3.946695  0  0  -0.071184  -0.120162  0  3.915295  0
C  C20  1  0.75000027  0.36649529  0.00469503  1  0  -0.020064  0  3.732316  0  0  -0.002794  0  3.972543  0  0  -0.006241  0  3.992554  0  0  0.003357  -0.000789  0  3.959404  0
C  C21  1  0.24999768  0.63350387  0.99530557  1  0  -0.020097  0  3.732313  0  0  -0.002811  0  3.972562  0  0  -0.006262  0  3.99257  0  0  0.00335  -0.000807  0  3.959422  0
C  C22  1  0.75000034  0.20303332  0.02474027  1  0  -0.097024  0  3.662039  0  0  -0.12164  0  3.909431  0  0  -0.124396  0  3.927292  0  0  -0.065847  -0.120532  0  3.899255  0
C  C23  1  0.24999913  0.79696586  0.97525814  1  0  -0.097062  0  3.662043  0  0  -0.121684  0  3.909437  0  0  -0.124436  0  3.927288  0  0  -0.065857  -0.120574  0  3.89926  0
C  C24  1  0.75000146  0.03708904  0.88690832  1  0  0.131173  0  3.669427  0  0  0.101564  0  3.923745  0  0  0.106351  0  3.941127  0  0  0.055176  0.09917  0  3.912003  0
C  C25  1  0.24999953  0.96291152  0.11309062  1  0  0.131217  0  3.669375  0  0  0.101598  0  3.923702  0  0  0.106412  0  3.941092  0  0  0.055164  0.099209  0  3.911963  0
C  C26  1  0.74999890  0.54580465  0.15180282  1  0  0.654873  0  3.798915  0  0  0.602591  0  4.095039  0  0  0.634965  0  4.088483  0  0  0.240446  0.580886  0  4.098407  0
C  C27  1  0.24999905  0.45419455  0.84819340  1  0  0.655014  0  3.798591  0  0  0.602636  0  4.094827  0  0  0.635022  0  4.088261  0  0  0.240419  0.580939  0  4.098189  0
N  N28  1  0.75000279  0.02947817  0.73641842  1  0  -0.296084  0  3.29544  0  0  -0.229392  0  3.558888  0  0  -0.243524  0  3.574374  0  0  -0.306464  -0.220131  0  3.548672  0
N  N29  1  0.24999972  0.97052239  0.26358052  1  0  -0.296027  0  3.295604  0  0  -0.229349  0  3.559049  0  0  -0.243477  0  3.574521  0  0  -0.306389  -0.220097  0  3.548842  0
O  O30  1  0.75000063  0.95491303  0.40134493  1  0  -0.863946  0  2.090321  0  0  -0.774682  0  2.363822  0  0  -0.801257  0  2.340011  0  0  -0.36671  -0.75536  0  2.380003  0
O  O31  1  0.25000035  0.04508890  0.59865562  1  0  -0.863959  0  2.090301  0  0  -0.77475  0  2.363809  0  0  -0.801326  0  2.34  0  0  -0.366734  -0.755421  0  2.379971  0
O  O32  1  0.93948225  0.26392948  0.48812978  1  0  -0.869135  0  2.057426  0  0  -0.779535  0  2.338485  0  0  -0.808588  0  2.316835  0  0  -0.374713  -0.757633  0  2.352757  0
O  O33  1  0.43948295  0.73607257  0.51186669  1  0  -0.86914  0  2.057482  0  0  -0.779526  0  2.338488  0  0  -0.808584  0  2.316848  0  0  -0.374687  -0.757633  0  2.352778  0
O  O34  1  0.06051722  0.73607110  0.51186697  1  0  -0.869115  0  2.057468  0  0  -0.779537  0  2.338535  0  0  -0.808593  0  2.316888  0  0  -0.37469  -0.757631  0  2.352796  0
O  O35  1  0.56051652  0.26392799  0.48813225  1  0  -0.869126  0  2.05746  0  0  -0.779526  0  2.338498  0  0  -0.808581  0  2.316854  0  0  -0.374697  -0.757631  0  2.352788  0
O  O36  1  0.74999428  0.69400468  0.12409790  1  0  -0.547091  0  2.070915  0  0  -0.495611  0  2.284283  0  0  -0.520098  0  2.271934  0  0  -0.318361  -0.478786  0  2.293064  0
O  O37  1  0.25000064  0.30599584  0.87590540  1  0  -0.547293  0  2.07082  0  0  -0.495686  0  2.284072  0  0  -0.520184  0  2.271719  0  0  -0.318379  -0.478865  0  2.292851  0
O  O38  1  0.75000059  0.54650898  0.28823145  1  0  -0.549867  0  2.053253  0  0  -0.48997  0  2.296697  0  0  -0.51244  0  2.285981  0  0  -0.27021  -0.474464  0  2.303673  0
O  O39  1  0.25000040  0.45348877  0.71177300  1  0  -0.549818  0  2.053163  0  0  -0.489952  0  2.296689  0  0  -0.512426  0  2.28597  0  0  -0.270167  -0.474452  0  2.303667  0
O  O40  1  0.75000102  0.60043801  0.64012060  1  0  -0.79991  0  1.888431  0  0  -0.737719  0  2.102636  0  0  -0.758302  0  2.075581  0  0  -0.566247  -0.722886  0  2.122272  0
O  O41  1  0.24999997  0.39956255  0.35987833  1  0  -0.799926  0  1.888499  0  0  -0.737734  0  2.102708  0  0  -0.758316  0  2.075648  0  0  -0.566249  -0.722899  0  2.122339  0
