# generated using pymatgen
data_AlH5C12Cl2O5
_symmetry_space_group_name_H-M   'P 1'
_cell_length_a   6.60586022
_cell_length_b   15.48723456
_cell_length_c   14.32772712
_cell_angle_alpha   89.92653211
_cell_angle_beta   91.05958346
_cell_angle_gamma   89.22959362
_symmetry_Int_Tables_number   1
_chemical_formula_structural   AlH5C12Cl2O5
_chemical_formula_sum   'Al4 H20 C48 Cl8 O20'
_cell_volume   1465.43486102
_cell_formula_units_Z   4
loop_
 _symmetry_equiv_pos_site_id
 _symmetry_equiv_pos_as_xyz
  1  'x, y, z'
loop_
 _atom_site_type_symbol
 _atom_site_label
 _atom_site_symmetry_multiplicity
 _atom_site_fract_x
 _atom_site_fract_y
 _atom_site_fract_z
 _atom_site_occupancy
 _atom_site_pbe_bader_charge
 _atom_site_pbe_bader_spin_density
 _atom_site_pbe_cm5_charge
 _atom_site_pbe_ddec_charge
 _atom_site_pbe_ddec_spin_density
 _atom_site_pbe_ddec_sum_bond_order
 _atom_site_pbe_magmom
Al  Al0  1  0.98507920  0.00016906  0.50726725  1  2.499165  0  0.401602  1.642655  0  2.546074  0
Al  Al1  1  0.48732540  0.99039675  0.49936313  1  2.502356  0  0.393845  1.65437  0  2.549951  0
Al  Al2  1  0.97639931  0.49229684  0.00517377  1  2.502245  0  0.396877  1.656185  0  2.547562  0
Al  Al3  1  0.47762481  0.50061203  0.99519501  1  2.501335  0  0.395935  1.660528  0  2.541249  0
H  H4  1  0.72418493  0.08838063  0.43392235  1  0.631256  0  0.335477  0.417284  0  0.893911  0
H  H5  1  0.22057466  0.88800569  0.48213052  1  0.627925  0  0.347519  0.42184  0  0.873773  0
H  H6  1  0.72068444  0.39596376  0.94295427  1  0.623333  0  0.333443  0.412855  0  0.89971  0
H  H7  1  0.21913579  0.59752744  0.05367233  1  0.607531  0  0.328094  0.409252  0  0.90891  0
H  H8  1  0.97428886  0.47419908  0.72898721  1  0.098995  0  0.102024  0.105473  0  1.037843  0
H  H9  1  0.76533799  0.48026747  0.58507108  1  0.068701  0  0.104351  0.103588  0  0.985085  0
H  H10  1  0.00152946  0.23310374  0.50017098  1  0.071859  0  0.102839  0.109665  0  1.022086  0
H  H11  1  0.78182210  0.35939775  0.46975102  1  0.067012  0  0.092673  0.087836  0  1.035739  0
H  H12  1  0.45340800  0.52786012  0.25068460  1  0.120415  0  0.096454  0.10321  0  1.058833  0
H  H13  1  0.22408355  0.52422801  0.38339267  1  0.064203  0  0.105026  0.105285  0  0.984413  0
H  H14  1  0.48361738  0.75738061  0.49238999  1  0.057866  0  0.102804  0.104099  0  1.037166  0
H  H15  1  0.24157514  0.63913030  0.50625600  1  0.086397  0  0.100699  0.099263  0  1.016114  0
H  H16  1  0.05184987  0.59219134  0.82515149  1  0.069257  0  0.109033  0.111585  0  1.057754  0
H  H17  1  0.34581732  0.60822509  0.72667862  1  0.076489  0  0.103161  0.106441  0  0.987731  0
H  H18  1  0.12093263  0.85518738  0.63208799  1  0.145169  0  0.108182  0.11964  0  1.073596  0
H  H19  1  0.38618899  0.74426292  0.63349647  1  0.092689  0  0.098777  0.096103  0  1.014407  0
H  H20  1  0.00613612  0.25817988  0.99982992  1  0.066747  0  0.101777  0.10801  0  1.022347  0
H  H21  1  0.78842055  0.13332887  0.97112241  1  0.088184  0  0.093698  0.089593  0  1.031287  0
H  H22  1  0.97738928  0.02104952  0.23349561  1  0.095788  0  0.092633  0.097362  0  1.062369  0
H  H23  1  0.77019612  0.01490025  0.08927654  1  0.069587  0  0.10629  0.105527  0  0.981868  0
C  C24  1  0.23177441  0.07769225  0.35711002  1  1.582834  0  0.26369  0.651906  0  4.10045  0
C  C25  1  0.24658720  0.12763974  0.59188619  1  1.599902  0  0.269209  0.653079  0  4.087041  0
C  C26  1  0.75193925  0.91919175  0.65042634  1  1.597878  0  0.268873  0.653487  0  4.078028  0
C  C27  1  0.74094889  0.85850586  0.41598636  1  1.592387  0  0.266656  0.658921  0  4.079661  0
C  C28  1  0.24339793  0.36321077  0.09051831  1  1.612951  0  0.263662  0.646489  0  4.104954  0
C  C29  1  0.22528810  0.41486335  0.85498980  1  1.579878  0  0.268906  0.652629  0  4.095567  0
C  C30  1  0.72406250  0.62981944  0.91044650  1  1.581555  0  0.265471  0.651005  0  4.086282  0
C  C31  1  0.73749064  0.57839493  0.14362207  1  1.594106  0  0.269571  0.656053  0  4.089918  0
C  C32  1  0.23690080  0.34604791  0.78122167  1  0.066067  0  -0.008168  -0.125795  0  3.919024  0
C  C33  1  0.11146445  0.34928008  0.69890539  1  0.013205  0  -0.000768  0.065782  0  3.960341  0
C  C34  1  0.37435215  0.27818928  0.79373303  1  0.05351  0  0.014945  0.060304  0  4.024173  0
C  C35  1  0.98100051  0.42107834  0.67953043  1  -0.084489  0  -0.091766  -0.128036  0  3.969606  0
C  C36  1  0.86391164  0.42443090  0.59895085  1  0.009833  0  -0.089044  -0.072512  0  4.020899  0
C  C37  1  0.25686042  0.20781054  0.65062284  1  0.016338  0  -0.007638  -0.127451  0  3.891979  0
C  C38  1  0.39180231  0.21093047  0.72639301  1  0.113963  0  0.018787  0.072768  0  4.029737  0
C  C39  1  0.11929803  0.27896566  0.63349131  1  0.023564  0  0.002934  0.069196  0  3.943448  0
C  C40  1  0.99650131  0.28504456  0.55105150  1  -0.000106  0  -0.091153  -0.125452  0  3.962668  0
C  C41  1  0.87282108  0.35606943  0.53402185  1  -0.068151  0  -0.093265  -0.078935  0  4.026342  0
C  C42  1  0.74588389  0.64588857  0.21898404  1  0.060661  0  -0.006897  -0.122429  0  3.902962  0
C  C43  1  0.60581825  0.64485641  0.29399752  1  0.019159  0  -0.000338  0.06655  0  3.954175  0
C  C44  1  0.88948237  0.71051858  0.21518025  1  0.077451  0  0.017247  0.064451  0  4.019976  0
C  C45  1  0.46158471  0.57821882  0.30322290  1  -0.042092  0  -0.09451  -0.132462  0  3.976159  0
C  C46  1  0.33227502  0.57647720  0.37757535  1  -0.062304  0  -0.088997  -0.072708  0  4.018112  0
C  C47  1  0.75515360  0.78031779  0.35438838  1  0.045006  0  -0.009261  -0.126338  0  3.902214  0
C  C48  1  0.89781532  0.77669136  0.28428992  1  0.068779  0  0.016519  0.065229  0  4.029027  0
C  C49  1  0.61152540  0.71231496  0.36268965  1  0.01665  0  0.001127  0.071017  0  3.956093  0
C  C50  1  0.47723226  0.70773701  0.43887840  1  -0.042504  0  -0.094339  -0.138969  0  3.984037  0
C  C51  1  0.34143493  0.64135764  0.44653093  1  -0.010726  0  -0.09069  -0.076026  0  4.024997  0
C  C52  1  0.74421159  0.70872018  0.85024491  1  0.01596  0  -0.009608  -0.128037  0  3.899364  0
C  C53  1  0.90895316  0.71434957  0.78679445  1  0.020138  0  -0.000364  0.06678  0  3.944824  0
C  C54  1  0.60696509  0.77723403  0.85713246  1  0.144117  0  0.016802  0.070235  0  4.028351  0
C  C55  1  0.06150246  0.64886016  0.78127799  1  0.007177  0  -0.094656  -0.131909  0  3.965321  0
C  C56  1  0.22813876  0.65830339  0.72613181  1  -0.090565  0  -0.091323  -0.077411  0  4.034035  0
C  C57  1  0.76452829  0.85307599  0.72763415  1  0.062497  0  -0.010649  -0.131655  0  3.891452  0
C  C58  1  0.61392192  0.84840482  0.79404952  1  0.063567  0  0.015668  0.066898  0  4.042523  0
C  C59  1  0.92434966  0.78910585  0.72765923  1  -0.050514  0  -0.001065  0.065979  0  3.945241  0
C  C60  1  0.09940239  0.79678181  0.67210590  1  -0.012716  0  -0.098432  -0.142116  0  3.966705  0
C  C61  1  0.24899847  0.73394120  0.67285464  1  -0.076118  0  -0.094942  -0.078646  0  4.039208  0
C  C62  1  0.25498724  0.28418089  0.15157483  1  0.027492  0  -0.007137  -0.122608  0  3.896073  0
C  C63  1  0.12163453  0.21327330  0.13456401  1  -0.004905  0  0.002873  0.07005  0  3.943887  0
C  C64  1  0.38610635  0.28195889  0.22866597  1  0.116132  0  0.015989  0.067247  0  4.030863  0
C  C65  1  0.00067783  0.20702063  0.05170098  1  0.01321  0  -0.091627  -0.127079  0  3.963469  0
C  C66  1  0.87792180  0.13700072  0.03571067  1  -0.098017  0  -0.090952  -0.073575  0  4.017407  0
C  C67  1  0.24019856  0.14676455  0.28335574  1  0.062453  0  -0.009531  -0.123409  0  3.912375  0
C  C68  1  0.37363464  0.21452054  0.29589532  1  0.048884  0  0.013056  0.057111  0  4.031177  0
C  C69  1  0.11461283  0.14385767  0.20112832  1  0.022878  0  -0.000919  0.069259  0  3.953697  0
C  C70  1  0.98456244  0.07322024  0.18288068  1  -0.039567  0  -0.094807  -0.131535  0  3.975586  0
C  C71  1  0.86829514  0.06990234  0.10216986  1  -0.000122  0  -0.087768  -0.068888  0  4.013759  0
Cl  Cl72  1  0.57750553  0.13406264  0.74536900  1  -0.139484  0  0.028353  -0.016062  0  1.695577  0
Cl  Cl73  1  0.51705925  0.26718670  0.89544532  1  -0.182848  0  0.044515  -0.026722  0  1.723589  0
Cl  Cl74  1  0.08338051  0.85301620  0.27435269  1  -0.169524  0  0.038042  -0.01613  0  1.676837  0
Cl  Cl75  1  0.05044526  0.71988120  0.12226952  1  -0.180593  0  0.036696  -0.028  0  1.704154  0
Cl  Cl76  1  0.43503720  0.92914003  0.80407320  1  -0.147976  0  0.017389  -0.035241  0  1.673963  0
Cl  Cl77  1  0.42875115  0.78026587  0.94329737  1  -0.185342  0  0.006896  -0.04232  0  1.623131  0
Cl  Cl78  1  0.51717289  0.22434378  0.39734933  1  -0.18517  0  0.041433  -0.028853  0  1.714073  0
Cl  Cl79  1  0.56179646  0.36109023  0.24924160  1  -0.170556  0  0.034068  -0.016716  0  1.662889  0
O  O80  1  0.05968565  0.05994068  0.39050218  1  -1.25464  0  -0.237396  -0.593974  0  2.332718  0
O  O81  1  0.41024035  0.09127780  0.56762850  1  -1.252464  0  -0.230719  -0.593501  0  2.435929  0
O  O82  1  0.58175139  0.92750462  0.60781801  1  -1.255566  0  -0.231171  -0.587907  0  2.36331  0
O  O83  1  0.90251361  0.88768511  0.45287546  1  -1.254107  0  -0.240132  -0.609793  0  2.397198  0
O  O84  1  0.91182430  0.95829682  0.62811641  1  -1.251212  0  -0.229223  -0.56687  0  2.348427  0
O  O85  1  0.56440749  0.89093213  0.42538442  1  -1.241438  0  -0.232085  -0.582299  0  2.350393  0
O  O86  1  0.40013416  0.04369447  0.38195188  1  -1.25633  0  -0.239587  -0.596437  0  2.378402  0
O  O87  1  0.06982647  0.10069368  0.57201301  1  -1.245615  0  -0.22526  -0.570352  0  2.355799  0
O  O88  1  0.73213984  0.04325324  0.48110752  1  -1.437791  0  -0.450476  -0.991995  0  2.240837  0
O  O89  1  0.23411372  0.94303809  0.51423417  1  -1.431522  0  -0.444969  -0.976667  0  2.200556  0
O  O90  1  0.06522957  0.39111668  0.07108567  1  -1.248575  0  -0.230046  -0.578843  0  2.356553  0
O  O91  1  0.39201806  0.44777031  0.88027123  1  -1.244667  0  -0.231707  -0.581973  0  2.383688  0
O  O92  1  0.54941704  0.59765108  0.91815650  1  -1.23951  0  -0.230443  -0.577649  0  2.370105  0
O  O93  1  0.90180897  0.53963648  0.12449659  1  -1.24628  0  -0.234106  -0.582257  0  2.348493  0
O  O94  1  0.88571861  0.60028461  0.94898321  1  -1.261208  0  -0.237411  -0.604134  0  2.43063  0
O  O95  1  0.56701420  0.56596311  0.10328918  1  -1.249438  0  -0.226393  -0.579364  0  2.344178  0
O  O96  1  0.40688253  0.39642122  0.06408116  1  -1.251063  0  -0.237257  -0.600057  0  2.428893  0
O  O97  1  0.05298944  0.43391764  0.88847131  1  -1.250581  0  -0.23209  -0.581471  0  2.315558  0
O  O98  1  0.72594885  0.44700520  0.98220402  1  -1.43113  0  -0.451163  -0.995312  0  2.248975  0
O  O99  1  0.22428925  0.54512604  0.01644562  1  -1.417158  0  -0.450338  -0.995193  0  2.240228  0
