# generated using pymatgen
data_ZnH26C26(NO)4
_symmetry_space_group_name_H-M   'P 1'
_cell_length_a   9.14023186
_cell_length_b   11.63682825
_cell_length_c   13.34000000
_cell_angle_alpha   64.03523376
_cell_angle_beta   71.17488279
_cell_angle_gamma   75.17567055
_symmetry_Int_Tables_number   1
_chemical_formula_structural   ZnH26C26(NO)4
_chemical_formula_sum   'Zn2 H52 C52 N8 O8'
_cell_volume   1196.43546650
_cell_formula_units_Z   2
loop_
 _symmetry_equiv_pos_site_id
 _symmetry_equiv_pos_as_xyz
  1  'x, y, z'
loop_
 _atom_site_type_symbol
 _atom_site_label
 _atom_site_symmetry_multiplicity
 _atom_site_fract_x
 _atom_site_fract_y
 _atom_site_fract_z
 _atom_site_occupancy
 _atom_site_pbe_bader_charge
 _atom_site_pbe_bader_spin_density
 _atom_site_pbe_cm5_charge
 _atom_site_pbe_ddec_charge
 _atom_site_pbe_ddec_spin_density
 _atom_site_pbe_ddec_sum_bond_order
 _atom_site_pbe_magmom
Zn  Zn0  1  0.12290440  0.79226786  0.93376154  1  1.253741  0  0.693752  0.776456  0  2.435644  0
Zn  Zn1  1  0.87712218  0.20772986  0.06622498  1  1.253798  0  0.693792  0.776531  0  2.435636  0
H  H2  1  0.00045672  0.88131506  0.14450930  1  0.182909  0  0.143969  0.122418  0  0.991663  0
H  H3  1  0.99954396  0.11868555  0.85549834  1  0.182871  0  0.14396  0.122454  0  0.991627  0
H  H4  1  0.43063878  0.70554824  0.23529274  1  0.090995  0  0.120378  0.116003  0  1.042767  0
H  H5  1  0.56935953  0.29444562  0.76470675  1  0.090935  0  0.120408  0.116007  0  1.042765  0
H  H6  1  0.42801301  0.67022260  0.04147730  1  0.128343  0  0.123017  0.118772  0  1.012268  0
H  H7  1  0.57198415  0.32977126  0.95852320  1  0.128332  0  0.123028  0.118745  0  1.012329  0
H  H8  1  0.03710924  0.90770656  0.30699416  1  0.104793  0  0.121068  0.114219  0  0.993572  0
H  H9  1  0.96289307  0.09229116  0.69300823  1  0.104849  0  0.121052  0.114204  0  0.993481  0
H  H10  1  0.22964334  0.92218041  0.28923276  1  0.090853  0  0.114443  0.107686  0  1.007314  0
H  H11  1  0.77036985  0.07781442  0.71077432  1  0.090964  0  0.114433  0.107592  0  1.007407  0
H  H12  1  0.77082878  0.73180180  0.50928559  1  0.059211  0  0.091054  0.127876  0  1.027246  0
H  H13  1  0.22916912  0.26820170  0.49070431  1  0.059142  0  0.091012  0.127904  0  1.027278  0
H  H14  1  0.86348056  0.63247098  0.43187760  1  0.038343  0  0.087786  0.123945  0  1.031943  0
H  H15  1  0.13650899  0.36754121  0.56811458  1  0.038361  0  0.087801  0.123992  0  1.031905  0
H  H16  1  0.87986679  0.79930270  0.36665900  1  0.041572  0  0.089636  0.122087  0  1.04113  0
H  H17  1  0.12012570  0.20070563  0.63334300  1  0.041331  0  0.089642  0.122107  0  1.041072  0
H  H18  1  0.87799559  0.44673114  0.75260026  1  0.043648  0  0.084469  0.113309  0  1.073188  0
H  H19  1  0.12200136  0.55325693  0.24737926  1  0.043158  0  0.084482  0.113321  0  1.073021  0
H  H20  1  0.82803180  0.49249763  0.62202530  1  0.065585  0  0.090613  0.127422  0  1.024824  0
H  H21  1  0.17198748  0.50749526  0.37795268  1  0.065832  0  0.090617  0.127437  0  1.024824  0
H  H22  1  0.77505771  0.60089089  0.69169223  1  0.062784  0  0.097703  0.141215  0  0.982295  0
H  H23  1  0.22492315  0.39908947  0.30830354  1  0.062872  0  0.09766  0.141191  0  0.982306  0
H  H24  1  0.43006569  0.48300306  0.70216060  1  0.02773  0  0.085675  0.106935  0  1.071279  0
H  H25  1  0.56992444  0.51699852  0.29784226  1  0.027688  0  0.085692  0.106915  0  1.071327  0
H  H26  1  0.45282677  0.64695930  0.64150483  1  0.059902  0  0.098562  0.144791  0  0.986898  0
H  H27  1  0.54716446  0.35303553  0.35850711  1  0.059822  0  0.098519  0.144777  0  0.986917  0
H  H28  1  0.53912208  0.55177530  0.55897467  1  0.05745  0  0.089789  0.124572  0  1.023355  0
H  H29  1  0.46085842  0.44822145  0.44103215  1  0.057214  0  0.08974  0.12457  0  1.023301  0
H  H30  1  0.53516188  0.69510546  0.38673098  1  0.030634  0  0.088103  0.120155  0  1.016804  0
H  H31  1  0.46483228  0.30488550  0.61327354  1  0.030993  0  0.088056  0.120102  0  1.01685  0
H  H32  1  0.47104294  0.80529287  0.45437012  1  0.053581  0  0.09303  0.134446  0  1.025016  0
H  H33  1  0.52895343  0.19470581  0.54562871  1  0.053374  0  0.093035  0.13447  0  1.024941  0
H  H34  1  0.42873581  0.84657300  0.32179553  1  0.031669  0  0.088728  0.120264  0  1.05052  0
H  H35  1  0.57125463  0.15342665  0.67821249  1  0.031594  0  0.08875  0.120287  0  1.050337  0
H  H36  1  0.05618796  0.38793674  0.80044257  1  0.098403  0  0.110599  0.09615  0  1.019631  0
H  H37  1  0.94380847  0.61206869  0.19955742  1  0.098427  0  0.110575  0.096123  0  1.019619  0
H  H38  1  0.26005296  0.36557052  0.75621598  1  0.060747  0  0.113916  0.096949  0  0.983025  0
H  H39  1  0.73992666  0.63443877  0.24378251  1  0.060799  0  0.113963  0.097008  0  0.98293  0
H  H40  1  0.03650335  0.67837059  0.79049580  1  0.179783  0  0.142659  0.122255  0  0.99096  0
H  H41  1  0.96348409  0.32162617  0.20951324  1  0.179737  0  0.142672  0.122249  0  0.990901  0
H  H42  1  0.28530659  0.49121954  0.04975637  1  0.096517  0  0.124099  0.120972  0  0.991215  0
H  H43  1  0.71469903  0.50877915  0.95024267  1  0.096436  0  0.124097  0.121008  0  0.991165  0
H  H44  1  0.31226564  0.32603247  0.94295468  1  0.137552  0  0.124802  0.126059  0  1.031234  0
H  H45  1  0.68774397  0.67397007  0.05703900  1  0.137584  0  0.124849  0.12613  0  1.031284  0
H  H46  1  0.21138374  0.01197939  0.56608749  1  0.092243  0  0.105493  0.112226  0  0.996365  0
H  H47  1  0.78864998  0.98800290  0.43390710  1  0.092038  0  0.105576  0.112346  0  0.996075  0
H  H48  1  0.66099584  0.87701101  0.64294934  1  0.098199  0  0.106025  0.112873  0  0.998885  0
H  H49  1  0.33901639  0.12296838  0.35704511  1  0.098311  0  0.105995  0.112885  0  0.998813  0
H  H50  1  0.69735524  0.96061496  0.10731482  1  0.093708  0  0.099491  0.105248  0  1.018167  0
H  H51  1  0.30265276  0.03941169  0.89269174  1  0.093734  0  0.099509  0.105336  0  1.018119  0
H  H52  1  0.57146396  0.92714714  0.83861491  1  0.106347  0  0.102142  0.109235  0  1.026502  0
H  H53  1  0.42854814  0.07287566  0.16138398  1  0.105879  0  0.102087  0.109106  0  1.026762  0
C  C54  1  0.11591666  0.82633662  0.14330467  1  0.963554  0  0.148894  0.0976  0  3.885719  0
C  C55  1  0.88409280  0.17366688  0.85669917  1  0.960272  0  0.148991  0.097687  0  3.885496  0
C  C56  1  0.34254519  0.73452101  0.18784148  1  0.323729  0  0.003536  -0.102159  0  3.918808  0
C  C57  1  0.65745334  0.26547863  0.81216176  1  0.323731  0  0.003574  -0.102045  0  3.91889  0
C  C58  1  0.33943242  0.71678102  0.09347137  1  0.425584  0  0.004229  -0.029104  0  4.005442  0
C  C59  1  0.66057020  0.28321476  0.90653244  1  0.4256  0  0.004232  -0.029052  0  4.005472  0
C  C60  1  0.15293004  0.85192461  0.31096490  1  0.270315  0  -0.049975  -0.108082  0  3.875523  0
C  C61  1  0.84707101  0.14808082  0.68903631  1  0.270345  0  -0.049969  -0.107988  0  3.875588  0
C  C62  1  0.15439878  0.74422587  0.42737896  1  -0.032539  0  -0.01813  -0.032268  0  3.932521  0
C  C63  1  0.84558694  0.25578149  0.57262491  1  -0.032546  0  -0.018159  -0.032238  0  3.93277  0
C  C64  1  0.02036076  0.68241998  0.49239457  1  -0.044049  0  -0.012994  0.064873  0  3.922502  0
C  C65  1  0.97963215  0.31757870  0.50760578  1  -0.043986  0  -0.012972  0.064844  0  3.92251  0
C  C66  1  0.01855603  0.58456693  0.60319413  1  -0.025021  0  -0.013278  0.062029  0  3.933114  0
C  C67  1  0.98143888  0.41543368  0.39680429  1  -0.025505  0  -0.013288  0.061995  0  3.932966  0
C  C68  1  0.15404517  0.54544076  0.64520930  1  0.002023  0  -0.022359  -0.05325  0  3.962373  0
C  C69  1  0.84594468  0.45454828  0.35478941  1  0.002315  0  -0.022275  -0.053139  0  3.962332  0
C  C70  1  0.28922278  0.60582772  0.57903313  1  -0.05419  0  -0.017029  0.052579  0  3.955994  0
C  C71  1  0.71076472  0.39417579  0.42097032  1  -0.054041  0  -0.017125  0.05248  0  3.956372  0
C  C72  1  0.28934905  0.70608070  0.47016184  1  0.029306  0  -0.015109  0.05828  0  3.939742  0
C  C73  1  0.71064485  0.29391895  0.52983867  1  0.029163  0  -0.01508  0.058318  0  3.93996  0
C  C74  1  0.87743642  0.71437820  0.44704302  1  -0.083884  0  -0.244446  -0.404252  0  3.949862  0
C  C75  1  0.12256463  0.28562723  0.55295070  1  -0.083552  0  -0.244453  -0.404392  0  3.949675  0
C  C76  1  0.86882251  0.52755608  0.67132039  1  -0.128613  0  -0.244879  -0.410791  0  3.961823  0
C  C77  1  0.13117580  0.47243778  0.32867011  1  -0.128436  0  -0.24481  -0.410744  0  3.961659  0
C  C78  1  0.43428992  0.56914199  0.62279996  1  -0.082139  0  -0.243119  -0.404954  0  3.963007  0
C  C79  1  0.56569805  0.43085862  0.37720674  1  -0.081952  0  -0.243071  -0.404967  0  3.963138  0
C  C80  1  0.43691357  0.76723934  0.40417268  1  -0.076096  0  -0.242957  -0.402463  0  3.954349  0
C  C81  1  0.56308675  0.23275645  0.59582938  1  -0.076255  0  -0.242933  -0.402439  0  3.954179  0
C  C82  1  0.15830659  0.43909053  0.76219478  1  0.271692  0  -0.046441  -0.093059  0  3.894544  0
C  C83  1  0.84167597  0.56091490  0.23780602  1  0.27171  0  -0.046424  -0.093081  0  3.894544  0
C  C84  1  0.10797303  0.60548432  0.84626500  1  0.963171  0  0.151041  0.106898  0  3.875196  0
C  C85  1  0.89201132  0.39451726  0.15374138  1  0.963747  0  0.150987  0.106962  0  3.875289  0
C  C86  1  0.23781855  0.50573872  0.97976742  1  0.403321  0  0.002198  -0.024516  0  3.98458  0
C  C87  1  0.76217925  0.49427250  0.02023305  1  0.403497  0  0.002218  -0.024484  0  3.984509  0
C  C88  1  0.25351212  0.42342251  0.92730039  1  0.319009  0  0.003041  -0.1012  0  3.914656  0
C  C89  1  0.74647370  0.57657714  0.07270565  1  0.318667  0  0.002954  -0.101278  0  3.914777  0
C  C90  1  0.35436455  0.87211276  0.74256977  1  1.576858  0  0.191856  0.555877  0  4.227105  0
C  C91  1  0.64564742  0.12787531  0.25742666  1  1.576889  0  0.191781  0.555687  0  4.227211  0
C  C92  1  0.42853178  0.93861818  0.61706453  1  -0.120277  0  -0.018171  -0.031238  0  3.971023  0
C  C93  1  0.57149091  0.06136796  0.38292953  1  -0.119569  0  -0.018118  -0.031138  0  3.970765  0
C  C94  1  0.33780005  0.00770910  0.53640436  1  -0.061932  0  -0.085649  -0.101431  0  3.983243  0
C  C95  1  0.66222380  0.99227705  0.46359018  1  -0.062634  0  -0.085717  -0.101509  0  3.98288  0
C  C96  1  0.59153842  0.93094478  0.57947807  1  0.004861  0  -0.086059  -0.109438  0  3.9895  0
C  C97  1  0.40848274  0.06903654  0.42051141  1  0.004698  0  -0.086057  -0.109508  0  3.989274  0
C  C98  1  0.81273467  0.87722515  0.93173975  1  1.544211  0  0.187397  0.540781  0  4.271277  0
C  C99  1  0.18726728  0.12278897  0.06825270  1  1.544268  0  0.187386  0.540756  0  4.271029  0
C  C100  1  0.65027329  0.93851690  0.96901182  1  -0.050622  0  -0.026142  -0.048681  0  3.991573  0
C  C101  1  0.34973581  0.06150300  0.03099783  1  -0.050971  0  -0.026169  -0.048543  0  3.991257  0
C  C102  1  0.60963254  0.97698136  0.06165166  1  -0.049444  0  -0.091317  -0.098196  0  3.977964  0
C  C103  1  0.39037156  0.02303372  0.93836019  1  -0.049328  0  -0.091458  -0.098542  0  3.97783  0
C  C104  1  0.53953297  0.96145127  0.90789476  1  -0.057954  0  -0.090045  -0.107784  0  3.987147  0
C  C105  1  0.46047576  0.03856381  0.09211456  1  -0.057075  0  -0.08992  -0.10762  0  3.987045  0
N  N106  1  0.19749241  0.77417096  0.06683967  1  -1.255717  0  -0.364145  -0.29471  0  3.622952  0
N  N107  1  0.80251075  0.22582868  0.93316404  1  -1.252557  0  -0.364178  -0.294727  0  3.623209  0
N  N108  1  0.20062203  0.80416622  0.21803752  1  -1.21811  0  -0.236678  0.051059  0  3.752475  0
N  N109  1  0.79937250  0.19582957  0.78196732  1  -1.218015  0  -0.236772  0.050805  0  3.752337  0
N  N110  1  0.17124440  0.48810773  0.84303795  1  -1.222061  0  -0.239765  0.047305  0  3.757017  0
N  N111  1  0.82874635  0.51188999  0.15697298  1  -1.222121  0  -0.239754  0.047254  0  3.757174  0
N  N112  1  0.14679546  0.61867042  0.92844246  1  -1.211121  0  -0.360394  -0.289615  0  3.623766  0
N  N113  1  0.85320522  0.38133019  0.07155618  1  -1.211346  0  -0.360373  -0.289706  0  3.62358  0
O  O114  1  0.20887570  0.91617287  0.77697631  1  -1.175892  0  -0.344351  -0.569518  0  2.27925  0
O  O115  1  0.79113743  0.08381520  0.22300488  1  -1.17601  0  -0.344428  -0.569634  0  2.279311  0
O  O116  1  0.43139903  0.78029233  0.80627552  1  -1.175811  0  -0.333511  -0.55562  0  2.090721  0
O  O117  1  0.56861846  0.21970443  0.19372687  1  -1.176066  0  -0.333368  -0.555415  0  2.090921  0
O  O118  1  0.90600377  0.85865560  0.99493186  1  -1.185191  0  -0.346034  -0.576807  0  2.349853  0
O  O119  1  0.09402187  0.14134790  0.00506465  1  -1.185689  0  -0.345988  -0.576742  0  2.350271  0
O  O120  1  0.85063844  0.84898161  0.84560955  1  -1.173844  0  -0.330194  -0.552595  0  2.112788  0
O  O121  1  0.14933562  0.15105469  0.15438884  1  -1.173692  0  -0.33029  -0.552743  0  2.11217  0
