# generated using pymatgen
data_CdH14C14(NO2)4
_symmetry_space_group_name_H-M   'P 1'
_cell_length_a   8.01840565
_cell_length_b   8.01838809
_cell_length_c   13.44963924
_cell_angle_alpha   90.94167229
_cell_angle_beta   90.94183119
_cell_angle_gamma   112.51213115
_symmetry_Int_Tables_number   1
_chemical_formula_structural   CdH14C14(NO2)4
_chemical_formula_sum   'Cd2 H28 C28 N8 O16'
_cell_volume   798.49607491
_cell_formula_units_Z   2
loop_
 _symmetry_equiv_pos_site_id
 _symmetry_equiv_pos_as_xyz
  1  'x, y, z'
loop_
 _atom_site_type_symbol
 _atom_site_label
 _atom_site_symmetry_multiplicity
 _atom_site_fract_x
 _atom_site_fract_y
 _atom_site_fract_z
 _atom_site_occupancy
 _atom_site_hle17_bader_spin_density
 _atom_site_hle17_ddec_charge
 _atom_site_hle17_ddec_spin_density
 _atom_site_hle17_ddec_sum_bond_order
 _atom_site_hle17_magmom
 _atom_site_hse06_10hf_bader_spin_density
 _atom_site_hse06_10hf_ddec_charge
 _atom_site_hse06_10hf_ddec_spin_density
 _atom_site_hse06_10hf_ddec_sum_bond_order
 _atom_site_hse06_10hf_magmom
 _atom_site_hse06_bader_spin_density
 _atom_site_hse06_ddec_charge
 _atom_site_hse06_ddec_spin_density
 _atom_site_hse06_ddec_sum_bond_order
 _atom_site_hse06_magmom
 _atom_site_pbe_bader_spin_density
 _atom_site_pbe_cm5_charge
 _atom_site_pbe_ddec_charge
 _atom_site_pbe_ddec_spin_density
 _atom_site_pbe_ddec_sum_bond_order
 _atom_site_pbe_magmom
Cd  Cd0  1  0.70596747  0.29403169  0.74999835  1  0  1.188857  0  1.496439  0  0  1.00425  0  1.932169  0  0  1.072646  0  1.871131  0  0  0.75004  0.955616  0  1.973658  0
Cd  Cd1  1  0.29403391  0.70596972  0.25000062  1  0  1.188846  0  1.496432  0  0  1.00425  0  1.932178  0  0  1.072645  0  1.87114  0  0  0.750034  0.955609  0  1.973663  0
H  H2  1  0.58617299  0.33517470  0.11090190  1  0  0.125886  0  0.921114  0  0  0.144853  0  0.979471  0  0  0.146058  0  0.979125  0  0  0.114408  0.143845  0  0.97987  0
H  H3  1  0.66482347  0.41382909  0.38909760  1  0  0.12587  0  0.921132  0  0  0.144837  0  0.979487  0  0  0.146043  0  0.979142  0  0  0.114407  0.143829  0  0.979887  0
H  H4  1  0.41382733  0.66482401  0.88909852  1  0  0.125879  0  0.921114  0  0  0.144841  0  0.979475  0  0  0.146048  0  0.97913  0  0  0.114398  0.143834  0  0.979876  0
H  H5  1  0.33517666  0.58617232  0.61090285  1  0  0.125862  0  0.921135  0  0  0.144831  0  0.979489  0  0  0.146037  0  0.979144  0  0  0.114399  0.143824  0  0.979891  0
H  H6  1  0.56585040  0.17457507  0.01273045  1  0  0.118863  0  0.950323  0  0  0.13534  0  1.01619  0  0  0.136587  0  1.015932  0  0  0.113555  0.134337  0  1.016488  0
H  H7  1  0.82542244  0.43415131  0.48726990  1  0  0.118889  0  0.950299  0  0  0.135345  0  1.016183  0  0  0.136592  0  1.015923  0  0  0.11357  0.134342  0  1.01648  0
H  H8  1  0.43415169  0.82542498  0.98726926  1  0  0.118873  0  0.950323  0  0  0.135351  0  1.016184  0  0  0.136598  0  1.015926  0  0  0.113561  0.134349  0  1.016479  0
H  H9  1  0.17457821  0.56585145  0.51273131  1  0  0.118876  0  0.950328  0  0  0.135358  0  1.016188  0  0  0.136604  0  1.015928  0  0  0.113568  0.134355  0  1.016482  0
H  H10  1  0.47700787  0.09797634  0.13290104  1  0  0.130479  0  0.95106  0  0  0.146027  0  1.016053  0  0  0.147845  0  1.014851  0  0  0.112763  0.144625  0  1.017007  0
H  H11  1  0.90202158  0.52299440  0.36709931  1  0  0.130453  0  0.951003  0  0  0.146004  0  1.016002  0  0  0.147824  0  1.014799  0  0  0.112752  0.144602  0  1.016959  0
H  H12  1  0.52299350  0.90202506  0.86709867  1  0  0.13048  0  0.950982  0  0  0.145995  0  1.016009  0  0  0.147815  0  1.014809  0  0  0.112748  0.144594  0  1.016967  0
H  H13  1  0.09797730  0.47700703  0.63290113  1  0  0.130473  0  0.951  0  0  0.146018  0  1.016007  0  0  0.147837  0  1.014805  0  0  0.112762  0.144617  0  1.016965  0
H  H14  1  0.20436214  0.18622434  0.18955910  1  0  0.14303  0  0.954154  0  0  0.14865  0  1.015417  0  0  0.152781  0  1.010636  0  0  0.151315  0.1455  0  1.019034  0
H  H15  1  0.81377115  0.79563905  0.31044016  1  0  0.143034  0  0.954191  0  0  0.14865  0  1.015461  0  0  0.152783  0  1.010678  0  0  0.151292  0.145501  0  1.019078  0
H  H16  1  0.79563890  0.81377302  0.81043983  1  0  0.143036  0  0.954151  0  0  0.148666  0  1.015419  0  0  0.152798  0  1.010638  0  0  0.15131  0.145518  0  1.01904  0
H  H17  1  0.18622720  0.20436102  0.68955951  1  0  0.143049  0  0.954155  0  0  0.148666  0  1.015418  0  0  0.152799  0  1.010636  0  0  0.151308  0.14552  0  1.01904  0
H  H18  1  0.79769196  0.12079760  0.10228372  1  0  0.115552  0  0.96584  0  0  0.130194  0  1.034828  0  0  0.131826  0  1.03386  0  0  0.104413  0.128899  0  1.035618  0
H  H19  1  0.87920310  0.20231186  0.39771544  1  0  0.115595  0  0.965873  0  0  0.130254  0  1.034826  0  0  0.131888  0  1.033855  0  0  0.104414  0.128958  0  1.035619  0
H  H20  1  0.20230764  0.87920246  0.89771745  1  0  0.115534  0  0.96587  0  0  0.130194  0  1.034829  0  0  0.131826  0  1.03386  0  0  0.104407  0.1289  0  1.03562  0
H  H21  1  0.12079578  0.79768956  0.60228499  1  0  0.115575  0  0.965851  0  0  0.130232  0  1.034815  0  0  0.131866  0  1.033844  0  0  0.104407  0.128937  0  1.035606  0
H  H22  1  0.88018162  0.35347757  0.06906603  1  0  0.118285  0  0.953772  0  0  0.134997  0  1.017626  0  0  0.136268  0  1.017111  0  0  0.111013  0.13395  0  1.018164  0
H  H23  1  0.64652464  0.11982359  0.43093155  1  0  0.118334  0  0.953799  0  0  0.135039  0  1.017645  0  0  0.136312  0  1.017127  0  0  0.111014  0.133992  0  1.018185  0
H  H24  1  0.11982100  0.64652383  0.93093370  1  0  0.118326  0  0.953785  0  0  0.13502  0  1.017641  0  0  0.136292  0  1.017126  0  0  0.111014  0.133972  0  1.018182  0
H  H25  1  0.35347424  0.88017783  0.56906814  1  0  0.118319  0  0.953792  0  0  0.135023  0  1.017647  0  0  0.136293  0  1.017138  0  0  0.111016  0.133978  0  1.018183  0
H  H26  1  0.95179750  0.28945935  0.18436853  1  0  0.131213  0  0.947937  0  0  0.151735  0  1.004128  0  0  0.153406  0  1.003376  0  0  0.115388  0.15042  0  1.004757  0
H  H27  1  0.71054356  0.04820950  0.31562993  1  0  0.131237  0  0.947934  0  0  0.151742  0  1.004131  0  0  0.153412  0  1.003381  0  0  0.115381  0.150427  0  1.004761  0
H  H28  1  0.04820459  0.71054070  0.81563192  1  0  0.131232  0  0.947926  0  0  0.151739  0  1.004117  0  0  0.15341  0  1.003366  0  0  0.115392  0.150426  0  1.004748  0
H  H29  1  0.28945585  0.95179327  0.68436978  1  0  0.131215  0  0.947956  0  0  0.151737  0  1.004143  0  0  0.153408  0  1.003392  0  0  0.115397  0.150423  0  1.004776  0
C  C30  1  0.11523015  0.25662160  0.95820028  1  0  -0.055313  0  3.640939  0  0  -0.075647  0  3.907842  0  0  -0.078973  0  3.924203  0  0  0.081374  -0.073816  0  3.897326  0
C  C31  1  0.74337561  0.88477229  0.54179745  1  0  -0.055138  0  3.640813  0  0  -0.07557  0  3.90777  0  0  -0.078895  0  3.924132  0  0  0.081427  -0.073742  0  3.897251  0
C  C32  1  0.88477017  0.74337711  0.04179939  1  0  -0.055184  0  3.640799  0  0  -0.075646  0  3.907807  0  0  -0.078971  0  3.92417  0  0  0.081383  -0.073813  0  3.897285  0
C  C33  1  0.25662151  0.11522780  0.45820146  1  0  -0.055128  0  3.640881  0  0  -0.075501  0  3.907773  0  0  -0.078827  0  3.924135  0  0  0.081436  -0.073669  0  3.897251  0
C  C34  1  0.28245631  0.24443583  0.95261088  1  0  0.018493  0  3.610811  0  0  -0.002837  0  3.877723  0  0  0.002043  0  3.889989  0  0  0.112081  -0.00632  0  3.869979  0
C  C35  1  0.75555920  0.71754666  0.54738848  1  0  0.018398  0  3.610822  0  0  -0.002811  0  3.877628  0  0  0.002069  0  3.889896  0  0  0.112079  -0.006294  0  3.869879  0
C  C36  1  0.71754421  0.75556017  0.04738877  1  0  0.018441  0  3.610784  0  0  -0.002786  0  3.877619  0  0  0.002093  0  3.889887  0  0  0.1121  -0.006267  0  3.869869  0
C  C37  1  0.24443666  0.28245343  0.45261116  1  0  0.018358  0  3.610861  0  0  -0.002873  0  3.877658  0  0  0.002006  0  3.889928  0  0  0.112078  -0.006353  0  3.869909  0
C  C38  1  0.50088065  0.20321509  0.07800589  1  0  -0.17727  0  3.574917  0  0  -0.276304  0  3.817806  0  0  -0.273221  0  3.824571  0  0  -0.126435  -0.278111  0  3.813399  0
C  C39  1  0.79678286  0.49912086  0.42199438  1  0  -0.177249  0  3.574745  0  0  -0.276264  0  3.817656  0  0  -0.273182  0  3.824424  0  0  -0.126427  -0.278075  0  3.813258  0
C  C40  1  0.49911967  0.79678362  0.92199452  1  0  -0.177294  0  3.574797  0  0  -0.276292  0  3.81769  0  0  -0.273203  0  3.824438  0  0  -0.126421  -0.278099  0  3.813282  0
C  C41  1  0.20321726  0.50088055  0.57800607  1  0  -0.177282  0  3.574768  0  0  -0.276324  0  3.817683  0  0  -0.273245  0  3.824457  0  0  -0.126454  -0.278133  0  3.81328  0
C  C42  1  0.19932631  0.20669715  0.10998651  1  0  0.17146  0  3.492719  0  0  0.098918  0  3.751218  0  0  0.116312  0  3.757081  0  0  0.186307  0.087638  0  3.74723  0
C  C43  1  0.79330054  0.80067689  0.39001278  1  0  0.171456  0  3.492673  0  0  0.098898  0  3.751201  0  0  0.116294  0  3.757062  0  0  0.186396  0.087613  0  3.747211  0
C  C44  1  0.80067348  0.79330021  0.89001315  1  0  0.171459  0  3.492581  0  0  0.098841  0  3.75117  0  0  0.116234  0  3.757036  0  0  0.186345  0.087554  0  3.747191  0
C  C45  1  0.20669835  0.19932453  0.60998691  1  0  0.171427  0  3.492632  0  0  0.098872  0  3.751156  0  0  0.116267  0  3.757018  0  0  0.186349  0.087582  0  3.747181  0
C  C46  1  0.91337518  0.25012780  0.10643915  1  0  -0.179538  0  3.580757  0  0  -0.281513  0  3.82472  0  0  -0.278547  0  3.831268  0  0  -0.131803  -0.283176  0  3.820384  0
C  C47  1  0.74987255  0.08662950  0.39355927  1  0  -0.179675  0  3.581082  0  0  -0.281622  0  3.824955  0  0  -0.27866  0  3.831512  0  0  -0.131797  -0.283288  0  3.820619  0
C  C48  1  0.08662638  0.74987090  0.89356129  1  0  -0.17958  0  3.580972  0  0  -0.281514  0  3.824834  0  0  -0.278551  0  3.831388  0  0  -0.131763  -0.283181  0  3.820505  0
C  C49  1  0.25012634  0.91337192  0.60643968  1  0  -0.17961  0  3.58098  0  0  -0.281579  0  3.824888  0  0  -0.278614  0  3.831434  0  0  -0.13181  -0.283246  0  3.820562  0
C  C50  1  0.00215332  0.28079107  0.87537590  1  0  0.616973  0  4.038362  0  0  0.569005  0  4.338503  0  0  0.603858  0  4.331884  0  0  0.192155  0.54541  0  4.342245  0
C  C51  1  0.71921119  0.99785247  0.62462106  1  0  0.616872  0  4.038095  0  0  0.568955  0  4.338219  0  0  0.603807  0  4.331598  0  0  0.192115  0.54536  0  4.341961  0
C  C52  1  0.99784470  0.71920494  0.12462521  1  0  0.616931  0  4.038461  0  0  0.569003  0  4.338599  0  0  0.603856  0  4.33198  0  0  0.192139  0.545405  0  4.342341  0
C  C53  1  0.28078999  0.00215165  0.37537793  1  0  0.616913  0  4.038142  0  0  0.568979  0  4.338262  0  0  0.60383  0  4.331641  0  0  0.192118  0.545381  0  4.342003  0
C  C54  1  0.41587948  0.27000525  0.87092615  1  0  0.633844  0  3.981696  0  0  0.582931  0  4.284173  0  0  0.617736  0  4.275596  0  0  0.20396  0.559253  0  4.289252  0
C  C55  1  0.72999315  0.58412433  0.62907334  1  0  0.633673  0  3.981921  0  0  0.582729  0  4.284419  0  0  0.617531  0  4.275847  0  0  0.203861  0.559055  0  4.289483  0
C  C56  1  0.58412261  0.72999480  0.12907281  1  0  0.633798  0  3.981802  0  0  0.582873  0  4.284273  0  0  0.617677  0  4.275695  0  0  0.203927  0.559194  0  4.289343  0
C  C57  1  0.27000554  0.41587980  0.37092637  1  0  0.633823  0  3.981804  0  0  0.582888  0  4.284275  0  0  0.617693  0  4.275699  0  0  0.203945  0.559205  0  4.289357  0
N  N58  1  0.06900366  0.23436409  0.05855102  1  0  -0.004873  0  3.547422  0  0  0.082771  0  3.781112  0  0  0.069851  0  3.80626  0  0  -0.221057  0.091144  0  3.764203  0
N  N59  1  0.76563354  0.93100121  0.44144740  1  0  -0.004908  0  3.547502  0  0  0.082753  0  3.781216  0  0  0.069832  0  3.806365  0  0  -0.221118  0.091136  0  3.764286  0
N  N60  1  0.93099562  0.76563192  0.94144787  1  0  -0.004878  0  3.547522  0  0  0.082806  0  3.781226  0  0  0.069886  0  3.806377  0  0  -0.221112  0.091185  0  3.764306  0
N  N61  1  0.23436586  0.06900156  0.55855231  1  0  -0.004919  0  3.547522  0  0  0.082727  0  3.781229  0  0  0.069808  0  3.806378  0  0  -0.221095  0.091105  0  3.764312  0
N  N62  1  0.32893484  0.21052461  0.04710985  1  0  -0.008357  0  3.558963  0  0  0.077341  0  3.79037  0  0  0.063745  0  3.812664  0  0  -0.223948  0.0861  0  3.77535  0
N  N63  1  0.78947059  0.67106743  0.45288951  1  0  -0.008275  0  3.558857  0  0  0.077395  0  3.790248  0  0  0.063799  0  3.812542  0  0  -0.22397  0.086152  0  3.77523  0
N  N64  1  0.67106620  0.78947274  0.95288982  1  0  -0.008316  0  3.558839  0  0  0.077386  0  3.790214  0  0  0.06379  0  3.812513  0  0  -0.223951  0.086146  0  3.775197  0
N  N65  1  0.21052830  0.32893399  0.54711018  1  0  -0.008266  0  3.558823  0  0  0.077404  0  3.790226  0  0  0.063808  0  3.812519  0  0  -0.223955  0.086163  0  3.77521  0
O  O66  1  0.84045147  0.26494807  0.89549885  1  0  -0.64107  0  1.989499  0  0  -0.574814  0  2.239626  0  0  -0.605687  0  2.230028  0  0  -0.330475  -0.553297  0  2.24547  0
O  O67  1  0.73505220  0.15955366  0.60449807  1  0  -0.641051  0  1.989343  0  0  -0.574855  0  2.239485  0  0  -0.605726  0  2.229883  0  0  -0.330503  -0.553339  0  2.245333  0
O  O68  1  0.15954570  0.73504253  0.10450220  1  0  -0.641054  0  1.989552  0  0  -0.574836  0  2.239711  0  0  -0.60571  0  2.230115  0  0  -0.330458  -0.553319  0  2.245556  0
O  O69  1  0.26494740  0.84044641  0.39550087  1  0  -0.641074  0  1.989209  0  0  -0.574883  0  2.239387  0  0  -0.605756  0  2.229786  0  0  -0.330522  -0.553369  0  2.245234  0
O  O70  1  0.07168660  0.31404583  0.79120729  1  0  -0.616863  0  1.943195  0  0  -0.57024  0  2.17001  0  0  -0.595677  0  2.161999  0  0  -0.320642  -0.552376  0  2.17472  0
O  O71  1  0.68596040  0.92832375  0.70879276  1  0  -0.616836  0  1.943025  0  0  -0.570209  0  2.169816  0  0  -0.595643  0  2.161796  0  0  -0.320649  -0.55235  0  2.174528  0
O  O72  1  0.92831176  0.68595424  0.20879238  1  0  -0.616876  0  1.943278  0  0  -0.570243  0  2.170066  0  0  -0.595681  0  2.16206  0  0  -0.320655  -0.55238  0  2.174771  0
O  O73  1  0.31403972  0.07167767  0.29120843  1  0  -0.616819  0  1.943189  0  0  -0.570204  0  2.170002  0  0  -0.595636  0  2.161981  0  0  -0.320619  -0.552344  0  2.174711  0
O  O74  1  0.40243732  0.13284125  0.81721256  1  0  -0.642278  0  1.968368  0  0  -0.582221  0  2.206671  0  0  -0.612159  0  2.197119  0  0  -0.316384  -0.561026  0  2.212354  0
O  O75  1  0.86715878  0.59757061  0.68278784  1  0  -0.642188  0  1.968424  0  0  -0.582113  0  2.206698  0  0  -0.612049  0  2.197149  0  0  -0.316305  -0.56093  0  2.212398  0
O  O76  1  0.59756778  0.86716013  0.18278719  1  0  -0.642293  0  1.968447  0  0  -0.582207  0  2.206694  0  0  -0.612142  0  2.197139  0  0  -0.316368  -0.561029  0  2.212409  0
O  O77  1  0.13284167  0.40243486  0.31721339  1  0  -0.642243  0  1.968407  0  0  -0.582191  0  2.206721  0  0  -0.612127  0  2.197169  0  0  -0.316362  -0.560992  0  2.212389  0
O  O78  1  0.54183594  0.42317765  0.86761500  1  0  -0.592971  0  1.955381  0  0  -0.541329  0  2.189312  0  0  -0.570398  0  2.183002  0  0  -0.302991  -0.520811  0  2.192858  0
O  O79  1  0.57682374  0.45816587  0.63238523  1  0  -0.592901  0  1.955475  0  0  -0.541254  0  2.189401  0  0  -0.57032  0  2.183091  0  0  -0.302966  -0.520738  0  2.192945  0
O  O80  1  0.45816222  0.57682513  0.13238618  1  0  -0.592946  0  1.955429  0  0  -0.541322  0  2.189397  0  0  -0.570392  0  2.183086  0  0  -0.303003  -0.520807  0  2.192943  0
O  O81  1  0.42317638  0.54183555  0.36761522  1  0  -0.592952  0  1.955457  0  0  -0.541312  0  2.189387  0  0  -0.570378  0  2.183076  0  0  -0.303001  -0.520795  0  2.192933  0
