# generated using pymatgen
data_ZnH9C24Br2N(O2F)2
_symmetry_space_group_name_H-M   'P 1'
_cell_length_a   21.57194214
_cell_length_b   21.68134899
_cell_length_c   21.90710374
_cell_angle_alpha   60.41079341
_cell_angle_beta   63.72385404
_cell_angle_gamma   89.99554524
_symmetry_Int_Tables_number   1
_chemical_formula_structural   ZnH9C24Br2N(O2F)2
_chemical_formula_sum   'Zn4 H36 C96 Br8 N4 O16 F8'
_cell_volume   7669.12695085
_cell_formula_units_Z   4
loop_
 _symmetry_equiv_pos_site_id
 _symmetry_equiv_pos_as_xyz
  1  'x, y, z'
loop_
 _atom_site_type_symbol
 _atom_site_label
 _atom_site_symmetry_multiplicity
 _atom_site_fract_x
 _atom_site_fract_y
 _atom_site_fract_z
 _atom_site_occupancy
 _atom_site_pbe_bader_charge
 _atom_site_pbe_bader_spin_density
 _atom_site_pbe_cm5_charge
 _atom_site_pbe_ddec_charge
 _atom_site_pbe_ddec_spin_density
 _atom_site_pbe_ddec_sum_bond_order
 _atom_site_pbe_magmom
Zn  Zn0  1  0.53867003  0.04267058  0.91434950  1  1.306441  0  0.666635  0.856416  0  2.372416  0
Zn  Zn1  1  0.46133479  0.95722730  0.08561357  1  1.315346  0  0.663342  0.856237  0  2.372483  0
Zn  Zn2  1  0.96258248  0.45758374  0.08469295  1  1.312494  0  0.667066  0.835116  0  2.411058  0
Zn  Zn3  1  0.03738385  0.54211883  0.91542928  1  1.299904  0  0.663745  0.832389  0  2.41834  0
H  H4  1  0.80897678  0.39329285  0.21386445  1  0.144107  0  0.136559  0.119011  0  0.960143  0
H  H5  1  0.73268017  0.31753271  0.36563822  1  0.08739  0  0.11789  0.127388  0  0.986579  0
H  H6  1  0.56962434  0.18766044  0.62568918  1  0.12196  0  0.124268  0.158359  0  0.970873  0
H  H7  1  0.77057962  0.18569069  0.62832977  1  0.103671  0  0.123218  0.157428  0  0.97873  0
H  H8  1  0.82105494  0.25035393  0.49942091  1  0.084768  0  0.111265  0.111741  0  0.99949  0
H  H9  1  0.67908805  0.25173555  0.49724845  1  0.054639  0  0.111845  0.10945  0  0.988005  0
H  H10  1  0.19018578  0.60670828  0.78650487  1  0.149989  0  0.136395  0.119688  0  0.9637  0
H  H11  1  0.26690843  0.68267400  0.63446329  1  0.075393  0  0.117994  0.127437  0  0.985962  0
H  H12  1  0.43017872  0.81258501  0.37494959  1  0.107569  0  0.124309  0.158048  0  0.971981  0
H  H13  1  0.22930144  0.81380074  0.37226334  1  0.089655  0  0.123384  0.157559  0  0.978094  0
H  H14  1  0.17891400  0.74969245  0.50047621  1  0.082751  0  0.111261  0.111577  0  1.000868  0
H  H15  1  0.32057298  0.74822579  0.50336813  1  0.051274  0  0.111758  0.108886  0  0.989112  0
H  H16  1  0.57933209  0.07397901  0.13066466  1  0.098825  0  0.104454  0.1139  0  1.004875  0
H  H17  1  0.61432299  0.10557004  0.20745189  1  0.085571  0  0.105269  0.121658  0  0.990373  0
H  H18  1  0.69784417  0.20337580  0.86945045  1  0.10756  0  0.094529  0.106716  0  1.048707  0
H  H19  1  0.91941341  0.42548674  0.87106116  1  0.087319  0  0.104708  0.114495  0  1.001731  0
H  H20  1  0.88438166  0.39381968  0.79400783  1  0.095178  0  0.106408  0.124206  0  0.987744  0
H  H21  1  0.80099959  0.29524796  0.13234104  1  0.091596  0  0.092725  0.102753  0  1.053728  0
H  H22  1  0.30112933  0.79488866  0.13153798  1  0.087663  0  0.104784  0.114194  0  1.003652  0
H  H23  1  0.19674050  0.68695391  0.20667502  1  0.0783  0  0.105944  0.123257  0  0.988584  0
H  H24  1  0.42104986  0.92620426  0.87035304  1  0.11673  0  0.094311  0.106506  0  1.049091  0
H  H25  1  0.20064100  0.70628343  0.86588161  1  0.079563  0  0.102783  0.109764  0  1.009359  0
H  H26  1  0.30480075  0.81374498  0.79100269  1  0.074964  0  0.104588  0.121522  0  0.992679  0
H  H27  1  0.08093161  0.57410892  0.12716555  1  0.130565  0  0.094386  0.106711  0  1.048486  0
H  H28  1  0.30058303  0.07327985  0.13196579  1  0.089756  0  0.104707  0.114133  0  1.003256  0
H  H29  1  0.19566059  0.10582821  0.20690484  1  0.081391  0  0.105788  0.123072  0  0.988867  0
H  H30  1  0.42116911  0.20282083  0.87079833  1  0.125184  0  0.094191  0.106029  0  1.049135  0
H  H31  1  0.20050119  0.42702165  0.86571779  1  0.100355  0  0.102769  0.10993  0  1.008414  0
H  H32  1  0.30489307  0.39435528  0.79103796  1  0.084762  0  0.104441  0.121455  0  0.99255  0
H  H33  1  0.08017246  0.29825587  0.12698752  1  0.121181  0  0.094237  0.107061  0  1.048143  0
H  H34  1  0.57869144  0.79497952  0.13091473  1  0.111612  0  0.104692  0.114287  0  1.004966  0
H  H35  1  0.61320948  0.68635187  0.20774676  1  0.102015  0  0.105167  0.121786  0  0.990764  0
H  H36  1  0.69725124  0.92607019  0.86969604  1  0.108415  0  0.094204  0.106304  0  1.049366  0
H  H37  1  0.91856609  0.70202161  0.87161713  1  0.11069  0  0.104895  0.114733  0  1.002565  0
H  H38  1  0.88357253  0.81055676  0.79446510  1  0.074796  0  0.106052  0.124033  0  0.988746  0
H  H39  1  0.80004233  0.57162000  0.13290851  1  0.128597  0  0.09256  0.102398  0  1.054027  0
C  C40  1  0.41430518  0.91358430  0.00132395  1  1.596173  0  0.217403  0.600699  0  4.157097  0
C  C41  1  0.41421045  0.08477500  0.00182851  1  1.564581  0  0.217791  0.601883  0  4.152975  0
C  C42  1  0.58518731  0.08562518  0.99988048  1  1.562261  0  0.214929  0.596807  0  4.161546  0
C  C43  1  0.58479086  0.91398318  0.00017218  1  1.555679  0  0.215224  0.596531  0  4.161991  0
C  C44  1  0.08796239  0.41691857  0.99494215  1  1.562965  0  0.216418  0.599059  0  4.156406  0
C  C45  1  0.08802814  0.58759255  0.99519081  1  1.552357  0  0.216784  0.599452  0  4.154897  0
C  C46  1  0.91245460  0.58331989  0.00348711  1  1.558768  0  0.216654  0.598876  0  4.156776  0
C  C47  1  0.91298179  0.41299298  0.00291691  1  1.569445  0  0.215516  0.597148  0  4.159749  0
C  C48  1  0.83261106  0.37381530  0.25259967  1  0.488577  0  0.059752  0.110911  0  3.917581  0
C  C49  1  0.79110367  0.33181281  0.33677165  1  0.002412  0  -0.077589  -0.17224  0  3.950443  0
C  C50  1  0.82424598  0.30785182  0.38449873  1  0.001538  0  0.004422  0.05941  0  4.056975  0
C  C51  1  0.89967784  0.32935054  0.34111401  1  0.57798  0  0.10784  0.089033  0  4.033253  0
C  C52  1  0.93775505  0.37184818  0.25593007  1  1.234002  0  0.244279  0.336915  0  4.097413  0
C  C53  1  0.78638146  0.26356296  0.47318452  1  -0.006682  0  -0.071131  -0.089381  0  3.942966  0
C  C54  1  0.71412916  0.23871004  0.52311856  1  0.046383  0  -0.068627  -0.104775  0  3.916645  0
C  C55  1  0.60094301  0.17237582  0.65589604  1  0.162442  0  -0.09199  -0.325926  0  3.920776  0
C  C56  1  0.67664459  0.19420050  0.61200467  1  -0.089584  0  0.017481  0.207486  0  4.043405  0
C  C57  1  0.71226435  0.17161474  0.65671343  1  0.055193  0  -0.091824  -0.321708  0  3.914794  0
C  C58  1  0.67062593  0.12934769  0.74092993  1  1.13557  0  0.248984  0.474839  0  4.061072  0
C  C59  1  0.56577019  0.13002950  0.74036702  1  1.057314  0  0.251254  0.479652  0  4.057456  0
C  C60  1  0.16684736  0.62621358  0.74746990  1  0.555693  0  0.058623  0.107071  0  3.92455  0
C  C61  1  0.20848639  0.66825781  0.66332117  1  -0.043369  0  -0.079096  -0.174252  0  3.955285  0
C  C62  1  0.17541042  0.69215880  0.61553935  1  0.006095  0  0.003191  0.058017  0  4.06493  0
C  C63  1  0.10001135  0.67061780  0.65871188  1  0.563958  0  0.107122  0.088128  0  4.034163  0
C  C64  1  0.06184802  0.62804420  0.74387885  1  1.238332  0  0.244716  0.335958  0  4.101284  0
C  C65  1  0.21341412  0.73645292  0.52692568  1  0.014879  0  -0.071257  -0.089657  0  3.948906  0
C  C66  1  0.28567825  0.76126620  0.47730723  1  -0.012538  0  -0.06969  -0.106596  0  3.921129  0
C  C67  1  0.39891806  0.82772952  0.34467093  1  0.053514  0  -0.093245  -0.327196  0  3.924085  0
C  C68  1  0.32324640  0.80573092  0.38849092  1  0.055259  0  0.016548  0.206676  0  4.048194  0
C  C69  1  0.28762143  0.82807702  0.34381440  1  0.131257  0  -0.092667  -0.323519  0  3.915904  0
C  C70  1  0.32928769  0.87027262  0.25960904  1  1.065952  0  0.249222  0.474607  0  4.064539  0
C  C71  1  0.43405469  0.87006184  0.26019578  1  1.076699  0  0.251841  0.47874  0  4.062662  0
C  C72  1  0.62352280  0.12068061  0.07387236  1  -0.032947  0  -0.079079  -0.137557  0  3.924084  0
C  C73  1  0.66878677  0.16585690  0.07512941  1  0.000993  0  -0.006215  0.088871  0  4.042795  0
C  C74  1  0.65839840  0.15219280  0.15047489  1  -0.029741  0  -0.096605  -0.189529  0  3.995358  0
C  C75  1  0.69066495  0.19397726  0.92606402  1  -0.037364  0  -0.084253  -0.131256  0  3.928803  0
C  C76  1  0.73724191  0.24063394  0.92433896  1  0.019784  0  -0.011709  0.029509  0  4.019915  0
C  C77  1  0.79611745  0.30271670  0.85055228  1  -0.096749  0  -0.014423  0.075587  0  3.959889  0
C  C78  1  0.87520040  0.37874321  0.92781644  1  0.021406  0  -0.078486  -0.135656  0  3.916876  0
C  C79  1  0.83000942  0.33361603  0.92636887  1  -0.001254  0  -0.005943  0.089519  0  4.039641  0
C  C80  1  0.84036559  0.34716965  0.85105854  1  0.01139  0  -0.097217  -0.193569  0  3.993804  0
C  C81  1  0.80803305  0.30504244  0.07564831  1  0.027865  0  -0.087272  -0.135114  0  3.941392  0
C  C82  1  0.76154118  0.25856175  0.07718323  1  0.032874  0  -0.012829  0.029889  0  4.023587  0
C  C83  1  0.70273466  0.19650981  0.15097518  1  -0.116264  0  -0.014643  0.074719  0  3.963914  0
C  C84  1  0.63429321  0.13465172  0.99999139  1  0.018079  0  -0.015306  -0.014674  0  3.982722  0
C  C85  1  0.72652328  0.22681893  0.99999438  1  0.04095  0  0.005949  0.009897  0  3.908593  0
C  C86  1  0.86429119  0.36451528  0.00188678  1  -0.068281  0  -0.016726  -0.019252  0  3.990392  0
C  C87  1  0.77226394  0.27258259  0.00146107  1  -0.054589  0  0.007023  0.012583  0  3.904756  0
C  C88  1  0.30898501  0.80509033  0.07429475  1  -0.031083  0  -0.078944  -0.137474  0  3.919574  0
C  C89  1  0.26303760  0.75914153  0.07449121  1  -0.053242  0  -0.00683  0.08726  0  4.043091  0
C  C90  1  0.20497067  0.69768381  0.14912438  1  0.107004  0  -0.097837  -0.192535  0  3.994876  0
C  C91  1  0.37677063  0.87930477  0.92648595  1  -0.027049  0  -0.085042  -0.1325  0  3.932822  0
C  C92  1  0.33227176  0.83496151  0.92367885  1  0.057868  0  -0.012081  0.029625  0  4.019701  0
C  C93  1  0.34105237  0.84714542  0.84917952  1  -0.169973  0  -0.01401  0.076073  0  3.962306  0
C  C94  1  0.19294029  0.69564893  0.92321446  1  0.01175  0  -0.080769  -0.140225  0  3.933501  0
C  C95  1  0.23877406  0.74148426  0.92317598  1  -0.035342  0  -0.006707  0.089031  0  4.045742  0
C  C96  1  0.29675793  0.80294296  0.84850697  1  0.068612  0  -0.099438  -0.19574  0  4.002036  0
C  C97  1  0.12520438  0.62102659  0.07102722  1  -0.032269  0  -0.084696  -0.131375  0  3.928663  0
C  C98  1  0.16963193  0.66536270  0.07397395  1  0.011107  0  -0.011718  0.029714  0  4.020366  0
C  C99  1  0.16085347  0.65322780  0.14848547  1  -0.124877  0  -0.013796  0.074207  0  3.963394  0
C  C100  1  0.36541435  0.86461416  0.00091529  1  0.001782  0  -0.015059  -0.014047  0  3.982131  0
C  C101  1  0.27418260  0.77352464  0.99873942  1  -0.005568  0  0.006653  0.012669  0  3.903659  0
C  C102  1  0.13663102  0.63595493  0.99644625  1  -0.026836  0  -0.017576  -0.017969  0  3.987715  0
C  C103  1  0.22766405  0.72690159  0.99897784  1  -0.043065  0  0.006605  0.013441  0  3.902966  0
C  C104  1  0.30855380  0.12022386  0.07467573  1  -0.048241  0  -0.078792  -0.137127  0  3.918896  0
C  C105  1  0.26250331  0.16587941  0.07475277  1  -0.010206  0  -0.007163  0.087576  0  4.04325  0
C  C106  1  0.20407326  0.15263190  0.14931813  1  0.039176  0  -0.096527  -0.191359  0  3.993448  0
C  C107  1  0.37670652  0.19364784  0.92686780  1  -0.016638  0  -0.084588  -0.130655  0  3.929584  0
C  C108  1  0.33212835  0.24071941  0.92394757  1  0.030357  0  -0.012029  0.030121  0  4.020397  0
C  C109  1  0.34109867  0.30293446  0.84938134  1  -0.160797  0  -0.014285  0.075821  0  3.96231  0
C  C110  1  0.19265894  0.38037435  0.92309333  1  -0.006242  0  -0.081519  -0.140867  0  3.932144  0
C  C111  1  0.23846747  0.33453795  0.92317643  1  -0.021501  0  -0.005533  0.090963  0  4.045612  0
C  C112  1  0.29669752  0.34770959  0.84858384  1  0.055063  0  -0.099297  -0.195756  0  4.001764  0
C  C113  1  0.12455883  0.30735723  0.07090205  1  -0.033982  0  -0.085051  -0.132375  0  3.927715  0
C  C114  1  0.16887446  0.25996896  0.07396533  1  0.007569  0  -0.011882  0.029786  0  4.019772  0
C  C115  1  0.15976097  0.19754397  0.14855341  1  -0.143052  0  -0.014598  0.074295  0  3.962247  0
C  C116  1  0.36520861  0.13404373  0.00134795  1  0.039912  0  -0.015771  -0.015856  0  3.979705  0
C  C117  1  0.27378519  0.22711040  0.99894069  1  0.006602  0  0.006359  0.010637  0  3.906336  0
C  C118  1  0.13628702  0.36703444  0.99626208  1  0.032518  0  -0.01684  -0.017852  0  3.98778  0
C  C119  1  0.22717134  0.27341240  0.99903608  1  -0.042732  0  0.006886  0.012507  0  3.906731  0
C  C120  1  0.62287092  0.80486338  0.07414129  1  -0.042723  0  -0.0792  -0.138232  0  3.925473  0
C  C121  1  0.66797669  0.75826792  0.07545063  1  0.012026  0  -0.00608  0.089309  0  4.044303  0
C  C122  1  0.65737617  0.69660637  0.15081190  1  -0.059892  0  -0.096554  -0.190326  0  3.996766  0
C  C123  1  0.69001263  0.87896813  0.92633530  1  -0.021491  0  -0.084028  -0.131856  0  3.928263  0
C  C124  1  0.73647425  0.83388801  0.92465749  1  0.06409  0  -0.011504  0.030943  0  4.01887  0
C  C125  1  0.79534001  0.84533261  0.85091072  1  -0.085956  0  -0.014693  0.07534  0  3.960454  0
C  C126  1  0.87433451  0.69215058  0.92835853  1  -0.000759  0  -0.079095  -0.136681  0  3.917288  0
C  C127  1  0.82911415  0.73871017  0.92684731  1  -0.028225  0  -0.00518  0.090713  0  4.038147  0
C  C128  1  0.83953861  0.80031102  0.85149282  1  -0.001146  0  -0.097196  -0.194018  0  3.994337  0
C  C129  1  0.80706714  0.61835114  0.07619163  1  -0.068773  0  -0.086669  -0.134605  0  3.940888  0
C  C130  1  0.76048748  0.66323902  0.07766291  1  0.03695  0  -0.012951  0.030294  0  4.023479  0
C  C131  1  0.70152949  0.65160460  0.15139676  1  -0.102677  0  -0.015161  0.074764  0  3.962512  0
C  C132  1  0.63372630  0.86466903  0.00024199  1  0.00614  0  -0.014786  -0.013533  0  3.98139  0
C  C133  1  0.72569118  0.77218790  0.00034145  1  -0.004686  0  0.005679  0.009546  0  3.909325  0
C  C134  1  0.86347324  0.63255083  0.00245696  1  0.027202  0  -0.017208  -0.019037  0  3.989755  0
C  C135  1  0.77132866  0.72485048  0.00190080  1  -0.027509  0  0.006492  0.010899  0  3.906466  0
Br  Br136  1  0.68545109  0.17446024  0.25402945  1  -0.094956  0  -0.007798  -0.105039  0  1.333646  0
Br  Br137  1  0.81361284  0.32466135  0.74750513  1  -0.088911  0  -0.003256  -0.098891  0  1.330141  0
Br  Br138  1  0.08514413  0.57206163  0.25069580  1  -0.088413  0  -0.001524  -0.096629  0  1.332795  0
Br  Br139  1  0.41722286  0.92785235  0.74693888  1  -0.090214  0  -0.005099  -0.10114  0  1.33255  0
Br  Br140  1  0.08310425  0.17601702  0.25063833  1  -0.092202  0  -0.001544  -0.096686  0  1.332903  0
Br  Br141  1  0.41774075  0.32450609  0.74724944  1  -0.087121  0  -0.005176  -0.10128  0  1.333029  0
Br  Br142  1  0.68358284  0.57037237  0.25455097  1  -0.096814  0  -0.007569  -0.104826  0  1.331725  0
Br  Br143  1  0.81296497  0.92618423  0.74778485  1  -0.089356  0  -0.00288  -0.098605  0  1.330703  0
N  N144  1  0.90559287  0.39364043  0.21257074  1  -1.267566  0  -0.309876  -0.266071  0  3.494988  0
N  N145  1  0.59849798  0.10800553  0.78386099  1  -1.285971  0  -0.309597  -0.386062  0  3.405152  0
N  N146  1  0.09392120  0.60633840  0.78725767  1  -1.29518  0  -0.30865  -0.260569  0  3.49577  0
N  N147  1  0.40135952  0.89179248  0.21672783  1  -1.290009  0  -0.309143  -0.384379  0  3.407449  0
O  O148  1  0.46422543  0.96711109  0.93224559  1  -1.175979  0  -0.318256  -0.546991  0  2.334235  0
O  O149  1  0.40170755  0.89760501  0.07077753  1  -1.161341  0  -0.321748  -0.556244  0  2.338644  0
O  O150  1  0.40153906  0.03142936  0.07130317  1  -1.163645  0  -0.322446  -0.557008  0  2.339153  0
O  O151  1  0.46428332  0.10028843  0.93276796  1  -1.173867  0  -0.317569  -0.546791  0  2.334543  0
O  O152  1  0.53511093  0.03228529  0.06915792  1  -1.163441  0  -0.320863  -0.555549  0  2.34078  0
O  O153  1  0.59767573  0.10131294  0.93062784  1  -1.156601  0  -0.316638  -0.543612  0  2.338286  0
O  O154  1  0.59723017  0.96738943  0.93094264  1  -1.163195  0  -0.316894  -0.543401  0  2.339151  0
O  O155  1  0.53488701  0.89833238  0.06947652  1  -1.166441  0  -0.320806  -0.555385  0  2.340073  0
O  O156  1  0.03653936  0.40067348  0.06369641  1  -1.169677  0  -0.316145  -0.543418  0  2.339121  0
O  O157  1  0.10205276  0.47151398  0.92533554  1  -1.176691  0  -0.322175  -0.555466  0  2.31822  0
O  O158  1  0.10210291  0.60244214  0.92558696  1  -1.159264  0  -0.321797  -0.555533  0  2.319003  0
O  O159  1  0.03639379  0.53545862  0.06392533  1  -1.152978  0  -0.316665  -0.543853  0  2.335958  0
O  O160  1  0.96420238  0.60015664  0.93452982  1  -1.172708  0  -0.32093  -0.55449  0  2.343258  0
O  O161  1  0.89866841  0.52878140  0.07287460  1  -1.170417  0  -0.317024  -0.542956  0  2.312906  0
O  O162  1  0.89920042  0.39822619  0.07232498  1  -1.161191  0  -0.316972  -0.542755  0  2.315102  0
O  O163  1  0.96444805  0.46527502  0.93395499  1  -1.172732  0  -0.320355  -0.553126  0  2.344307  0
F  F164  1  0.00957211  0.39152745  0.21618511  1  -0.632819  0  -0.054866  -0.09424  0  1.376751  0
F  F165  1  0.93697536  0.30957866  0.38047609  1  -0.619984  0  -0.08162  -0.100991  0  1.366359  0
F  F166  1  0.70328924  0.10717045  0.78459384  1  -0.626345  0  -0.058766  -0.114068  0  1.356585  0
F  F167  1  0.49381405  0.10882270  0.78309585  1  -0.6303  0  -0.0581  -0.114429  0  1.352294  0
F  F168  1  0.98999491  0.60829099  0.78342313  1  -0.626186  0  -0.056451  -0.095775  0  1.374285  0
F  F169  1  0.06285666  0.69043577  0.61915936  1  -0.616698  0  -0.082145  -0.101535  0  1.363144  0
F  F170  1  0.29649208  0.89208093  0.21604324  1  -0.621243  0  -0.060078  -0.11493  0  1.356671  0
F  F171  1  0.50605015  0.89148295  0.21758915  1  -0.627932  0  -0.059241  -0.11506  0  1.350134  0
