# generated using pymatgen
data_AgH4C7N4
_symmetry_space_group_name_H-M   'P 1'
_cell_length_a   6.14425256
_cell_length_b   7.49354679
_cell_length_c   8.04246190
_cell_angle_alpha   88.22221801
_cell_angle_beta   82.77962535
_cell_angle_gamma   78.99253458
_symmetry_Int_Tables_number   1
_chemical_formula_structural   AgH4C7N4
_chemical_formula_sum   'Ag2 H8 C14 N8'
_cell_volume   360.58870144
_cell_formula_units_Z   2
loop_
 _symmetry_equiv_pos_site_id
 _symmetry_equiv_pos_as_xyz
  1  'x, y, z'
loop_
 _atom_site_type_symbol
 _atom_site_label
 _atom_site_symmetry_multiplicity
 _atom_site_fract_x
 _atom_site_fract_y
 _atom_site_fract_z
 _atom_site_occupancy
 _atom_site_pbe_bader_spin_density
 _atom_site_pbe_cm5_charge
 _atom_site_pbe_ddec_charge
 _atom_site_pbe_ddec_spin_density
 _atom_site_pbe_ddec_sum_bond_order
 _atom_site_pbe_magmom
Ag  Ag0  1  0.83659505  0.39001286  0.61270592  1  0  0.50196  0.421695  0  2.04016  0
Ag  Ag1  1  0.16340338  0.60998645  0.38729337  1  0  0.501942  0.421658  0  2.040268  0
H  H2  1  0.57047476  0.31645284  0.33859143  1  0  0.109253  0.086013  0  1.051461  0
H  H3  1  0.42952488  0.68355468  0.66140758  1  0  0.109267  0.086075  0  1.051429  0
H  H4  1  0.63108512  0.16789729  0.06208928  1  0  0.105137  0.108714  0  1.05765  0
H  H5  1  0.36891227  0.83210611  0.93791001  1  0  0.105151  0.108724  0  1.057677  0
H  H6  1  0.22127087  0.11527746  0.42794568  1  0  0.115407  0.101276  0  1.004517  0
H  H7  1  0.77872756  0.88472185  0.57205361  1  0  0.115386  0.101288  0  1.00448  0
H  H8  1  0.30746454  0.94634922  0.16109198  1  0  0.105577  0.110841  0  1.043592  0
H  H9  1  0.69253094  0.05364868  0.83890883  1  0  0.105598  0.110857  0  1.043633  0
C  C10  1  0.68024769  0.67721409  0.25408590  1  0  0.282481  0.416706  0  4.318692  0
C  C11  1  0.31975190  0.32278803  0.74590079  1  0  0.282509  0.416726  0  4.31891  0
C  C12  1  0.73217962  0.59346491  0.97249705  1  0  0.31155  0.455794  0  4.256953  0
C  C13  1  0.26782565  0.40653312  0.02750417  1  0  0.311448  0.455567  0  4.257209  0
C  C14  1  0.97730008  0.04372885  0.08296976  1  0  0.015893  0.109521  0  3.951482  0
C  C15  1  0.02270058  0.95626774  0.91703437  1  0  0.015868  0.109532  0  3.951435  0
C  C16  1  0.73212366  0.23511161  0.29245507  1  0  0.040416  0.094301  0  3.911275  0
C  C17  1  0.26787827  0.76489320  0.70754504  1  0  0.040376  0.094211  0  3.911308  0
C  C18  1  0.76780204  0.14919384  0.13848297  1  0  -0.081479  -0.151807  0  3.903547  0
C  C19  1  0.23219368  0.85080951  0.86151895  1  0  -0.081434  -0.151753  0  3.90359  0
C  C20  1  0.09462644  0.11978817  0.34369498  1  0  0.041618  0.085468  0  3.944732  0
C  C21  1  0.90537196  0.88021114  0.65630555  1  0  0.04162  0.08547  0  3.944687  0
C  C22  1  0.14102072  0.02703725  0.19269970  1  0  -0.082905  -0.173153  0  3.949764  0
C  C23  1  0.85897439  0.97296200  0.80730235  1  0  -0.082911  -0.173203  0  3.949748  0
N  N24  1  0.67605677  0.67010761  0.40176971  1  0  -0.380228  -0.564139  0  3.027611  0
N  N25  1  0.32394082  0.32989438  0.59823829  1  0  -0.380184  -0.564002  0  3.028239  0
N  N26  1  0.77400700  0.51005943  0.84683485  1  0  -0.425691  -0.511654  0  3.338991  0
N  N27  1  0.22599683  0.48994402  0.15317010  1  0  -0.425693  -0.511614  0  3.339  0
N  N28  1  0.67560657  0.70558262  0.09513003  1  0  -0.30869  -0.387408  0  3.61943  0
N  N29  1  0.32439265  0.29441939  0.90487783  1  0  -0.308685  -0.387367  0  3.619237  0
N  N30  1  0.89384576  0.22368198  0.39335301  1  0  -0.35027  -0.202158  0  3.633341  0
N  N31  1  0.10615555  0.77631873  0.60664849  1  0  -0.350286  -0.202179  0  3.633284  0
