# generated using pymatgen
data_Cu2H19C12I3(NO)2
_symmetry_space_group_name_H-M   'P 1'
_cell_length_a   8.46399306
_cell_length_b   8.69339862
_cell_length_c   12.95452347
_cell_angle_alpha   107.82242318
_cell_angle_beta   91.75131857
_cell_angle_gamma   96.85668001
_symmetry_Int_Tables_number   1
_chemical_formula_structural   Cu2H19C12I3(NO)2
_chemical_formula_sum   'Cu4 H38 C24 I6 N4 O4'
_cell_volume   898.69692313
_cell_formula_units_Z   2
loop_
 _symmetry_equiv_pos_site_id
 _symmetry_equiv_pos_as_xyz
  1  'x, y, z'
loop_
 _atom_site_type_symbol
 _atom_site_label
 _atom_site_symmetry_multiplicity
 _atom_site_fract_x
 _atom_site_fract_y
 _atom_site_fract_z
 _atom_site_occupancy
 _atom_site_hle17_bader_spin_density
 _atom_site_hle17_ddec_charge
 _atom_site_hle17_ddec_spin_density
 _atom_site_hle17_ddec_sum_bond_order
 _atom_site_hle17_magmom
 _atom_site_hse06_10hf_bader_spin_density
 _atom_site_hse06_10hf_ddec_charge
 _atom_site_hse06_10hf_ddec_spin_density
 _atom_site_hse06_10hf_ddec_sum_bond_order
 _atom_site_hse06_10hf_magmom
 _atom_site_hse06_bader_spin_density
 _atom_site_hse06_ddec_charge
 _atom_site_hse06_ddec_spin_density
 _atom_site_hse06_ddec_sum_bond_order
 _atom_site_hse06_magmom
 _atom_site_pbe_bader_spin_density
 _atom_site_pbe_cm5_charge
 _atom_site_pbe_ddec_charge
 _atom_site_pbe_ddec_spin_density
 _atom_site_pbe_ddec_sum_bond_order
 _atom_site_pbe_magmom
Cu  Cu0  1  0.47606964  0.78239670  0.66651106  1  0  0.273848  0  2.152319  0  0  0.192626  0  2.623379  0  0  0.203487  0  2.57158  0  0  0.25595  0.187798  0  2.656716  0
Cu  Cu1  1  0.52392897  0.21760352  0.33349123  1  0  0.273798  0  2.152337  0  0  0.192593  0  2.623376  0  0  0.203454  0  2.571595  0  0  0.255962  0.187774  0  2.656692  0
Cu  Cu2  1  0.40630772  0.97456490  0.57500136  1  0  0.197182  0  2.157512  0  0  0.132091  0  2.62594  0  0  0.153401  0  2.56512  0  0  0.122367  0.118592  0  2.666677  0
Cu  Cu3  1  0.59369499  0.02543046  0.42499693  1  0  0.197196  0  2.157469  0  0  0.132102  0  2.625884  0  0  0.153425  0  2.565068  0  0  0.122358  0.118605  0  2.666617  0
H  H4  1  0.51864897  0.82786936  0.89712460  1  0  0.06947  0  0.969904  0  0  0.074719  0  1.042884  0  0  0.078017  0  1.039641  0  0  0.098812  0.072131  0  1.045515  0
H  H5  1  0.48133955  0.17212595  0.10287956  1  0  0.069363  0  0.969801  0  0  0.074577  0  1.042847  0  0  0.077869  0  1.039599  0  0  0.098753  0.071987  0  1.045476  0
H  H6  1  0.65453060  0.49709923  0.61911751  1  0  0.084231  0  0.969077  0  0  0.087959  0  1.044271  0  0  0.091284  0  1.041007  0  0  0.099657  0.085255  0  1.047054  0
H  H7  1  0.34546777  0.50290831  0.38088472  1  0  0.084381  0  0.969127  0  0  0.088093  0  1.044332  0  0  0.091412  0  1.041075  0  0  0.099696  0.085386  0  1.047115  0
H  H8  1  0.95639288  0.35021569  0.84053508  1  0  0.269693  0  0.853547  0  0  0.252332  0  0.914697  0  0  0.25993  0  0.908196  0  0  0.32522  0.246907  0  0.919425  0
H  H9  1  0.04360944  0.64978576  0.15946367  1  0  0.269678  0  0.853608  0  0  0.25232  0  0.914767  0  0  0.25992  0  0.908265  0  0  0.325228  0.246904  0  0.919475  0
H  H10  1  0.78611453  0.27055940  0.62453087  1  0  0.092263  0  0.988967  0  0  0.103485  0  1.058085  0  0  0.105867  0  1.056393  0  0  0.091917  0.101554  0  1.059515  0
H  H11  1  0.21388558  0.72944327  0.37546809  1  0  0.092329  0  0.989109  0  0  0.103544  0  1.058146  0  0  0.105927  0  1.056457  0  0  0.091939  0.101611  0  1.059577  0
H  H12  1  0.71036870  0.18808061  0.72614868  1  0  0.084001  0  1.000217  0  0  0.097196  0  1.06738  0  0  0.098244  0  1.067242  0  0  0.093359  0.096176  0  1.067766  0
H  H13  1  0.28963141  0.81192206  0.27385104  1  0  0.083995  0  1.00029  0  0  0.097146  0  1.067468  0  0  0.098196  0  1.06733  0  0  0.093328  0.096125  0  1.067852  0
H  H14  1  0.74892315  0.42889101  0.93178062  1  0  0.108346  0  0.961897  0  0  0.113046  0  1.033358  0  0  0.117746  0  1.027841  0  0  0.105978  0.109418  0  1.037706  0
H  H15  1  0.25108153  0.57111046  0.06822050  1  0  0.108398  0  0.961835  0  0  0.113085  0  1.033309  0  0  0.117784  0  1.02779  0  0  0.105964  0.109453  0  1.037658  0
H  H16  1  0.12747842  0.14532401  0.75278324  1  0  0.085737  0  0.968607  0  0  0.095119  0  1.041215  0  0  0.097035  0  1.039989  0  0  0.096207  0.093542  0  1.042348  0
H  H17  1  0.87252272  0.85467744  0.24721627  1  0  0.08573  0  0.968644  0  0  0.095107  0  1.041254  0  0  0.097022  0  1.040029  0  0  0.096194  0.09353  0  1.04239  0
H  H18  1  0.96443144  0.05972128  0.65246329  1  0  0.100518  0  0.9282  0  0  0.112651  0  0.994004  0  0  0.113945  0  0.993811  0  0  0.106295  0.11156  0  0.994348  0
H  H19  1  0.03557087  0.94028018  0.34753623  1  0  0.100534  0  0.928185  0  0  0.112675  0  0.993964  0  0  0.113969  0  0.993771  0  0  0.106294  0.111584  0  0.994309  0
H  H20  1  0.78469714  0.02386063  0.79442569  1  0  0.048231  0  0.981477  0  0  0.054133  0  1.060919  0  0  0.055278  0  1.05976  0  0  0.085784  0.053126  0  1.061918  0
H  H21  1  0.21530384  0.97613960  0.20557279  1  0  0.048272  0  0.981462  0  0  0.054171  0  1.060891  0  0  0.055317  0  1.059733  0  0  0.085766  0.053163  0  1.06188  0
H  H22  1  0.96321617  0.93995062  0.80892402  1  0  0.063657  0  0.92968  0  0  0.078947  0  0.992647  0  0  0.079464  0  0.99254  0  0  0.10014  0.078424  0  0.992894  0
H  H23  1  0.03678465  0.06004839  0.19107266  1  0  0.063704  0  0.929682  0  0  0.078979  0  0.992647  0  0  0.079496  0  0.992543  0  0  0.100149  0.078456  0  0.992893  0
H  H24  1  0.00293414  0.50051097  0.69826125  1  0  0.088979  0  0.945509  0  0  0.101284  0  1.01245  0  0  0.102185  0  1.012843  0  0  0.103994  0.100534  0  1.012338  0
H  H25  1  0.99706920  0.49948927  0.30173728  1  0  0.088935  0  0.945549  0  0  0.10126  0  1.012466  0  0  0.102153  0  1.012861  0  0  0.103989  0.100511  0  1.012354  0
H  H26  1  0.10291249  0.33198840  0.63573954  1  0  0.100085  0  0.945206  0  0  0.115668  0  1.006855  0  0  0.117116  0  1.006589  0  0  0.09977  0.114449  0  1.007257  0
H  H27  1  0.89708849  0.66801183  0.36425894  1  0  0.100128  0  0.94515  0  0  0.115705  0  1.006815  0  0  0.117164  0  1.006523  0  0  0.099787  0.114487  0  1.007217  0
H  H28  1  0.27363292  0.38963660  0.81200184  1  0  0.06861  0  0.940665  0  0  0.081002  0  1.006236  0  0  0.081299  0  1.00643  0  0  0.09665  0.080694  0  1.006189  0
H  H29  1  0.72636924  0.61036364  0.18799589  1  0  0.068661  0  0.940638  0  0  0.081022  0  1.006193  0  0  0.08132  0  1.006389  0  0  0.096646  0.080717  0  1.006151  0
H  H30  1  0.29143169  0.55399418  0.75600368  1  0  0.061777  0  0.972937  0  0  0.070267  0  1.048017  0  0  0.071415  0  1.046898  0  0  0.093244  0.069281  0  1.048924  0
H  H31  1  0.70856960  0.44600849  0.24399762  1  0  0.061807  0  0.972982  0  0  0.070274  0  1.048027  0  0  0.071423  0  1.046907  0  0  0.093253  0.069284  0  1.04893  0
H  H32  1  0.86055010  0.01597870  0.00970702  1  0  0.058564  0  0.932731  0  0  0.071124  0  1.000572  0  0  0.071487  0  1.00072  0  0  0.097687  0.070746  0  1.00066  0
H  H33  1  0.13944805  0.98401786  0.99029064  1  0  0.058605  0  0.93271  0  0  0.07112  0  1.000598  0  0  0.071483  0  1.000749  0  0  0.09769  0.070749  0  1.000677  0
H  H34  1  0.71769622  0.12750778  0.97066670  1  0  0.048451  0  0.960995  0  0  0.057568  0  1.037476  0  0  0.058415  0  1.036717  0  0  0.086332  0.056858  0  1.038086  0
H  H35  1  0.28230177  0.87248756  0.02932917  1  0  0.048457  0  0.961034  0  0  0.057574  0  1.037513  0  0  0.058422  0  1.036756  0  0  0.086339  0.056864  0  1.038122  0
H  H36  1  0.98952735  0.71780790  0.86909132  1  0  0.046734  0  0.942276  0  0  0.05786  0  1.012903  0  0  0.058203  0  1.012883  0  0  0.091218  0.057555  0  1.01308  0
H  H37  1  0.01046977  0.28218988  0.13090734  1  0  0.046707  0  0.942252  0  0  0.057819  0  1.012931  0  0  0.058188  0  1.012889  0  0  0.0912  0.057515  0  1.013104  0
H  H38  1  0.18342044  0.77559377  0.83044388  1  0  0.051976  0  0.973916  0  0  0.060345  0  1.052325  0  0  0.06096  0  1.051482  0  0  0.08881  0.059694  0  1.053148  0
H  H39  1  0.81657534  0.22440278  0.16955373  1  0  0.051995  0  0.973837  0  0  0.060359  0  1.052274  0  0  0.060964  0  1.051458  0  0  0.088825  0.059709  0  1.053095  0
H  H40  1  0.62605819  0.68131274  0.01611293  1  0  0.10134  0  0.998472  0  0  0.110186  0  1.060853  0  0  0.113615  0  1.059923  0  0  0.087805  0.107652  0  1.061767  0
H  H41  1  0.37393727  0.31868138  0.98388958  1  0  0.10137  0  0.998568  0  0  0.110208  0  1.060934  0  0  0.113635  0  1.060009  0  0  0.087818  0.107671  0  1.061848  0
C  C42  1  0.57449197  0.71812324  0.86302992  1  0  0.115547  0  3.676892  0  0  0.085836  0  3.922519  0  0  0.092914  0  3.939225  0  0  0.035727  0.080977  0  3.911972  0
C  C43  1  0.42549513  0.28187938  0.13697880  1  0  0.115557  0  3.677546  0  0  0.085845  0  3.923249  0  0  0.092925  0  3.939959  0  0  0.035674  0.080992  0  3.912688  0
C  C44  1  0.65014648  0.53409442  0.70740287  1  0  0.077529  0  3.634498  0  0  0.041492  0  3.878288  0  0  0.048883  0  3.893134  0  0  0.039111  0.036282  0  3.869327  0
C  C45  1  0.34984629  0.46591554  0.29260593  1  0  0.077276  0  3.634069  0  0  0.041245  0  3.877962  0  0  0.048682  0  3.89273  0  0  0.03899  0.036036  0  3.869006  0
C  C46  1  0.78269245  0.29268073  0.71245579  1  0  -0.060978  0  3.577345  0  0  -0.120971  0  3.802506  0  0  -0.118612  0  3.814484  0  0  -0.071139  -0.122325  0  3.794839  0
C  C47  1  0.21730726  0.70732802  0.28754750  1  0  -0.061177  0  3.577448  0  0  -0.120975  0  3.802444  0  0  -0.118624  0  3.814432  0  0  -0.07113  -0.122315  0  3.794774  0
C  C48  1  0.71380153  0.44500257  0.76783028  1  0  0.020326  0  3.759965  0  0  0.0466  0  3.996398  0  0  0.041054  0  4.021079  0  0  -0.013477  0.049759  0  3.980447  0
C  C49  1  0.28620331  0.55500011  0.23217033  1  0  0.020713  0  3.760202  0  0  0.046844  0  3.99675  0  0  0.041287  0  4.021444  0  0  -0.01334  0.049996  0  3.980807  0
C  C50  1  0.70401516  0.49588946  0.88074193  1  0  -0.057517  0  3.684906  0  0  -0.088519  0  3.939579  0  0  -0.082431  0  3.952949  0  0  -0.073919  -0.092801  0  3.931259  0
C  C51  1  0.29598384  0.50412296  0.11926750  1  0  -0.057749  0  3.68466  0  0  -0.08871  0  3.939375  0  0  -0.082621  0  3.952747  0  0  -0.073982  -0.092993  0  3.931054  0
C  C52  1  0.99738562  0.13187606  0.73758685  1  0  -0.039464  0  3.538178  0  0  -0.100602  0  3.787845  0  0  -0.098732  0  3.798368  0  0  -0.068411  -0.101738  0  3.780933  0
C  C53  1  0.00261552  0.86812539  0.26241188  1  0  -0.03948  0  3.538332  0  0  -0.100579  0  3.787903  0  0  -0.098709  0  3.79843  0  0  -0.068394  -0.101726  0  3.781027  0
C  C54  1  0.91462158  0.05440078  0.81496942  1  0  0.05869  0  3.643705  0  0  0.00372  0  3.90796  0  0  0.009936  0  3.91415  0  0  -0.07583  -0.000292  0  3.903587  0
C  C55  1  0.08537940  0.94559944  0.18502828  1  0  0.05846  0  3.643884  0  0  0.003531  0  3.908102  0  0  0.00975  0  3.914279  0  0  -0.075899  -0.000485  0  3.903726  0
C  C56  1  0.06665486  0.40641386  0.71401346  1  0  -0.055159  0  3.560072  0  0  -0.116575  0  3.809621  0  0  -0.114464  0  3.82002  0  0  -0.075367  -0.117903  0  3.802699  0
C  C57  1  0.93334494  0.59358637  0.28598422  1  0  -0.055102  0  3.56009  0  0  -0.116605  0  3.809707  0  0  -0.114471  0  3.820065  0  0  -0.075354  -0.11793  0  3.802789  0
C  C58  1  0.20978738  0.48270729  0.79420395  1  0  0.052371  0  3.646759  0  0  -0.003116  0  3.911592  0  0  0.00302  0  3.918258  0  0  -0.080459  -0.007117  0  3.906894  0
C  C59  1  0.79021596  0.51729295  0.20579535  1  0  0.052214  0  3.646991  0  0  -0.003106  0  3.911612  0  0  0.003016  0  3.918279  0  0  -0.080446  -0.00711  0  3.906918  0
C  C60  1  0.84340001  0.13476198  0.99955740  1  0  0.054343  0  3.656493  0  0  -0.005173  0  3.929239  0  0  0.000696  0  3.935052  0  0  -0.079821  -0.009078  0  3.925197  0
C  C61  1  0.15659947  0.86523580  0.00044055  1  0  0.054339  0  3.6565  0  0  -0.005177  0  3.929238  0  0  0.000688  0  3.935052  0  0  -0.079829  -0.009093  0  3.925193  0
C  C62  1  0.11868550  0.73460622  0.89208183  1  0  0.049687  0  3.663263  0  0  -0.008092  0  3.933244  0  0  -0.001506  0  3.938271  0  0  -0.08298  -0.012486  0  3.929756  0
C  C63  1  0.88131178  0.26539277  0.10791632  1  0  0.049773  0  3.663149  0  0  -0.008083  0  3.933306  0  0  -0.001523  0  3.93833  0  0  -0.082995  -0.012484  0  3.929813  0
C  C64  1  0.63510677  0.63574831  0.92854076  1  0  -0.100229  0  3.736343  0  0  -0.108992  0  3.980476  0  0  -0.116155  0  4.000647  0  0  -0.086259  -0.104671  0  3.967646  0
C  C65  1  0.36490234  0.36423246  0.07145852  1  0  -0.100288  0  3.73595  0  0  -0.109006  0  3.980042  0  0  -0.116167  0  4.000212  0  0  -0.086247  -0.104688  0  3.967209  0
I  I66  1  0.18354280  0.71425995  0.57606225  1  0  -0.453387  0  1.373912  0  0  -0.397279  0  1.757142  0  0  -0.416084  0  1.726084  0  0  -0.231123  -0.38383  0  1.777798  0
I  I67  1  0.81645787  0.28573784  0.42393572  1  0  -0.453355  0  1.373915  0  0  -0.397256  0  1.757152  0  0  -0.416065  0  1.726102  0  0  -0.231115  -0.383811  0  1.777804  0
I  I68  1  0.67441931  0.82143602  0.51372313  1  0  -0.332958  0  1.677061  0  0  -0.275718  0  2.114584  0  0  -0.29163  0  2.073161  0  0  -0.170864  -0.265056  0  2.142457  0
I  I69  1  0.32558419  0.17856544  0.48628182  1  0  -0.332956  0  1.677032  0  0  -0.275721  0  2.114553  0  0  -0.291631  0  2.073127  0  0  -0.170876  -0.265064  0  2.14242  0
I  I70  1  0.43771993  0.08178991  0.80127817  1  0  -0.468389  0  1.385037  0  0  -0.41124  0  1.762296  0  0  -0.428049  0  1.729882  0  0  -0.202598  -0.398841  0  1.784032  0
I  I71  1  0.56227900  0.91821275  0.19872154  1  0  -0.468407  0  1.385058  0  0  -0.411246  0  1.762325  0  0  -0.428058  0  1.729913  0  0  -0.202604  -0.398849  0  1.784059  0
N  N72  1  0.57966327  0.66795135  0.75364117  1  0  -0.264805  0  3.397624  0  0  -0.186291  0  3.683656  0  0  -0.199639  0  3.692496  0  0  -0.369057  -0.178324  0  3.67804  0
N  N73  1  0.42033495  0.33203668  0.24635475  1  0  -0.264643  0  3.397297  0  0  -0.186123  0  3.683316  0  0  -0.199482  0  3.692171  0  0  -0.368973  -0.178158  0  3.677689  0
N  N74  1  0.95102243  0.29947360  0.75653701  1  0  -0.077275  0  3.348288  0  0  0.011748  0  3.552112  0  0  -0.000432  0  3.569903  0  0  -0.34661  0.01993  0  3.540044  0
N  N75  1  0.04897736  0.70052663  0.24345990  1  0  -0.07722  0  3.348272  0  0  0.011713  0  3.552196  0  0  -0.000475  0  3.569982  0  0  -0.34664  0.019899  0  3.54013  0
O  O76  1  0.94676545  0.17020377  0.92147750  1  0  -0.314004  0  2.22257  0  0  -0.246233  0  2.474258  0  0  -0.261365  0  2.474355  0  0  -0.237985  -0.235443  0  2.47368  0
O  O77  1  0.05323640  0.82979402  0.07852127  1  0  -0.313877  0  2.222579  0  0  -0.246144  0  2.474276  0  0  -0.261274  0  2.474374  0  0  -0.237909  -0.235352  0  2.4737  0
O  O78  1  0.16651680  0.58310687  0.89663326  1  0  -0.308087  0  2.200237  0  0  -0.240212  0  2.448105  0  0  -0.255815  0  2.448134  0  0  -0.236131  -0.228985  0  2.447536  0
O  O79  1  0.83348031  0.41689091  0.10336617  1  0  -0.308057  0  2.200282  0  0  -0.240177  0  2.448111  0  0  -0.255772  0  2.448143  0  0  -0.236114  -0.22895  0  2.447541  0
