# generated using pymatgen
data_NdPH15C7NO7
_symmetry_space_group_name_H-M   'P 1'
_cell_length_a   5.04912389
_cell_length_b   12.62813229
_cell_length_c   20.75960269
_cell_angle_alpha   90.00059893
_cell_angle_beta   81.10764069
_cell_angle_gamma   89.99807347
_symmetry_Int_Tables_number   1
_chemical_formula_structural   NdPH15C7NO7
_chemical_formula_sum   'Nd4 P4 H60 C28 N4 O28'
_cell_volume   1307.74345529
_cell_formula_units_Z   4
loop_
 _symmetry_equiv_pos_site_id
 _symmetry_equiv_pos_as_xyz
  1  'x, y, z'
loop_
 _atom_site_type_symbol
 _atom_site_label
 _atom_site_symmetry_multiplicity
 _atom_site_fract_x
 _atom_site_fract_y
 _atom_site_fract_z
 _atom_site_occupancy
 _atom_site_pbe_bader_charge
 _atom_site_pbe_bader_spin_density
 _atom_site_pbe_cm5_charge
 _atom_site_pbe_ddec_charge
 _atom_site_pbe_ddec_spin_density
 _atom_site_pbe_ddec_sum_bond_order
 _atom_site_pbe_magmom
Nd  Nd0  1  0.49221079  0.85182615  0.02087038  1  2.248063  0  1.502206  2.189283  0  2.036272  0
Nd  Nd1  1  0.50782411  0.35182229  0.47912401  1  2.248234  0  1.502229  2.189215  0  2.036376  0
Nd  Nd2  1  0.50778846  0.14817464  0.97912858  1  2.248108  0  1.502263  2.189318  0  2.036282  0
Nd  Nd3  1  0.49218192  0.64817058  0.52087688  1  2.248217  0  1.502245  2.189234  0  2.036522  0
P  P4  1  0.06723218  0.97265193  0.91487592  1  3.312059  0  0.340684  1.359446  0  5.374421  0
P  P5  1  0.93276511  0.47264120  0.58512158  1  3.312656  0  0.340586  1.359343  0  5.374186  0
P  P6  1  0.93278527  0.02734886  0.08511910  1  3.312503  0  0.340709  1.359561  0  5.374373  0
P  P7  1  0.06724009  0.52734217  0.41487736  1  3.312007  0  0.340634  1.359451  0  5.374089  0
H  H8  1  0.55786385  0.81135079  0.88062243  1  0.620434  0  0.316767  0.397267  0  0.919571  0
H  H9  1  0.44211047  0.31134595  0.61937494  1  0.620311  0  0.316731  0.397235  0  0.919472  0
H  H10  1  0.44211925  0.18865317  0.11937706  1  0.620426  0  0.316738  0.397179  0  0.919715  0
H  H11  1  0.55789527  0.68865485  0.38062643  1  0.620279  0  0.316744  0.397242  0  0.91969  0
H  H12  1  0.28295846  0.75716260  0.90701258  1  0.627688  0  0.323435  0.408445  0  0.89018  0
H  H13  1  0.71702268  0.25714835  0.59299152  1  0.62774  0  0.323408  0.408415  0  0.890239  0
H  H14  1  0.71702313  0.24285007  0.09299275  1  0.627796  0  0.323385  0.408338  0  0.890296  0
H  H15  1  0.28296521  0.74284056  0.40700989  1  0.627706  0  0.323373  0.408367  0  0.89028  0
H  H16  1  0.32985664  0.62521034  0.04817502  1  0.596978  0  0.325043  0.412677  0  0.879794  0
H  H17  1  0.67024108  0.12521114  0.45182810  1  0.596982  0  0.32488  0.412329  0  0.880312  0
H  H18  1  0.67013705  0.37478887  0.95183661  1  0.596438  0  0.325109  0.412671  0  0.87985  0
H  H19  1  0.32974033  0.87477461  0.54817090  1  0.597062  0  0.324931  0.412503  0  0.880142  0
H  H20  1  0.03782647  0.67831025  0.04522818  1  0.646983  0  0.295285  0.401547  0  0.943048  0
H  H21  1  0.96225934  0.17829557  0.45477357  1  0.647291  0  0.295282  0.401367  0  0.943339  0
H  H22  1  0.96218149  0.32170796  0.95477611  1  0.647017  0  0.295278  0.401473  0  0.943117  0
H  H23  1  0.03773764  0.82169017  0.54522588  1  0.647387  0  0.295284  0.401453  0  0.943245  0
H  H24  1  0.25650812  0.03614168  0.81210457  1  0.089931  0  0.121784  0.139832  0  1.003633  0
H  H25  1  0.74341141  0.53612845  0.68789354  1  0.09068  0  0.121873  0.140003  0  1.003459  0
H  H26  1  0.74348519  0.96385911  0.18789440  1  0.091098  0  0.121798  0.139886  0  1.003612  0
H  H27  1  0.25657594  0.46386443  0.31210545  1  0.090721  0  0.121811  0.13986  0  1.003551  0
H  H28  1  0.37823182  0.90884725  0.82161466  1  0.033519  0  0.097827  0.083357  0  1.060377  0
H  H29  1  0.62175248  0.40882764  0.67837444  1  0.033291  0  0.097884  0.083418  0  1.060363  0
H  H30  1  0.62177571  0.09115592  0.17838039  1  0.033487  0  0.097876  0.083441  0  1.060289  0
H  H31  1  0.37826346  0.59115968  0.32162643  1  0.035045  0  0.097888  0.083453  0  1.060337  0
H  H32  1  0.26265507  0.94183761  0.69887871  1  -0.013887  0  0.085726  0.046435  0  1.010847  0
H  H33  1  0.73729169  0.44184942  0.80111519  1  -0.014031  0  0.085618  0.04628  0  1.010766  0
H  H34  1  0.73735643  0.05815605  0.30111632  1  -0.013682  0  0.085759  0.046431  0  1.010787  0
H  H35  1  0.26270984  0.55817196  0.19888328  1  -0.014183  0  0.08561  0.046225  0  1.010897  0
H  H36  1  0.04198932  0.04768482  0.72687830  1  0.046386  0  0.105173  0.084568  0  0.995133  0
H  H37  1  0.95795475  0.54769561  0.77311013  1  0.046362  0  0.105185  0.084467  0  0.995169  0
H  H38  1  0.95802649  0.95231676  0.27311283  1  0.046385  0  0.105206  0.084605  0  0.995211  0
H  H39  1  0.04207838  0.45231310  0.22687852  1  0.046558  0  0.105129  0.084331  0  0.995064  0
H  H40  1  0.91693607  0.95727468  0.62928769  1  0.048133  0  0.094344  0.093624  0  0.989435  0
H  H41  1  0.08297345  0.45729419  0.87070986  1  0.048629  0  0.094245  0.093402  0  0.989473  0
H  H42  1  0.08305676  0.04271977  0.37070544  1  0.048136  0  0.094376  0.093686  0  0.989544  0
H  H43  1  0.91703210  0.54272402  0.12928518  1  0.04907  0  0.094234  0.093417  0  0.989315  0
H  H44  1  0.65837384  0.95088081  0.69736973  1  0.02441  0  0.090461  0.087236  0  1.013619  0
H  H45  1  0.34156600  0.45088412  0.80263109  1  0.025074  0  0.09046  0.087211  0  1.01345  0
H  H46  1  0.34164332  0.04911365  0.30262578  1  0.024266  0  0.090518  0.087269  0  1.013481  0
H  H47  1  0.65844521  0.54912380  0.19736443  1  0.024995  0  0.090504  0.087288  0  1.013537  0
H  H48  1  0.06845153  0.77533880  0.65520366  1  0.107029  0  0.11412  0.098098  0  0.993486  0
H  H49  1  0.93149810  0.27535362  0.84480071  1  0.107268  0  0.11411  0.097988  0  0.99337  0
H  H50  1  0.93152813  0.22465249  0.34479827  1  0.107268  0  0.11414  0.098101  0  0.99343  0
H  H51  1  0.06850362  0.72466063  0.15520408  1  0.107133  0  0.11412  0.09798  0  0.993383  0
H  H52  1  0.80113237  0.67131083  0.74351159  1  0.049325  0  0.094502  0.092814  0  1.024699  0
H  H53  1  0.19885242  0.17131360  0.75649942  1  0.049174  0  0.094513  0.092817  0  1.024958  0
H  H54  1  0.19884724  0.32869550  0.25649375  1  0.049135  0  0.09455  0.092894  0  1.024721  0
H  H55  1  0.80113899  0.82868323  0.24351270  1  0.049318  0  0.094573  0.092952  0  1.024781  0
H  H56  1  0.59222516  0.78099283  0.76548625  1  0.017227  0  0.084958  0.071152  0  1.051377  0
H  H57  1  0.40773772  0.28098709  0.73452496  1  0.017646  0  0.084895  0.071026  0  1.051327  0
H  H58  1  0.40777923  0.21901192  0.23451075  1  0.017321  0  0.084879  0.070942  0  1.051445  0
H  H59  1  0.59226739  0.71900816  0.26548080  1  0.017445  0  0.084925  0.071058  0  1.051455  0
H  H60  1  0.95120446  0.77018987  0.83597667  1  0.025145  0  0.102792  0.081252  0  1.005963  0
H  H61  1  0.04880353  0.27017086  0.66402361  1  0.025692  0  0.102795  0.08121  0  1.005875  0
H  H62  1  0.04878371  0.22981963  0.16402426  1  0.02537  0  0.10281  0.081299  0  1.005896  0
H  H63  1  0.95118997  0.72981885  0.33598169  1  0.025596  0  0.102796  0.081261  0  1.005716  0
H  H64  1  0.19942793  0.76897687  0.76519711  1  0.033636  0  0.088773  0.05782  0  1.013168  0
H  H65  1  0.80055899  0.26897178  0.73479883  1  0.033578  0  0.088739  0.057778  0  1.013292  0
H  H66  1  0.80057016  0.23102233  0.23480380  1  0.033527  0  0.088731  0.057766  0  1.013379  0
H  H67  1  0.19944157  0.73102743  0.26520791  1  0.033581  0  0.08874  0.057798  0  1.013171  0
C  C68  1  0.19065405  0.95602409  0.82786921  1  -0.181226  0  -0.072044  -0.361682  0  3.921402  0
C  C69  1  0.80931311  0.45601075  0.67212820  1  -0.181306  0  -0.072249  -0.361942  0  3.921481  0
C  C70  1  0.80934332  0.04397115  0.17212294  1  -0.182557  0  -0.072152  -0.3618  0  3.921378  0
C  C71  1  0.19068988  0.54398370  0.32786783  1  -0.182971  0  -0.072184  -0.361792  0  3.921261  0
C  C72  1  0.05482824  0.96126161  0.72228457  1  0.299996  0  -0.068088  -0.041705  0  3.936967  0
C  C73  1  0.94512773  0.46126569  0.77770756  1  0.29981  0  -0.06806  -0.041425  0  3.936559  0
C  C74  1  0.94517499  0.03873364  0.27771438  1  0.299596  0  -0.068113  -0.041527  0  3.936686  0
C  C75  1  0.05487951  0.53874540  0.22228797  1  0.300156  0  -0.067984  -0.041285  0  3.936652  0
C  C76  1  0.86157583  0.92288237  0.67813599  1  -0.051692  0  -0.163738  -0.185215  0  3.944507  0
C  C77  1  0.13835477  0.42286635  0.82186798  1  -0.052106  0  -0.163624  -0.184949  0  3.943895  0
C  C78  1  0.13842179  0.07710654  0.32185908  1  -0.051331  0  -0.163874  -0.18546  0  3.944564  0
C  C79  1  0.86164047  0.57713602  0.17813440  1  -0.052785  0  -0.163628  -0.184979  0  3.943798  0
C  C80  1  0.86310903  0.80158411  0.67518336  1  -0.025476  0  -0.0889  -0.114967  0  3.886899  0
C  C81  1  0.13685674  0.30156896  0.82482318  1  -0.026196  0  -0.088854  -0.114962  0  3.887003  0
C  C82  1  0.13688732  0.19841193  0.32482047  1  -0.025752  0  -0.088926  -0.114859  0  3.88656  0
C  C83  1  0.86314580  0.69844213  0.17518356  1  -0.025989  0  -0.088952  -0.114965  0  3.886997  0
C  C84  1  0.79685831  0.75795076  0.74413961  1  -0.029465  0  -0.165492  -0.178283  0  3.942603  0
C  C85  1  0.20309838  0.25794079  0.75586554  1  -0.02967  0  -0.165391  -0.178047  0  3.942592  0
C  C86  1  0.20312048  0.24205479  0.25586378  1  -0.029166  0  -0.165351  -0.17803  0  3.942371  0
C  C87  1  0.79689425  0.74205604  0.24414122  1  -0.029314  0  -0.165377  -0.178179  0  3.942806  0
C  C88  1  0.99759058  0.79991883  0.78572586  1  0.294501  0  -0.075187  -0.070363  0  3.936202  0
C  C89  1  0.00237909  0.29990041  0.71427773  1  0.294209  0  -0.07515  -0.07018  0  3.936195  0
C  C90  1  0.00238197  0.20008988  0.21427803  1  0.29419  0  -0.075181  -0.070374  0  3.936313  0
C  C91  1  0.99761103  0.70009404  0.28572660  1  0.293786  0  -0.075189  -0.070294  0  3.935978  0
C  C92  1  0.69228857  0.75983198  0.62710530  1  1.505906  0  0.2056  0.591106  0  4.164566  0
C  C93  1  0.30764635  0.25985427  0.87290284  1  1.505995  0  0.205879  0.591586  0  4.163803  0
C  C94  1  0.30770381  0.24014109  0.37289854  1  1.505737  0  0.205705  0.591131  0  4.164095  0
C  C95  1  0.69238377  0.74014969  0.12709751  1  1.505917  0  0.205667  0.591238  0  4.164135  0
N  N96  1  0.99780266  0.91610388  0.78799026  1  -1.031746  0  -0.33897  -0.100383  0  3.457612  0
N  N97  1  0.00215873  0.41608622  0.71200626  1  -1.032264  0  -0.33895  -0.100628  0  3.457757  0
N  N98  1  0.00220463  0.08390483  0.21200186  1  -1.031598  0  -0.33902  -0.100679  0  3.457178  0
N  N99  1  0.99784309  0.58391061  0.28799171  1  -1.032306  0  -0.338899  -0.100522  0  3.457856  0
O  O100  1  0.33248155  0.98234950  0.94530352  1  -1.478992  0  -0.531932  -0.980545  0  2.363908  0
O  O101  1  0.66752540  0.48233843  0.55468627  1  -1.479205  0  -0.531865  -0.980512  0  2.363995  0
O  O102  1  0.66753643  0.01766079  0.05469393  1  -1.479231  0  -0.531973  -0.980665  0  2.363967  0
O  O103  1  0.33248581  0.51765603  0.44530925  1  -1.479155  0  -0.531865  -0.980526  0  2.364063  0
O  O104  1  0.90705036  0.87395693  0.94159213  1  -1.480911  0  -0.442285  -0.885338  0  2.193157  0
O  O105  1  0.09298278  0.37394914  0.55840671  1  -1.481031  0  -0.442254  -0.885255  0  2.193027  0
O  O106  1  0.09295829  0.12605416  0.05840437  1  -1.48099  0  -0.442291  -0.885262  0  2.19278  0
O  O107  1  0.90702155  0.62604611  0.44159370  1  -1.480778  0  -0.442306  -0.885312  0  2.192775  0
O  O108  1  0.91049660  0.07699805  0.92335185  1  -1.472121  0  -0.465871  -0.87736  0  2.248595  0
O  O109  1  0.08948105  0.57699042  0.57664556  1  -1.472436  0  -0.465918  -0.877357  0  2.248572  0
O  O110  1  0.08951402  0.92300749  0.07664464  1  -1.472166  0  -0.465848  -0.87735  0  2.248797  0
O  O111  1  0.91053185  0.42300404  0.42335045  1  -1.472152  0  -0.465857  -0.877374  0  2.248825  0
O  O112  1  0.73991009  0.79721045  0.56792040  1  -1.212637  0  -0.384222  -0.67078  0  2.246496  0
O  O113  1  0.26005616  0.29723665  0.93208269  1  -1.212852  0  -0.384299  -0.670921  0  2.246082  0
O  O114  1  0.26009173  0.20277925  0.43207757  1  -1.212799  0  -0.384232  -0.670668  0  2.246633  0
O  O115  1  0.73997711  0.70279423  0.06791570  1  -1.212789  0  -0.384234  -0.670759  0  2.246514  0
O  O116  1  0.51494348  0.68976426  0.64163053  1  -1.175872  0  -0.34654  -0.586265  0  2.180596  0
O  O117  1  0.48495937  0.18975162  0.85837892  1  -1.17573  0  -0.346741  -0.586576  0  2.180143  0
O  O118  1  0.48507842  0.31023257  0.35837032  1  -1.175622  0  -0.346625  -0.586434  0  2.179811  0
O  O119  1  0.51499073  0.81024758  0.14162941  1  -1.175673  0  -0.346613  -0.586465  0  2.179699  0
O  O120  1  0.47350876  0.75777832  0.91106884  1  -1.227813  0  -0.608162  -0.788323  0  2.024377  0
O  O121  1  0.52649546  0.25777510  0.58892305  1  -1.227819  0  -0.608098  -0.78832  0  2.024265  0
O  O122  1  0.52646355  0.24222089  0.08893213  1  -1.227958  0  -0.608093  -0.78816  0  2.024532  0
O  O123  1  0.47351284  0.74221302  0.41107735  1  -1.227756  0  -0.608089  -0.788265  0  2.024586  0
O  O124  1  0.23785438  0.68058948  0.02788192  1  -1.245646  0  -0.638058  -0.854692  0  2.027442  0
O  O125  1  0.76224085  0.18057046  0.47212032  1  -1.245794  0  -0.637907  -0.854145  0  2.027833  0
O  O126  1  0.76216104  0.31942556  0.97211651  1  -1.245111  0  -0.638143  -0.854615  0  2.027564  0
O  O127  1  0.23776165  0.81941450  0.52788983  1  -1.246012  0  -0.637985  -0.854432  0  2.027759  0
