# generated using pymatgen
data_ZnH14C16N6O5
_symmetry_space_group_name_H-M   'P 1'
_cell_length_a   8.11933150
_cell_length_b   10.19481616
_cell_length_c   10.19479183
_cell_angle_alpha   99.31899320
_cell_angle_beta   91.57399248
_cell_angle_gamma   91.57390057
_symmetry_Int_Tables_number   1
_chemical_formula_structural   ZnH14C16N6O5
_chemical_formula_sum   'Zn2 H28 C32 N12 O10'
_cell_volume   831.98746952
_cell_formula_units_Z   2
loop_
 _symmetry_equiv_pos_site_id
 _symmetry_equiv_pos_as_xyz
  1  'x, y, z'
loop_
 _atom_site_type_symbol
 _atom_site_label
 _atom_site_symmetry_multiplicity
 _atom_site_fract_x
 _atom_site_fract_y
 _atom_site_fract_z
 _atom_site_occupancy
 _atom_site_hle17_bader_spin_density
 _atom_site_hle17_ddec_charge
 _atom_site_hle17_ddec_spin_density
 _atom_site_hle17_ddec_sum_bond_order
 _atom_site_hle17_magmom
 _atom_site_hse06_10hf_bader_spin_density
 _atom_site_hse06_10hf_ddec_charge
 _atom_site_hse06_10hf_ddec_spin_density
 _atom_site_hse06_10hf_ddec_sum_bond_order
 _atom_site_hse06_10hf_magmom
 _atom_site_hse06_bader_spin_density
 _atom_site_hse06_ddec_charge
 _atom_site_hse06_ddec_spin_density
 _atom_site_hse06_ddec_sum_bond_order
 _atom_site_hse06_magmom
 _atom_site_pbe_bader_spin_density
 _atom_site_pbe_cm5_charge
 _atom_site_pbe_ddec_charge
 _atom_site_pbe_ddec_spin_density
 _atom_site_pbe_ddec_sum_bond_order
 _atom_site_pbe_magmom
Zn  Zn0  1  0.24999960  0.36888755  0.63111465  1  0  1.091653  0  1.758332  0  0  0.910588  0  2.220443  0  0  0.956309  0  2.163769  0  0  0.700844  0.878507  0  2.259639  0
Zn  Zn1  1  0.74999946  0.63111301  0.36888748  1  0  1.091675  0  1.758333  0  0  0.910602  0  2.220444  0  0  0.956321  0  2.16377  0  0  0.700859  0.878524  0  2.259643  0
H  H2  1  0.31923765  0.48903161  0.42345285  1  0  0.447356  0  0.850133  0  0  0.413184  0  0.918531  0  0  0.423536  0  0.903585  0  0  0.297667  0.405942  0  0.92897  0
H  H3  1  0.18076201  0.57654749  0.51097016  1  0  0.447343  0  0.850147  0  0  0.413174  0  0.918537  0  0  0.423524  0  0.903596  0  0  0.297651  0.405933  0  0.928974  0
H  H4  1  0.68076259  0.51096796  0.57654816  1  0  0.447342  0  0.850154  0  0  0.413164  0  0.918559  0  0  0.423516  0  0.903614  0  0  0.297651  0.405922  0  0.928998  0
H  H5  1  0.81923823  0.42345207  0.48903085  1  0  0.447324  0  0.850179  0  0  0.413154  0  0.918571  0  0  0.423504  0  0.903629  0  0  0.297647  0.40591  0  0.929012  0
H  H6  1  0.64521970  0.48244767  0.98957337  1  0  0.124602  0  0.944475  0  0  0.137629  0  1.00589  0  0  0.140126  0  1.00466  0  0  0.120908  0.13591  0  1.006804  0
H  H7  1  0.85478000  0.01042714  0.51755114  1  0  0.12458  0  0.944498  0  0  0.137602  0  1.005917  0  0  0.1401  0  1.004686  0  0  0.120893  0.135884  0  1.006831  0
H  H8  1  0.35478049  0.51755089  0.01042747  1  0  0.124595  0  0.944485  0  0  0.137643  0  1.005878  0  0  0.140142  0  1.004644  0  0  0.120906  0.135923  0  1.006792  0
H  H9  1  0.14522025  0.98957243  0.48244791  1  0  0.124603  0  0.944464  0  0  0.137649  0  1.005878  0  0  0.140147  0  1.004645  0  0  0.120914  0.135931  0  1.006791  0
H  H10  1  0.67525850  0.32664773  0.88716215  1  0  0.117933  0  0.925748  0  0  0.127113  0  0.995106  0  0  0.129166  0  0.99408  0  0  0.122466  0.125732  0  0.99577  0
H  H11  1  0.82474107  0.11283881  0.67335259  1  0  0.117921  0  0.925757  0  0  0.127097  0  0.995117  0  0  0.129151  0  0.994091  0  0  0.122456  0.125716  0  0.99578  0
H  H12  1  0.32474056  0.67335284  0.11283704  1  0  0.11792  0  0.92572  0  0  0.127102  0  0.995086  0  0  0.129153  0  0.994063  0  0  0.122461  0.12572  0  0.995749  0
H  H13  1  0.17525800  0.88716177  0.32664562  1  0  0.117918  0  0.92576  0  0  0.12711  0  0.995122  0  0  0.129163  0  0.994096  0  0  0.122461  0.12573  0  0.995782  0
H  H14  1  0.28710246  0.69243246  0.78214272  1  0  0.124993  0  0.93166  0  0  0.134551  0  0.98911  0  0  0.137746  0  0.987534  0  0  0.113394  0.132294  0  0.990235  0
H  H15  1  0.21289621  0.21785664  0.30756804  1  0  0.12499  0  0.931663  0  0  0.134546  0  0.989109  0  0  0.137742  0  0.987533  0  0  0.11339  0.132291  0  0.990236  0
H  H16  1  0.71289655  0.30756711  0.21785728  1  0  0.125011  0  0.931624  0  0  0.134574  0  0.989071  0  0  0.13777  0  0.987494  0  0  0.113398  0.132317  0  0.990197  0
H  H17  1  0.78710522  0.78214193  0.69243185  1  0  0.124998  0  0.93164  0  0  0.134557  0  0.989091  0  0  0.137753  0  0.987513  0  0  0.113382  0.1323  0  0.990218  0
H  H18  1  0.22670114  0.89430199  0.94465758  1  0  0.07655  0  0.99263  0  0  0.086574  0  1.059263  0  0  0.088405  0  1.060055  0  0  0.093106  0.085175  0  1.059045  0
H  H19  1  0.27329667  0.05534186  0.10569746  1  0  0.076532  0  0.992638  0  0  0.086558  0  1.05927  0  0  0.088388  0  1.060062  0  0  0.093101  0.08516  0  1.059051  0
H  H20  1  0.77329911  0.10569758  0.05534148  1  0  0.07655  0  0.992633  0  0  0.086575  0  1.059262  0  0  0.088406  0  1.060053  0  0  0.093102  0.085179  0  1.059044  0
H  H21  1  0.72670353  0.94465671  0.89430240  1  0  0.076553  0  0.992606  0  0  0.086583  0  1.059229  0  0  0.088411  0  1.060025  0  0  0.093115  0.085186  0  1.059012  0
H  H22  1  0.97622506  0.90458390  0.07859138  1  0  0.086922  0  0.950884  0  0  0.101144  0  1.007233  0  0  0.103564  0  1.006528  0  0  0.100366  0.098954  0  1.008709  0
H  H23  1  0.52377453  0.92140935  0.09541453  1  0  0.086939  0  0.950878  0  0  0.101159  0  1.007226  0  0  0.10358  0  1.006522  0  0  0.100374  0.098969  0  1.008702  0
H  H24  1  0.02377642  0.09541566  0.92140868  1  0  0.086913  0  0.950915  0  0  0.101146  0  1.00725  0  0  0.103568  0  1.006543  0  0  0.100364  0.098955  0  1.008726  0
H  H25  1  0.47622699  0.07859121  0.90458570  1  0  0.086895  0  0.950843  0  0  0.101109  0  1.007213  0  0  0.103531  0  1.006508  0  0  0.10034  0.098919  0  1.008689  0
H  H26  1  0.76695315  0.71581414  0.04861749  1  0  0.12429  0  0.947944  0  0  0.135399  0  1.00511  0  0  0.139221  0  1.002731  0  0  0.110402  0.132672  0  1.006877  0
H  H27  1  0.73304474  0.95138421  0.28418561  1  0  0.124303  0  0.948007  0  0  0.135424  0  1.005149  0  0  0.139245  0  1.002775  0  0  0.110434  0.132697  0  1.006915  0
H  H28  1  0.23304837  0.28418641  0.95138372  1  0  0.124296  0  0.947948  0  0  0.135388  0  1.005133  0  0  0.139209  0  1.002758  0  0  0.11041  0.132662  0  1.006898  0
H  H29  1  0.26695440  0.04861834  0.71581588  1  0  0.124277  0  0.947968  0  0  0.135393  0  1.005127  0  0  0.139216  0  1.002751  0  0  0.110415  0.132666  0  1.006894  0
C  C30  1  0.53460804  0.46128269  0.79002108  1  0  0.677396  0  3.90593  0  0  0.624416  0  4.221079  0  0  0.657082  0  4.212939  0  0  0.206888  0.602145  0  4.225989  0
C  C31  1  0.96539057  0.20997928  0.53871560  1  0  0.677391  0  3.905842  0  0  0.624425  0  4.220955  0  0  0.657092  0  4.212815  0  0  0.206942  0.602154  0  4.225864  0
C  C32  1  0.46539225  0.53871788  0.20997912  1  0  0.677364  0  3.905935  0  0  0.624383  0  4.22109  0  0  0.65705  0  4.212948  0  0  0.206883  0.602112  0  4.226001  0
C  C33  1  0.03460977  0.79002228  0.46128379  1  0  0.67736  0  3.905821  0  0  0.624409  0  4.220939  0  0  0.657076  0  4.212798  0  0  0.206921  0.60214  0  4.225846  0
C  C34  1  0.67127128  0.43402025  0.88828583  1  0  -0.184718  0  3.63499  0  0  -0.259681  0  3.885627  0  0  -0.2607  0  3.890594  0  0  -0.053777  -0.258947  0  3.882421  0
C  C35  1  0.82872958  0.11171509  0.56597907  1  0  -0.184658  0  3.634982  0  0  -0.259621  0  3.885612  0  0  -0.260641  0  3.890579  0  0  -0.053732  -0.258888  0  3.882405  0
C  C36  1  0.32873025  0.56598031  0.11171439  1  0  -0.184657  0  3.63492  0  0  -0.259627  0  3.885584  0  0  -0.260644  0  3.89055  0  0  -0.053751  -0.258894  0  3.882378  0
C  C37  1  0.17126948  0.88828549  0.43401914  1  0  -0.184667  0  3.634905  0  0  -0.259708  0  3.88561  0  0  -0.260728  0  3.890576  0  0  -0.053795  -0.258972  0  3.882401  0
C  C38  1  0.91221090  0.60112902  0.89644930  1  0  0.096647  0  3.765776  0  0  0.067466  0  4.018499  0  0  0.071445  0  4.039987  0  0  0.108469  0.064835  0  4.004014  0
C  C39  1  0.58778794  0.10355043  0.39887067  1  0  0.096593  0  3.765744  0  0  0.067429  0  4.018457  0  0  0.071408  0  4.039944  0  0  0.108444  0.064799  0  4.003968  0
C  C40  1  0.08779058  0.39887054  0.10355174  1  0  0.096492  0  3.765771  0  0  0.067374  0  4.018437  0  0  0.071351  0  4.039924  0  0  0.108402  0.064741  0  4.003956  0
C  C41  1  0.41221107  0.89644914  0.60113032  1  0  0.096597  0  3.765754  0  0  0.067419  0  4.018464  0  0  0.071398  0  4.039954  0  0  0.108463  0.064792  0  4.003972  0
C  C42  1  0.05893002  0.59231660  0.82422306  1  0  0.128429  0  3.79535  0  0  0.122887  0  4.050067  0  0  0.123903  0  4.071703  0  0  0.100126  0.122326  0  4.035402  0
C  C43  1  0.44106911  0.17577769  0.40768249  1  0  0.128399  0  3.795346  0  0  0.122846  0  4.050069  0  0  0.123864  0  4.071705  0  0  0.100135  0.122286  0  4.035401  0
C  C44  1  0.94107018  0.40768196  0.17577779  1  0  0.128457  0  3.795311  0  0  0.122897  0  4.050034  0  0  0.123916  0  4.071668  0  0  0.100151  0.122336  0  4.035371  0
C  C45  1  0.55893118  0.82422287  0.59231771  1  0  0.128391  0  3.795375  0  0  0.122847  0  4.050092  0  0  0.123865  0  4.071727  0  0  0.100107  0.122288  0  4.035423  0
C  C46  1  0.17522217  0.69837425  0.83913212  1  0  -0.094972  0  3.693583  0  0  -0.11454  0  3.942894  0  0  -0.11423  0  3.960699  0  0  -0.076479  -0.114753  0  3.930743  0
C  C47  1  0.32477621  0.16086685  0.30162493  1  0  -0.094984  0  3.693664  0  0  -0.114539  0  3.942956  0  0  -0.114229  0  3.960761  0  0  -0.07648  -0.114754  0  3.93081  0
C  C48  1  0.82477931  0.30162531  0.16086794  1  0  -0.095038  0  3.693571  0  0  -0.114626  0  3.942909  0  0  -0.114316  0  3.960713  0  0  -0.076525  -0.114837  0  3.930762  0
C  C49  1  0.67522158  0.83913272  0.69837504  1  0  -0.095005  0  3.693649  0  0  -0.11458  0  3.942967  0  0  -0.11427  0  3.960772  0  0  -0.076472  -0.114794  0  3.930819  0
C  C50  1  0.13969282  0.80965502  0.93019145  1  0  -0.094587  0  3.790203  0  0  -0.110294  0  4.044978  0  0  -0.114618  0  4.06888  0  0  -0.099449  -0.107223  0  4.028807  0
C  C51  1  0.36030692  0.06981119  0.19034435  1  0  -0.094534  0  3.790274  0  0  -0.110241  0  4.045029  0  0  -0.114565  0  4.068932  0  0  -0.099432  -0.107171  0  4.028858  0
C  C52  1  0.86030861  0.19034354  0.06980942  1  0  -0.094589  0  3.790072  0  0  -0.11029  0  4.044848  0  0  -0.114614  0  4.068751  0  0  -0.099433  -0.107216  0  4.028668  0
C  C53  1  0.63969460  0.93018937  0.80965588  1  0  -0.094591  0  3.790161  0  0  -0.110292  0  4.04493  0  0  -0.114616  0  4.068834  0  0  -0.099471  -0.107222  0  4.028762  0
C  C54  1  0.99494368  0.81606767  0.00538461  1  0  -0.063962  0  3.770168  0  0  -0.082059  0  4.027499  0  0  -0.082881  0  4.049141  0  0  -0.092057  -0.081432  0  4.013552  0
C  C55  1  0.50505600  0.99461729  0.18392944  1  0  -0.063993  0  3.770078  0  0  -0.082088  0  4.027419  0  0  -0.082912  0  4.049061  0  0  -0.092062  -0.081463  0  4.013474  0
C  C56  1  0.00505903  0.18393189  0.99461548  1  0  -0.063892  0  3.770103  0  0  -0.081991  0  4.027422  0  0  -0.082814  0  4.049066  0  0  -0.09202  -0.081361  0  4.013472  0
C  C57  1  0.49494562  0.00538527  0.81606917  1  0  -0.063918  0  3.770052  0  0  -0.082011  0  4.027393  0  0  -0.082833  0  4.049036  0  0  -0.092028  -0.081386  0  4.013449  0
C  C58  1  0.87731582  0.71276749  0.98986050  1  0  -0.130064  0  3.72091  0  0  -0.151326  0  3.982344  0  0  -0.154846  0  4.001849  0  0  -0.088354  -0.148777  0  3.969097  0
C  C59  1  0.62268562  0.01014231  0.28723001  1  0  -0.130055  0  3.720771  0  0  -0.151324  0  3.982195  0  0  -0.154844  0  4.001698  0  0  -0.088381  -0.148776  0  3.968953  0
C  C60  1  0.12268437  0.28723108  0.01014133  1  0  -0.130063  0  3.720959  0  0  -0.151322  0  3.982388  0  0  -0.154841  0  4.001892  0  0  -0.088368  -0.148775  0  3.969148  0
C  C61  1  0.37731718  0.98985924  0.71277042  1  0  -0.130023  0  3.720851  0  0  -0.151282  0  3.982263  0  0  -0.154802  0  4.001768  0  0  -0.088351  -0.148734  0  3.969019  0
N  N62  1  0.83234269  0.48068359  0.85557491  1  0  0.036127  0  3.553657  0  0  0.147539  0  3.743643  0  0  0.137058  0  3.767096  0  0  -0.119453  0.153835  0  3.728976  0
N  N63  1  0.66765721  0.14442516  0.51931578  1  0  0.036155  0  3.553648  0  0  0.147556  0  3.74364  0  0  0.137074  0  3.767094  0  0  -0.119459  0.15385  0  3.728977  0
N  N64  1  0.16765760  0.51931697  0.14442529  1  0  0.036235  0  3.553596  0  0  0.147571  0  3.743644  0  0  0.137089  0  3.767097  0  0  -0.119438  0.153873  0  3.728966  0
N  N65  1  0.33234436  0.85557639  0.48068363  1  0  0.036181  0  3.553634  0  0  0.147624  0  3.743612  0  0  0.137142  0  3.767068  0  0  -0.119419  0.153904  0  3.728975  0
N  N66  1  0.92053300  0.40335242  0.76599753  1  0  -0.04063  0  2.899907  0  0  -0.057367  0  3.17829  0  0  -0.051272  0  3.18944  0  0  -0.060608  -0.060791  0  3.170684  0
N  N67  1  0.57946700  0.23400138  0.59664756  1  0  -0.040708  0  2.899903  0  0  -0.057462  0  3.178318  0  0  -0.051363  0  3.18947  0  0  -0.060645  -0.060883  0  3.170709  0
N  N68  1  0.07946730  0.59664816  0.23400071  1  0  -0.040786  0  2.899822  0  0  -0.057505  0  3.178233  0  0  -0.051409  0  3.189383  0  0  -0.060672  -0.060928  0  3.170624  0
N  N69  1  0.42053329  0.76599919  0.40335264  1  0  -0.040758  0  2.899898  0  0  -0.057521  0  3.178302  0  0  -0.051425  0  3.189453  0  0  -0.060695  -0.060939  0  3.170692  0
N  N70  1  0.05658627  0.46838109  0.74674457  1  0  -0.252829  0  3.151013  0  0  -0.197507  0  3.444692  0  0  -0.208603  0  3.455445  0  0  -0.193613  -0.189932  0  3.437329  0
N  N71  1  0.44341266  0.25325558  0.53162007  1  0  -0.252745  0  3.150863  0  0  -0.197417  0  3.44454  0  0  -0.208522  0  3.455303  0  0  -0.193585  -0.189843  0  3.437177  0
N  N72  1  0.94341280  0.53161949  0.25325462  1  0  -0.252695  0  3.150767  0  0  -0.19736  0  3.444427  0  0  -0.208458  0  3.455185  0  0  -0.193536  -0.189786  0  3.437067  0
N  N73  1  0.55658763  0.74674498  0.46838013  1  0  -0.252698  0  3.150818  0  0  -0.197363  0  3.444485  0  0  -0.208462  0  3.455241  0  0  -0.193537  -0.189789  0  3.437121  0
O  O74  1  0.56226935  0.53766180  0.70845163  1  0  -0.622834  0  1.999266  0  0  -0.575441  0  2.233939  0  0  -0.598931  0  2.226215  0  0  -0.314495  -0.559161  0  2.238846  0
O  O75  1  0.93772852  0.29154790  0.46233471  1  0  -0.622863  0  1.999182  0  0  -0.575486  0  2.233852  0  0  -0.598972  0  2.226125  0  0  -0.314584  -0.559206  0  2.238761  0
O  O76  1  0.43773094  0.46233876  0.29154857  1  0  -0.622835  0  1.999265  0  0  -0.575443  0  2.233929  0  0  -0.598932  0  2.226202  0  0  -0.314503  -0.559164  0  2.238837  0
O  O77  1  0.06227309  0.70845464  0.53766684  1  0  -0.622854  0  1.99916  0  0  -0.575463  0  2.233796  0  0  -0.598949  0  2.226066  0  0  -0.314541  -0.559182  0  2.238703  0
O  O78  1  0.24999671  0.49686962  0.50312638  1  0  -0.864368  0  1.939437  0  0  -0.800713  0  2.178851  0  0  -0.821155  0  2.140167  0  0  -0.588451  -0.786509  0  2.205573  0
O  O79  1  0.75000094  0.50312697  0.49687211  1  0  -0.864363  0  1.939469  0  0  -0.800705  0  2.178897  0  0  -0.821147  0  2.140214  0  0  -0.58845  -0.786499  0  2.205624  0
O  O80  1  0.39659393  0.40040839  0.80332114  1  0  -0.670258  0  2.035709  0  0  -0.604597  0  2.306304  0  0  -0.63272  0  2.292583  0  0  -0.331677  -0.58478  0  2.315105  0
O  O81  1  0.10340509  0.19668004  0.59958979  1  0  -0.670274  0  2.035754  0  0  -0.604605  0  2.30633  0  0  -0.632729  0  2.292612  0  0  -0.331672  -0.584784  0  2.315131  0
O  O82  1  0.60340517  0.59959316  0.19668116  1  0  -0.67027  0  2.035753  0  0  -0.6046  0  2.306351  0  0  -0.632724  0  2.292631  0  0  -0.331686  -0.584782  0  2.315152  0
O  O83  1  0.89659515  0.80331953  0.40041024  1  0  -0.670257  0  2.035744  0  0  -0.604586  0  2.306308  0  0  -0.632708  0  2.292588  0  0  -0.331672  -0.584768  0  2.315111  0
