# generated using pymatgen
data_CdH17C20N3O8
_symmetry_space_group_name_H-M   'P 1'
_cell_length_a   10.26240814
_cell_length_b   10.36979043
_cell_length_c   12.75992658
_cell_angle_alpha   67.16273689
_cell_angle_beta   73.73713589
_cell_angle_gamma   67.15263710
_symmetry_Int_Tables_number   1
_chemical_formula_structural   CdH17C20N3O8
_chemical_formula_sum   'Cd2 H34 C40 N6 O16'
_cell_volume   1139.81496613
_cell_formula_units_Z   2
loop_
 _symmetry_equiv_pos_site_id
 _symmetry_equiv_pos_as_xyz
  1  'x, y, z'
loop_
 _atom_site_type_symbol
 _atom_site_label
 _atom_site_symmetry_multiplicity
 _atom_site_fract_x
 _atom_site_fract_y
 _atom_site_fract_z
 _atom_site_occupancy
 _atom_site_pbe_bader_spin_density
 _atom_site_pbe_cm5_charge
 _atom_site_pbe_ddec_charge
 _atom_site_pbe_ddec_spin_density
 _atom_site_pbe_ddec_sum_bond_order
 _atom_site_pbe_magmom
Cd  Cd0  1  0.91962558  0.43245913  0.21267963  1  0  0.756078  0.948292  0  2.079056  0
Cd  Cd1  1  0.08037589  0.56753815  0.78732117  1  0  0.75608  0.948326  0  2.079051  0
H  H2  1  0.87821758  0.14603899  0.34366492  1  0  0.267917  0.320617  0  1.05421  0
H  H3  1  0.12177679  0.85395826  0.65633748  1  0  0.267922  0.320573  0  1.054272  0
H  H4  1  0.89033468  0.20816942  0.43663800  1  0  0.30855  0.382699  0  0.905058  0
H  H5  1  0.10967089  0.79182118  0.56336622  1  0  0.30857  0.382706  0  0.905062  0
H  H6  1  0.00856252  0.65564477  0.02963154  1  0  0.293024  0.393082  0  0.939693  0
H  H7  1  0.99144201  0.34435245  0.97037095  1  0  0.293054  0.393152  0  0.939603  0
H  H8  1  0.86847542  0.66678340  0.00207882  1  0  0.287383  0.38437  0  0.957584  0
H  H9  1  0.13152909  0.33321715  0.99792191  1  0  0.287416  0.384483  0  0.957437  0
H  H10  1  0.47091135  0.66956128  0.47811262  1  0  0.106746  0.109818  0  1.013784  0
H  H11  1  0.52908468  0.33043723  0.52188512  1  0  0.106765  0.10983  0  1.013797  0
H  H12  1  0.61885817  0.53142698  0.34301186  1  0  0.116788  0.102448  0  1.040547  0
H  H13  1  0.38113988  0.46857154  0.65698542  1  0  0.11679  0.102485  0  1.040601  0
H  H14  1  0.99005443  0.57425040  0.37285255  1  0  0.118189  0.095509  0  1.001605  0
H  H15  1  0.00994193  0.42575032  0.62714446  1  0  0.118158  0.095428  0  1.001647  0
H  H16  1  0.85663851  0.71673199  0.51204250  1  0  0.111932  0.123625  0  0.985926  0
H  H17  1  0.14335885  0.28326876  0.48795349  1  0  0.111906  0.123594  0  0.985929  0
H  H18  1  0.63105551  0.83553529  0.61461375  1  0  0.108154  0.113074  0  0.986858  0
H  H19  1  0.36894356  0.16446324  0.38538331  1  0  0.108122  0.113015  0  0.986867  0
H  H20  1  0.36525226  0.80440063  0.57095383  1  0  0.105886  0.098813  0  1.02433  0
H  H21  1  0.63474514  0.19559998  0.42904612  1  0  0.105932  0.098851  0  1.024307  0
H  H22  1  0.98937286  0.01345184  0.78527776  1  0  0.117594  0.099157  0  1.009321  0
H  H23  1  0.01062385  0.98655426  0.21472150  1  0  0.117592  0.099188  0  1.009286  0
H  H24  1  0.06188800  0.14246304  0.88050887  1  0  0.110911  0.123018  0  1.002194  0
H  H25  1  0.93811245  0.85753753  0.11949197  1  0  0.110893  0.12297  0  1.002247  0
H  H26  1  0.31646298  0.13561779  0.83886114  1  0  0.108769  0.116779  0  1.004546  0
H  H27  1  0.68353952  0.86437616  0.16114121  1  0  0.108779  0.116783  0  1.004521  0
H  H28  1  0.49179043  0.99702590  0.70940697  1  0  0.108773  0.119403  0  0.991978  0
H  H29  1  0.50820968  0.00297251  0.29059302  1  0  0.108773  0.119385  0  0.99198  0
H  H30  1  0.43152049  0.44095703  0.20043386  1  0  0.110654  0.11907  0  1.004378  0
H  H31  1  0.56848368  0.55904463  0.79956662  1  0  0.110667  0.119046  0  1.004397  0
H  H32  1  0.36183830  0.21356358  0.01163851  1  0  0.118576  0.127316  0  1.013784  0
H  H33  1  0.63816177  0.78644475  0.98835934  1  0  0.118565  0.127247  0  1.013733  0
H  H34  1  0.78184263  0.23923343  0.97607694  1  0  0.117075  0.125989  0  1.009264  0
H  H35  1  0.21816122  0.76076274  0.02392446  1  0  0.117049  0.125959  0  1.009244  0
C  C36  1  0.65051347  0.70912539  0.50645747  1  0  0.013675  0.155512  0  4.006519  0
C  C37  1  0.34948258  0.29087303  0.49354264  1  0  0.013682  0.155522  0  4.006461  0
C  C38  1  0.58559556  0.65183509  0.45874393  1  0  -0.083394  -0.167244  0  3.936416  0
C  C39  1  0.41440150  0.34816334  0.54125596  1  0  -0.083394  -0.167226  0  3.936479  0
C  C40  1  0.66711515  0.57316630  0.38371647  1  0  0.034928  0.071253  0  3.981398  0
C  C41  1  0.33288190  0.42683219  0.61628183  1  0  0.034883  0.071097  0  3.981594  0
C  C42  1  0.87476475  0.59770848  0.40002503  1  0  0.045798  0.087727  0  3.967953  0
C  C43  1  0.12523262  0.40229225  0.59997176  1  0  0.045866  0.087853  0  3.967913  0
C  C44  1  0.79988919  0.67730085  0.47652721  1  0  -0.076992  -0.166463  0  3.916659  0
C  C45  1  0.20010684  0.32269763  0.52347132  1  0  -0.076973  -0.166443  0  3.916616  0
C  C46  1  0.56875753  0.80089257  0.57998572  1  0  -0.078383  -0.11444  0  3.946642  0
C  C47  1  0.43124155  0.19910590  0.42001292  1  0  -0.078401  -0.114411  0  3.946619  0
C  C48  1  0.42445872  0.84321439  0.60485959  1  0  -0.072697  -0.127363  0  3.95531  0
C  C49  1  0.57553800  0.15678514  0.39514004  1  0  -0.072644  -0.12732  0  3.955316  0
C  C50  1  0.33223588  0.93232641  0.67795276  1  0  0.110731  0.222957  0  4.035851  0
C  C51  1  0.66776015  0.06767536  0.32204558  1  0  0.110605  0.222832  0  4.035972  0
C  C52  1  0.09940285  0.01343628  0.76992631  1  0  0.051199  0.095024  0  3.948093  0
C  C53  1  0.90059554  0.98656768  0.23007165  1  0  0.051221  0.094997  0  3.948141  0
C  C54  1  0.13960126  0.08417020  0.82296372  1  0  -0.079109  -0.117206  0  3.95308  0
C  C55  1  0.86039782  0.91583152  0.17703552  1  0  -0.079118  -0.117165  0  3.953135  0
C  C56  1  0.28227144  0.07964385  0.80004820  1  0  -0.071299  -0.033309  0  3.966687  0
C  C57  1  0.71772833  0.92035564  0.19995234  1  0  -0.071288  -0.033329  0  3.966607  0
C  C58  1  0.37975459  0.00294113  0.72726733  1  0  -0.07777  -0.159133  0  3.928561  0
C  C59  1  0.62024280  0.99705951  0.27273183  1  0  -0.077764  -0.159071  0  3.928525  0
C  C60  1  0.71760290  0.38698503  0.12887381  1  0  0.193905  0.563406  0  4.245564  0
C  C61  1  0.28239857  0.61301548  0.87112839  1  0  0.193896  0.563439  0  4.245496  0
C  C62  1  0.61725363  0.34485150  0.09224069  1  0  -0.012003  -0.025859  0  3.959891  0
C  C63  1  0.38275055  0.65514685  0.90776076  1  0  -0.012025  -0.025987  0  3.96  0
C  C64  1  0.47232533  0.37864406  0.13997221  1  0  -0.060806  -0.080738  0  3.904071  0
C  C65  1  0.52767815  0.62135655  0.86002716  1  0  -0.060812  -0.080625  0  3.904007  0
C  C66  1  0.37921025  0.33248598  0.11155598  1  0  -0.013402  -0.028989  0  3.950666  0
C  C67  1  0.62079219  0.66751800  0.88844106  1  0  -0.013382  -0.029068  0  3.950629  0
C  C68  1  0.22353551  0.37029467  0.16319892  1  0  0.196277  0.566338  0  4.23151  0
C  C69  1  0.77646662  0.62970704  0.83680043  1  0  0.196233  0.566343  0  4.231516  0
C  C70  1  0.43142894  0.25267067  0.03369077  1  0  -0.059788  -0.10554  0  3.907065  0
C  C71  1  0.56857013  0.74733436  0.96630749  1  0  -0.059793  -0.105363  0  3.906948  0
C  C72  1  0.57544556  0.22192103  0.98572525  1  0  0.07563  0.055664  0  3.950175  0
C  C73  1  0.42455590  0.77808282  0.01427518  1  0  0.075616  0.055499  0  3.950158  0
C  C74  1  0.66960256  0.26629601  0.01371828  1  0  -0.062905  -0.116359  0  3.924405  0
C  C75  1  0.33039924  0.73370346  0.98628259  1  0  -0.06288  -0.116226  0  3.924092  0
N  N76  1  0.80996999  0.54633688  0.35370840  1  0  -0.335663  -0.260472  0  3.526262  0
N  N77  1  0.19002741  0.45366048  0.64629094  1  0  -0.335667  -0.260435  0  3.526152  0
N  N78  1  0.19234784  0.94088199  0.69849605  1  0  -0.308116  -0.283081  0  3.383912  0
N  N79  1  0.80764886  0.05912088  0.30150181  1  0  -0.308065  -0.283022  0  3.383877  0
N  N80  1  0.63108299  0.13671719  0.90499947  1  0  0.058924  0.524902  0  4.196021  0
N  N81  1  0.36891509  0.86328450  0.09500080  1  0  0.058951  0.525007  0  4.196142  0
O  O82  1  0.84911231  0.35430756  0.08339344  1  0  -0.327283  -0.576229  0  2.25882  0
O  O83  1  0.15089257  0.64568850  0.91661089  1  0  -0.327228  -0.576203  0  2.258751  0
O  O84  1  0.66966494  0.44860850  0.20657332  1  0  -0.329079  -0.563967  0  2.194332  0
O  O85  1  0.33033620  0.55138983  0.79342882  1  0  -0.329082  -0.56397  0  2.194288  0
O  O86  1  0.17653889  0.44018387  0.23450321  1  0  -0.33256  -0.559576  0  2.099625  0
O  O87  1  0.82346425  0.55982109  0.76549651  1  0  -0.332572  -0.559587  0  2.099685  0
O  O88  1  0.14444817  0.32729352  0.12951857  1  0  -0.330829  -0.566653  0  2.301398  0
O  O89  1  0.85555703  0.67270480  0.87048345  1  0  -0.330768  -0.566606  0  2.30131  0
O  O90  1  0.54404545  0.11395359  0.86880422  1  0  -0.134709  -0.348761  0  1.953679  0
O  O91  1  0.45595228  0.88604917  0.13119659  1  0  -0.134741  -0.348793  0  1.953607  0
O  O92  1  0.76284666  0.09113579  0.87722883  1  0  -0.131015  -0.343049  0  1.943779  0
O  O93  1  0.23715380  0.90886147  0.12277300  1  0  -0.131004  -0.343071  0  1.943868  0
O  O94  1  0.93199610  0.20020614  0.36012743  1  0  -0.5881  -0.745929  0  2.083932  0
O  O95  1  0.06800166  0.79979003  0.63987453  1  0  -0.588122  -0.745882  0  2.084008  0
O  O96  1  0.90913855  0.65949556  0.06751930  1  0  -0.588184  -0.75556  0  2.044104  0
O  O97  1  0.09086564  0.34050276  0.93248294  1  0  -0.588242  -0.755749  0  2.044001  0
