# generated using pymatgen
data_NdH3(C3O2)3
_symmetry_space_group_name_H-M   'P 1'
_cell_length_a   10.54554128
_cell_length_b   10.54552518
_cell_length_c   13.91892260
_cell_angle_alpha   90.00002701
_cell_angle_beta   89.99990387
_cell_angle_gamma   90.00026177
_symmetry_Int_Tables_number   1
_chemical_formula_structural   NdH3(C3O2)3
_chemical_formula_sum   'Nd4 H12 C36 O24'
_cell_volume   1547.89931827
_cell_formula_units_Z   4
loop_
 _symmetry_equiv_pos_site_id
 _symmetry_equiv_pos_as_xyz
  1  'x, y, z'
loop_
 _atom_site_type_symbol
 _atom_site_label
 _atom_site_symmetry_multiplicity
 _atom_site_fract_x
 _atom_site_fract_y
 _atom_site_fract_z
 _atom_site_occupancy
 _atom_site_pbe_bader_charge
 _atom_site_pbe_bader_spin_density
 _atom_site_pbe_cm5_charge
 _atom_site_pbe_ddec_charge
 _atom_site_pbe_ddec_spin_density
 _atom_site_pbe_ddec_sum_bond_order
 _atom_site_pbe_magmom
Nd  Nd0  1  0.12047850  0.87952242  0.87499740  1  2.248178  0  1.54283  2.140316  0  2.125163  0
Nd  Nd1  1  0.87952133  0.12047787  0.37499975  1  2.248142  0  1.542816  2.14036  0  2.125009  0
Nd  Nd2  1  0.12048083  0.12048001  0.62500162  1  2.248336  0  1.5428  2.140338  0  2.125001  0
Nd  Nd3  1  0.87951860  0.87952012  0.12500137  1  2.248217  0  1.542771  2.14027  0  2.125078  0
H  H4  1  0.00000051  0.88308183  0.50000006  1  0.077127  0  0.113972  0.08978  0  1.076764  0
H  H5  1  0.00000122  0.11691879  0.00000002  1  0.077154  0  0.113967  0.089779  0  1.076798  0
H  H6  1  0.11691928  0.00000034  0.25000203  1  0.077141  0  0.11394  0.089777  0  1.076767  0
H  H7  1  0.88308234  0.99999941  0.74999930  1  0.077136  0  0.113953  0.089781  0  1.076787  0
H  H8  1  0.06881441  0.52953112  0.64589200  1  0.141798  0  0.122226  0.133365  0  0.984687  0
H  H9  1  0.93118498  0.47046807  0.14589225  1  0.141792  0  0.122218  0.133336  0  0.984722  0
H  H10  1  0.47046585  0.06880763  0.39589458  1  0.141589  0  0.122238  0.133342  0  0.984685  0
H  H11  1  0.52953488  0.93119361  0.89589388  1  0.141611  0  0.122239  0.133386  0  0.984664  0
H  H12  1  0.93118488  0.52953110  0.35410881  1  0.141876  0  0.122229  0.133365  0  0.984714  0
H  H13  1  0.06881310  0.47047012  0.85410853  1  0.141852  0  0.122232  0.133361  0  0.984742  0
H  H14  1  0.52953608  0.06880783  0.60410534  1  0.141661  0  0.122225  0.13334  0  0.984713  0
H  H15  1  0.47046435  0.93119228  0.10410635  1  0.141673  0  0.122221  0.133343  0  0.984723  0
C  C16  1  0.06974806  0.78336676  0.67236248  1  1.581959  0  0.228934  0.638966  0  4.165642  0
C  C17  1  0.93025032  0.21663245  0.17236121  1  1.581944  0  0.228921  0.638915  0  4.165797  0
C  C18  1  0.21663058  0.06974395  0.42236303  1  1.581955  0  0.228936  0.639021  0  4.165441  0
C  C19  1  0.78337009  0.93025541  0.92236201  1  1.581941  0  0.228918  0.63893  0  4.165666  0
C  C20  1  0.93025240  0.78336672  0.32763841  1  1.581961  0  0.228958  0.639123  0  4.165457  0
C  C21  1  0.06974659  0.21663353  0.82763661  1  1.581955  0  0.228907  0.638982  0  4.165589  0
C  C22  1  0.78336945  0.06974719  0.57763762  1  1.582  0  0.228968  0.639014  0  4.165614  0
C  C23  1  0.21663008  0.93025575  0.07763750  1  1.581924  0  0.229029  0.639131  0  4.165576  0
C  C24  1  0.03609681  0.71399600  0.58276719  1  0.00456  0  -0.010728  -0.041074  0  3.964457  0
C  C25  1  0.96390177  0.28600505  0.08276662  1  0.004573  0  -0.010741  -0.041092  0  3.964524  0
C  C26  1  0.28600115  0.03609474  0.33276696  1  0.004511  0  -0.01074  -0.041118  0  3.964529  0
C  C27  1  0.71399877  0.96390457  0.83276676  1  0.004527  0  -0.010757  -0.041078  0  3.964514  0
C  C28  1  0.96390238  0.71399522  0.41723368  1  0.00456  0  -0.010739  -0.04107  0  3.964493  0
C  C29  1  0.03609641  0.28600225  0.91723338  1  0.004532  0  -0.010709  -0.041033  0  3.964456  0
C  C30  1  0.71399873  0.03609677  0.66723223  1  0.004481  0  -0.010756  -0.041196  0  3.964595  0
C  C31  1  0.28600346  0.96390434  0.16723204  1  0.004515  0  -0.010724  -0.041149  0  3.964485  0
C  C32  1  0.00000028  0.77995467  0.50000005  1  -0.039618  0  -0.057903  -0.08069  0  3.898668  0
C  C33  1  0.99999955  0.22004594  0.00000004  1  -0.039599  0  -0.057944  -0.080745  0  3.898851  0
C  C34  1  0.22004477  0.99999819  0.24999927  1  -0.039581  0  -0.057881  -0.080681  0  3.89877  0
C  C35  1  0.77995667  0.99999773  0.74999883  1  -0.03962  0  -0.057851  -0.080665  0  3.898744  0
C  C36  1  0.03841407  0.58118422  0.58208393  1  -0.039594  0  -0.050925  -0.067545  0  3.859178  0
C  C37  1  0.96158451  0.41881778  0.08208269  1  -0.039586  0  -0.050923  -0.067487  0  3.859284  0
C  C38  1  0.41881179  0.03841166  0.33208507  1  -0.039375  0  -0.050876  -0.06742  0  3.859287  0
C  C39  1  0.58118718  0.96158954  0.83208360  1  -0.039337  0  -0.050943  -0.067564  0  3.859253  0
C  C40  1  0.96158451  0.58118343  0.41791762  1  -0.039605  0  -0.050959  -0.067593  0  3.859421  0
C  C41  1  0.03841428  0.41881498  0.91791521  1  -0.039586  0  -0.050904  -0.067506  0  3.859209  0
C  C42  1  0.58118715  0.03841214  0.66791556  1  -0.039346  0  -0.050904  -0.06745  0  3.859195  0
C  C43  1  0.41881408  0.96158896  0.16791664  1  -0.03933  0  -0.050942  -0.067521  0  3.859266  0
C  C44  1  0.99999955  0.51515933  0.50000008  1  0.073644  0  -0.003832  -0.030987  0  3.944774  0
C  C45  1  0.00000016  0.48484072  0.99999937  1  0.073665  0  -0.003852  -0.031045  0  3.944838  0
C  C46  1  0.48483724  0.99999880  0.25000270  1  0.073629  0  -0.003832  -0.030994  0  3.945065  0
C  C47  1  0.51516286  0.99999951  0.75000025  1  0.073629  0  -0.003814  -0.030957  0  3.944913  0
C  C48  1  0.99999935  0.37313093  0.49999925  1  1.555363  0  0.247057  0.666086  0  4.150961  0
C  C49  1  0.99999925  0.62686943  0.99999857  1  1.555386  0  0.247068  0.666135  0  4.150855  0
C  C50  1  0.62686694  0.99999723  0.25000045  1  1.555368  0  0.247054  0.666091  0  4.150944  0
C  C51  1  0.37313412  0.99999824  0.75000106  1  1.555673  0  0.247024  0.665999  0  4.15097  0
O  O52  1  0.08231763  0.90480408  0.67078407  1  -1.263728  0  -0.426304  -0.763672  0  2.383366  0
O  O53  1  0.91768170  0.09519418  0.17078277  1  -1.264693  0  -0.426288  -0.763624  0  2.383385  0
O  O54  1  0.09519446  0.08231773  0.42078468  1  -1.263813  0  -0.426302  -0.763699  0  2.383285  0
O  O55  1  0.90480717  0.91768164  0.92078350  1  -1.264817  0  -0.426272  -0.763628  0  2.383401  0
O  O56  1  0.91768338  0.90480303  0.32921543  1  -1.263735  0  -0.426292  -0.763767  0  2.383326  0
O  O57  1  0.08231845  0.09519627  0.82921357  1  -1.264667  0  -0.426307  -0.763748  0  2.383396  0
O  O58  1  0.90480848  0.08231868  0.57921740  1  -1.264801  0  -0.426331  -0.763739  0  2.383408  0
O  O59  1  0.09519295  0.91768142  0.07922103  1  -1.263833  0  -0.426292  -0.763712  0  2.38343  0
O  O60  1  0.08290600  0.72177102  0.75016087  1  -1.184867  0  -0.377493  -0.618998  0  2.17238  0
O  O61  1  0.91709411  0.27822634  0.25015963  1  -1.1848  0  -0.377475  -0.618969  0  2.172469  0
O  O62  1  0.27822623  0.08289567  0.50016355  1  -1.184842  0  -0.377497  -0.619017  0  2.172236  0
O  O63  1  0.72177443  0.91710628  0.00016207  1  -1.184805  0  -0.377477  -0.618962  0  2.172331  0
O  O64  1  0.91709607  0.72177087  0.24983857  1  -1.184879  0  -0.3775  -0.619059  0  2.172327  0
O  O65  1  0.08290309  0.27823123  0.74983821  1  -1.18491  0  -0.377467  -0.618973  0  2.172394  0
O  O66  1  0.72177577  0.08290047  0.49983853  1  -1.18483  0  -0.377516  -0.618976  0  2.172292  0
O  O67  1  0.27822094  0.91711222  0.99983743  1  -1.184809  0  -0.377593  -0.619079  0  2.172362  0
O  O68  1  0.08574346  0.31765264  0.54858844  1  -1.197025  0  -0.40674  -0.673282  0  2.261286  0
O  O69  1  0.91425330  0.68234650  0.04858879  1  -1.197045  0  -0.406746  -0.673302  0  2.261169  0
O  O70  1  0.68234891  0.08574134  0.29859022  1  -1.197009  0  -0.406771  -0.673328  0  2.261241  0
O  O71  1  0.31765583  0.91425226  0.79859266  1  -1.197077  0  -0.406766  -0.673278  0  2.261243  0
O  O72  1  0.91425391  0.31765260  0.45140798  1  -1.197065  0  -0.406753  -0.673293  0  2.261386  0
O  O73  1  0.08574385  0.68235058  0.95140919  1  -1.197068  0  -0.406779  -0.673307  0  2.261356  0
O  O74  1  0.31765499  0.08574252  0.70141258  1  -1.197282  0  -0.406746  -0.673259  0  2.261275  0
O  O75  1  0.68234237  0.91425196  0.20140972  1  -1.196959  0  -0.406766  -0.673305  0  2.261296  0
