# generated using pymatgen
data_NiH12C12(SN3)2
_symmetry_space_group_name_H-M   'P 1'
_cell_length_a   7.86038720
_cell_length_b   9.30328048
_cell_length_c   10.00665549
_cell_angle_alpha   101.72936219
_cell_angle_beta   91.31298412
_cell_angle_gamma   101.68271952
_symmetry_Int_Tables_number   1
_chemical_formula_structural   NiH12C12(SN3)2
_chemical_formula_sum   'Ni2 H24 C24 S4 N12'
_cell_volume   700.06927161
_cell_formula_units_Z   2
loop_
 _symmetry_equiv_pos_site_id
 _symmetry_equiv_pos_as_xyz
  1  'x, y, z'
loop_
 _atom_site_type_symbol
 _atom_site_label
 _atom_site_symmetry_multiplicity
 _atom_site_fract_x
 _atom_site_fract_y
 _atom_site_fract_z
 _atom_site_occupancy
 _atom_site_pbe_cm5_charge
 _atom_site_pbe_ddec_charge
 _atom_site_pbe_ddec_spin_density
 _atom_site_pbe_ddec_sum_bond_order
 _atom_site_pbe_magmom
Ni  Ni0  1  0.49999767  0.50000102  0.00000128  1  0.595844  0.589091  -1.683544  2.859763  -1.406
Ni  Ni1  1  0.50000037  0.99999911  0.50000184  1  0.679013  0.674814  1.714821  2.669459  1.452
H  H2  1  0.46198432  0.54220638  0.30942356  1  0.110972  0.079764  -0.000783  1.039097  -0.001
H  H3  1  0.53801796  0.45779627  0.69057867  1  0.110975  0.079797  -0.000783  1.039141  -0.001
H  H4  1  0.36112860  0.38495681  0.47872699  1  0.107322  0.122914  -0.000457  1.014535  -0.001
H  H5  1  0.63887876  0.61504583  0.52127834  1  0.107298  0.122885  -0.000457  1.014581  -0.001
H  H6  1  0.28637884  0.99575622  0.14572588  1  0.102171  0.117731  -0.001058  1.032887  -0.001
H  H7  1  0.71361963  0.00424648  0.85427829  1  0.102155  0.117716  -0.001058  1.032889  -0.001
H  H8  1  0.38402928  0.17023136  0.99125213  1  0.110127  0.079711  -0.000872  1.034316  -0.001
H  H9  1  0.61596579  0.82976794  0.00874636  1  0.110164  0.079753  -0.000871  1.034298  -0.001
H  H10  1  0.19489803  0.98215921  0.37648787  1  0.285534  0.280573  -0.000104  0.988219  -0.001
H  H11  1  0.80510171  0.01784347  0.62351532  1  0.285516  0.280578  -0.000104  0.988197  -0.001
H  H12  1  0.22469607  0.13381211  0.50616599  1  0.275519  0.269784  -4.9e-05  1.014954  -0.001
H  H13  1  0.77530465  0.86618943  0.49383702  1  0.275492  0.269742  -4.9e-05  1.014891  -0.001
H  H14  1  0.29281099  0.06396963  0.75517997  1  0.105856  0.077371  0.000761  1.060868  0.001
H  H15  1  0.70718761  0.93602853  0.24481938  1  0.105855  0.077374  0.000761  1.06084  0.001
H  H16  1  0.09622158  0.92368662  0.89575381  1  0.099704  0.116156  0.000519  1.011189  0.0
H  H17  1  0.90377731  0.07631267  0.10424674  1  0.0997  0.116154  0.00052  1.011188  0.0
H  H18  1  0.11516578  0.51737796  0.60018625  1  0.090716  0.10734  0.000465  1.070972  0.001
H  H19  1  0.88483451  0.48261683  0.39981352  1  0.09072  0.107339  0.000466  1.070899  0.001
H  H20  1  0.30879670  0.67671164  0.47170005  1  0.106544  0.073797  0.000945  1.045914  0.001
H  H21  1  0.69120571  0.32328652  0.52830237  1  0.106548  0.073789  0.000945  1.045912  0.001
H  H22  1  0.94929557  0.50832432  0.80528295  1  0.28618  0.284288  6.4e-05  1.011036  0.0
H  H23  1  0.05070359  0.49167611  0.19471982  1  0.286229  0.284387  6.4e-05  1.010994  0.0
H  H24  1  0.94041470  0.66857540  0.92463286  1  0.307867  0.310887  -0.000128  0.938807  0.0
H  H25  1  0.05958475  0.33142613  0.07536712  1  0.307859  0.31089  -0.000128  0.938774  0.0
C  C26  1  0.38381800  0.76286539  0.23055581  1  0.150674  0.235897  0.002006  4.299862  0.012
C  C27  1  0.61618584  0.23713834  0.76944165  1  0.150681  0.235842  0.002005  4.299849  0.012
C  C28  1  0.19245305  0.31897086  0.78530877  1  0.142268  0.255981  0.000969  4.300965  -0.003
C  C29  1  0.80754046  0.68102740  0.21469748  1  0.142161  0.255796  0.000969  4.300916  -0.003
C  C30  1  0.42060097  0.42060755  0.27736645  1  0.041307  0.098789  -0.000454  3.978792  -0.001
C  C31  1  0.57940737  0.57939395  0.72263770  1  0.041333  0.098732  -0.000454  3.97897  -0.001
C  C32  1  0.36581165  0.33296327  0.37138605  1  -0.093001  -0.228691  0.005491  3.922989  0.005
C  C33  1  0.63419317  0.66703938  0.62861823  1  -0.09299  -0.228643  0.005492  3.923231  0.005
C  C34  1  0.31758452  0.17635852  0.32671225  1  0.11247  0.331048  0.001611  4.006721  0.0
C  C35  1  0.68241522  0.82364415  0.67329094  1  0.112476  0.330964  0.001611  4.00692  0.0
C  C36  1  0.32248748  0.11659933  0.18652523  1  -0.095534  -0.226612  0.005108  3.91764  0.005
C  C37  1  0.67751451  0.88340220  0.81347680  1  -0.095566  -0.226632  0.005108  3.917745  0.005
C  C38  1  0.37778979  0.21331288  0.10023454  1  0.038423  0.096799  -0.000527  3.979106  -0.001
C  C39  1  0.62221376  0.78668978  0.89976872  1  0.038437  0.096824  -0.000527  3.979047  -0.001
C  C40  1  0.25071758  0.94254124  0.72420628  1  0.025329  0.087047  0.000245  4.015153  -0.001
C  C41  1  0.74928229  0.05745692  0.27579409  1  0.02527  0.086946  0.000245  4.015243  -0.001
C  C42  1  0.14164165  0.86347586  0.80296614  1  -0.115212  -0.271798  0.002472  3.971904  0.003
C  C43  1  0.85835850  0.13652341  0.19703344  1  -0.115171  -0.271755  0.002472  3.971888  0.003
C  C44  1  0.08926069  0.70531487  0.76216365  1  0.120083  0.366117  -0.001457  4.083662  -0.002
C  C45  1  0.91073946  0.29468441  0.23783693  1  0.120074  0.36618  -0.001457  4.083639  -0.002
C  C46  1  0.15124911  0.63861124  0.63817416  1  -0.113257  -0.25885  0.002512  3.940565  0.003
C  C47  1  0.84874765  0.36138470  0.36182574  1  -0.113283  -0.258941  0.002512  3.940676  0.003
C  C48  1  0.26011516  0.72705318  0.56698380  1  0.026915  0.099857  0.000157  4.018506  -0.001
C  C49  1  0.73988315  0.27294387  0.43301633  1  0.026928  0.099948  0.000157  4.018565  -0.001
S  S50  1  0.29326663  0.66685868  0.08301817  1  -0.096124  -0.246012  -0.055178  2.67824  -0.062
S  S51  1  0.70673126  0.33314176  0.91698357  1  -0.096117  -0.245986  -0.055174  2.678179  -0.062
S  S52  1  0.04367300  0.24582032  0.66079973  1  -0.143652  -0.332874  -0.00097  2.423725  -0.002
S  S53  1  0.95632022  0.75417682  0.33920631  1  -0.143639  -0.332844  -0.000969  2.423771  -0.002
N  N54  1  0.45062108  0.83174919  0.33824493  1  -0.394936  -0.455647  0.010148  3.362407  0.012
N  N55  1  0.54937879  0.16824896  0.66175444  1  -0.394956  -0.455624  0.010149  3.362462  0.012
N  N56  1  0.30174242  0.37519693  0.87464084  1  -0.397831  -0.456839  -0.037056  3.388773  -0.049
N  N57  1  0.69824982  0.62480133  0.12536539  1  -0.397759  -0.45667  -0.037058  3.388588  -0.049
N  N58  1  0.42774308  0.36349981  0.14342976  1  -0.331915  -0.237681  -0.039399  3.606207  -0.058
N  N59  1  0.57225863  0.63650061  0.85657306  1  -0.331953  -0.237689  -0.039398  3.606185  -0.058
N  N60  1  0.27612823  0.08298849  0.41945702  1  -0.576072  -0.560363  0.042244  3.435501  0.059
N  N61  1  0.72387347  0.91701193  0.58054680  1  -0.576041  -0.560221  0.042245  3.435327  0.059
N  N62  1  0.31318702  0.87781906  0.60730353  1  -0.349378  -0.268206  0.047931  3.558393  0.07
N  N63  1  0.68681510  0.12217797  0.39269768  1  -0.349345  -0.268189  0.047932  3.55846  0.07
N  N64  1  0.98553214  0.62184660  0.83584626  1  -0.576462  -0.580241  -0.000802  3.411594  -0.001
N  N65  1  0.01446986  0.37815493  0.16415576  1  -0.576515  -0.580382  -0.000801  3.411591  -0.001
