# generated using pymatgen
data_Cd3H40C50(NO3)4
_symmetry_space_group_name_H-M   'P 1'
_cell_length_a   12.87795153
_cell_length_b   16.46149527
_cell_length_c   16.78704075
_cell_angle_alpha   90.74640115
_cell_angle_beta   112.54771205
_cell_angle_gamma   89.99099125
_symmetry_Int_Tables_number   1
_chemical_formula_structural   Cd3H40C50(NO3)4
_chemical_formula_sum   'Cd6 H80 C100 N8 O24'
_cell_volume   3286.34208812
_cell_formula_units_Z   2
loop_
 _symmetry_equiv_pos_site_id
 _symmetry_equiv_pos_as_xyz
  1  'x, y, z'
loop_
 _atom_site_type_symbol
 _atom_site_label
 _atom_site_symmetry_multiplicity
 _atom_site_fract_x
 _atom_site_fract_y
 _atom_site_fract_z
 _atom_site_occupancy
 _atom_site_pbe_bader_charge
 _atom_site_pbe_bader_spin_density
 _atom_site_pbe_cm5_charge
 _atom_site_pbe_ddec_charge
 _atom_site_pbe_ddec_spin_density
 _atom_site_pbe_ddec_sum_bond_order
 _atom_site_pbe_magmom
Cd  Cd0  1  0.08412054  0.76162915  0.78591106  1  1.269271  0  0.75866  0.835684  0  2.298411  0
Cd  Cd1  1  0.29797828  0.73835784  0.21428292  1  1.268752  0  0.758675  0.835768  0  2.297852  0
Cd  Cd2  1  0.91587737  0.23837088  0.21409117  1  1.269068  0  0.758605  0.835639  0  2.29827  0
Cd  Cd3  1  0.70199926  0.26162581  0.78570300  1  1.268502  0  0.758747  0.835921  0  2.297552  0
Cd  Cd4  1  0.27800447  0.75016322  0.00013491  1  1.421085  0  0.815714  1.157841  0  2.127583  0
Cd  Cd5  1  0.72199699  0.24983377  0.99986831  1  1.421093  0  0.815653  1.157634  0  2.127502  0
H  H6  1  0.29164035  0.56071346  0.69608249  1  0.084881  0  0.094707  0.095343  0  1.024828  0
H  H7  1  0.42620045  0.44387680  0.71535426  1  0.084675  0  0.096657  0.096324  0  1.036645  0
H  H8  1  0.44856137  0.41542534  0.97459892  1  0.109519  0  0.104885  0.112281  0  1.004584  0
H  H9  1  0.31871649  0.53394130  0.95713533  1  0.09546  0  0.105159  0.111508  0  1.00494  0
H  H10  1  0.86268150  0.97734966  0.85001654  1  0.101064  0  0.097714  0.100036  0  1.021915  0
H  H11  1  0.16786726  0.91054925  0.05917048  1  0.124205  0  0.099041  0.112894  0  1.052679  0
H  H12  1  0.97114848  0.59921911  0.68635634  1  0.118079  0  0.116492  0.092407  0  0.993123  0
H  H13  1  0.80671048  0.50576020  0.65917607  1  0.051597  0  0.10709  0.113889  0  0.999703  0
H  H14  1  0.71874684  0.65328495  0.83794944  1  0.079643  0  0.114398  0.124219  0  0.97829  0
H  H15  1  0.88450859  0.74171435  0.85565390  1  0.118429  0  0.119881  0.093116  0  0.987788  0
H  H16  1  0.52973779  0.71934675  0.36656405  1  0.10273  0  0.122622  0.100617  0  0.981151  0
H  H17  1  0.62079016  0.67952310  0.52220997  1  0.035526  0  0.107734  0.115436  0  0.994439  0
H  H18  1  0.28850895  0.63099574  0.51638086  1  0.076045  0  0.109739  0.119675  0  0.989036  0
H  H19  1  0.21207557  0.67156553  0.36054917  1  0.060972  0  0.120074  0.09166  0  0.981481  0
H  H20  1  0.60501687  0.53481006  0.77267684  1  0.04012  0  0.097431  0.104131  0  0.982863  0
H  H21  1  0.66559439  0.45717923  0.73112949  1  0.107898  0  0.100335  0.119009  0  1.006713  0
H  H22  1  0.59952573  0.52856508  0.58780685  1  0.003326  0  0.084934  0.071305  0  1.012039  0
H  H23  1  0.48785297  0.49604041  0.61576962  1  0.030801  0  0.089334  0.082521  0  0.997025  0
H  H24  1  0.58518759  0.66836657  0.65883644  1  0.036774  0  0.095397  0.09718  0  0.997139  0
H  H25  1  0.45440344  0.63319048  0.65690526  1  0.040129  0  0.098941  0.104241  0  0.974444  0
H  H26  1  0.59503121  0.93924075  0.30372462  1  0.07404  0  0.094853  0.09612  0  1.024466  0
H  H27  1  0.71057402  0.05588340  0.28443376  1  0.107851  0  0.096877  0.096619  0  1.036343  0
H  H28  1  0.47351857  0.08473558  0.02535001  1  0.114903  0  0.104976  0.112537  0  1.004678  0
H  H29  1  0.36119266  0.96612851  0.04265727  1  0.08238  0  0.105085  0.111244  0  1.006604  0
H  H30  1  0.01312794  0.52200246  0.15020110  1  0.061871  0  0.097447  0.099537  0  1.022535  0
H  H31  1  0.10814596  0.58993069  0.94082678  1  0.126502  0  0.099022  0.112197  0  1.052251  0
H  H32  1  0.28423759  0.90111791  0.31290438  1  0.150736  0  0.116501  0.0926  0  0.992851  0
H  H33  1  0.14665251  0.99436234  0.34012924  1  0.054586  0  0.107004  0.113473  0  0.999397  0
H  H34  1  0.88037666  0.84605160  0.16200953  1  0.068584  0  0.114056  0.124209  0  0.978327  0
H  H35  1  0.02875129  0.75756479  0.14481015  1  0.113038  0  0.119856  0.093244  0  0.989034  0
H  H36  1  0.16397611  0.78075122  0.63377051  1  0.11069  0  0.12261  0.1007  0  0.981655  0
H  H37  1  0.09926813  0.82024484  0.47803432  1  0.056575  0  0.107605  0.115216  0  0.994509  0
H  H38  1  0.77277363  0.86867749  0.48392209  1  0.111053  0  0.109463  0.11913  0  0.989865  0
H  H39  1  0.85216027  0.82800069  0.63969666  1  0.074836  0  0.119956  0.091465  0  0.981551  0
H  H40  1  0.83173130  0.96486355  0.22741257  1  0.046558  0  0.097287  0.104131  0  0.982539  0
H  H41  1  0.93381983  0.04248176  0.26876834  1  0.075155  0  0.100516  0.119221  0  1.00625  0
H  H42  1  0.01178035  0.97107728  0.41196032  1  0.022247  0  0.084927  0.071775  0  1.012114  0
H  H43  1  0.87216080  0.00344032  0.38451173  1  0.003596  0  0.089491  0.082592  0  0.996731  0
H  H44  1  0.92707838  0.83121983  0.34145259  1  0.0507  0  0.095282  0.096724  0  0.996689  0
H  H45  1  0.79799275  0.86604378  0.34330162  1  0.040095  0  0.099312  0.104529  0  0.973969  0
H  H46  1  0.70833659  0.43926836  0.30390954  1  0.084727  0  0.094699  0.095329  0  1.024738  0
H  H47  1  0.57376993  0.55610077  0.28463874  1  0.084534  0  0.0967  0.096207  0  1.036799  0
H  H48  1  0.55147125  0.58460140  0.02541638  1  0.109555  0  0.104813  0.112324  0  1.004692  0
H  H49  1  0.68130536  0.46607938  0.04287083  1  0.095708  0  0.10514  0.111567  0  1.004877  0
H  H50  1  0.13735207  0.02265341  0.14998101  1  0.100862  0  0.09763  0.099975  0  1.021931  0
H  H51  1  0.83215793  0.08944714  0.94082705  1  0.124574  0  0.099022  0.112865  0  1.052695  0
H  H52  1  0.02883129  0.40081067  0.31365996  1  0.117465  0  0.116576  0.092564  0  0.993197  0
H  H53  1  0.19328350  0.49425923  0.34085098  1  0.050965  0  0.107136  0.113943  0  0.999561  0
H  H54  1  0.28122280  0.34674302  0.16205754  1  0.079784  0  0.114341  0.124201  0  0.978471  0
H  H55  1  0.11546879  0.25831178  0.14436585  1  0.119083  0  0.12007  0.093502  0  0.98774  0
H  H56  1  0.47026298  0.28064357  0.63342919  1  0.102818  0  0.122601  0.10056  0  0.981095  0
H  H57  1  0.37921382  0.32049151  0.47779256  1  0.035533  0  0.107821  0.11559  0  0.994353  0
H  H58  1  0.71149562  0.36901826  0.48362562  1  0.075887  0  0.109687  0.119698  0  0.988998  0
H  H59  1  0.78792588  0.32843146  0.63945068  1  0.06098  0  0.120041  0.091659  0  0.981278  0
H  H60  1  0.39496049  0.46521486  0.22733784  1  0.040255  0  0.097454  0.104107  0  0.982661  0
H  H61  1  0.33439126  0.54284082  0.26889344  1  0.107728  0  0.100426  0.11913  0  1.006798  0
H  H62  1  0.40046155  0.47143858  0.41220748  1  0.00284  0  0.084908  0.071377  0  1.01238  0
H  H63  1  0.51212613  0.50397843  0.38424927  1  0.030468  0  0.08934  0.082598  0  0.997037  0
H  H64  1  0.41480867  0.33165047  0.34116513  1  0.037048  0  0.095398  0.097181  0  0.99722  0
H  H65  1  0.54558993  0.36683811  0.34309184  1  0.039925  0  0.098949  0.104238  0  0.974547  0
H  H66  1  0.40495894  0.06075319  0.69628409  1  0.074408  0  0.094857  0.095987  0  1.024245  0
H  H67  1  0.28940316  0.94411964  0.71558224  1  0.108083  0  0.096796  0.096564  0  1.03617  0
H  H68  1  0.52649745  0.91522739  0.97465152  1  0.114523  0  0.104955  0.112503  0  1.004444  0
H  H69  1  0.63883641  0.03383324  0.95734217  1  0.082493  0  0.105065  0.111182  0  1.00649  0
H  H70  1  0.98684541  0.47797938  0.84977978  1  0.061416  0  0.097425  0.099583  0  1.022341  0
H  H71  1  0.89182861  0.41005540  0.05915367  1  0.126601  0  0.098983  0.112129  0  1.052335  0
H  H72  1  0.71576179  0.09884689  0.68708977  1  0.151262  0  0.116525  0.092624  0  0.992944  0
H  H73  1  0.85336238  0.00560669  0.65987710  1  0.054972  0  0.107127  0.113534  0  0.999151  0
H  H74  1  0.11960882  0.15396550  0.83795518  1  0.068154  0  0.114042  0.124324  0  0.978142  0
H  H75  1  0.97122045  0.24245113  0.85512988  1  0.112872  0  0.11982  0.093325  0  0.989002  0
H  H76  1  0.83603136  0.21925061  0.36624381  1  0.110486  0  0.122613  0.100655  0  0.981706  0
H  H77  1  0.90075295  0.17975152  0.52198096  1  0.056639  0  0.107649  0.115212  0  0.994455  0
H  H78  1  0.22723605  0.13131039  0.51607499  1  0.111034  0  0.109463  0.119059  0  0.989936  0
H  H79  1  0.14784602  0.17200602  0.36030558  1  0.074761  0  0.120015  0.09157  0  0.981476  0
H  H80  1  0.16827909  0.03513647  0.77259205  1  0.045916  0  0.097289  0.104173  0  0.982597  0
H  H81  1  0.06619464  0.95751038  0.73122852  1  0.075189  0  0.100542  0.119277  0  1.006139  0
H  H82  1  0.98824487  0.02892154  0.58803557  1  0.022576  0  0.084956  0.071677  0  1.012022  0
H  H83  1  0.12786741  0.99655970  0.61549221  1  0.003466  0  0.089445  0.082521  0  0.996991  0
H  H84  1  0.07294624  0.16877654  0.65855446  1  0.051385  0  0.095326  0.096789  0  0.996646  0
H  H85  1  0.20202834  0.13395746  0.65670194  1  0.039667  0  0.099351  0.104598  0  0.974014  0
C  C86  1  0.29843239  0.55438811  0.82562989  1  -0.029755  0  -0.018392  -0.026053  0  3.969281  0
C  C87  1  0.32739679  0.52843473  0.75686651  1  -0.047039  0  -0.094651  -0.110122  0  4.009448  0
C  C88  1  0.40099634  0.46401760  0.76734554  1  -0.097278  0  -0.094398  -0.110734  0  4.017803  0
C  C89  1  0.44610677  0.42387727  0.84639405  1  -0.017055  0  -0.017806  -0.02816  0  3.954324  0
C  C90  1  0.41360988  0.44768328  0.91387466  1  -0.053656  0  -0.083654  -0.093818  0  3.967232  0
C  C91  1  0.34118559  0.51309584  0.90398311  1  -0.016019  0  -0.081613  -0.090266  0  3.95882  0
C  C92  1  0.22255414  0.62579826  0.81358877  1  1.521175  0  0.200336  0.581662  0  4.181386  0
C  C93  1  0.53357331  0.35891538  0.85979321  1  1.582395  0  0.20778  0.592031  0  4.204137  0
C  C94  1  0.01646639  0.93746736  0.94903542  1  -0.071031  0  -0.019276  -0.030657  0  3.978075  0
C  C95  1  0.92209301  0.98788271  0.91592346  1  -0.059948  0  -0.089996  -0.09858  0  3.986739  0
C  C96  1  0.09453520  0.94973154  0.03364244  1  -0.014825  0  -0.090274  -0.100856  0  3.961184  0
C  C97  1  0.03353359  0.87218253  0.89283904  1  1.515969  0  0.19986  0.580902  0  4.185376  0
C  C98  1  0.91147610  0.60926237  0.71734668  1  0.499524  0  0.042657  0.084978  0  3.979222  0
C  C99  1  0.82060437  0.55771959  0.70306785  1  -0.060953  0  -0.084201  -0.185051  0  3.954576  0
C  C100  1  0.74736302  0.57260715  0.74552142  1  -0.039921  0  0.0181  0.180868  0  3.936862  0
C  C101  1  0.77196931  0.63926350  0.80238024  1  0.027136  0  -0.083088  -0.193227  0  3.952199  0
C  C102  1  0.86426329  0.68855001  0.81290107  1  0.448081  0  0.051479  0.104557  0  3.969102  0
C  C103  1  0.48017996  0.69925220  0.40284182  1  0.515403  0  0.051604  0.102935  0  3.951648  0
C  C104  1  0.52947477  0.67709735  0.48883901  1  -0.023045  0  -0.08746  -0.197614  0  3.95565  0
C  C105  1  0.46162220  0.65219528  0.53252793  1  0.021178  0  0.014314  0.175171  0  3.958395  0
C  C106  1  0.34523518  0.64998599  0.48565519  1  -0.007348  0  -0.090006  -0.202817  0  3.96621  0
C  C107  1  0.30220918  0.67280844  0.39948719  1  0.47633  0  0.046658  0.088937  0  3.987412  0
C  C108  1  0.64343205  0.52188660  0.72562448  1  -0.022787  0  -0.159499  -0.215575  0  3.918918  0
C  C109  1  0.55863273  0.53920949  0.63383369  1  0.005213  0  -0.156717  -0.123382  0  3.913737  0
C  C110  1  0.51432841  0.62697328  0.62491748  1  -0.040228  0  -0.158251  -0.208836  0  3.943184  0
C  C111  1  0.47234682  0.94563461  0.17418743  1  -0.011283  0  -0.018475  -0.027208  0  3.970838  0
C  C112  1  0.57011710  0.97151883  0.24296852  1  -0.052962  0  -0.095144  -0.111398  0  4.011091  0
C  C113  1  0.63333398  0.03584919  0.23247843  1  -0.032527  0  -0.094678  -0.11117  0  4.017251  0
C  C114  1  0.59928927  0.07606907  0.15344224  1  -0.05918  0  -0.01721  -0.02601  0  3.95178  0
C  C115  1  0.49926034  0.05236589  0.08598702  1  -0.117681  0  -0.083995  -0.095614  0  3.968706  0
C  C116  1  0.43672963  0.98694655  0.09581544  1  0.001538  0  -0.081237  -0.088261  0  3.95959  0
C  C117  1  0.40851416  0.87431970  0.18631960  1  1.532913  0  0.200642  0.582863  0  4.180273  0
C  C118  1  0.67340654  0.14097987  0.14006446  1  1.593378  0  0.207656  0.590201  0  4.206174  0
C  C119  1  0.06734078  0.56251051  0.05106327  1  0.047104  0  -0.019426  -0.031172  0  3.977108  0
C  C120  1  0.00641216  0.51178252  0.08418516  1  -0.094604  0  -0.089647  -0.097791  0  3.985119  0
C  C121  1  0.06056408  0.55053714  0.96634172  1  -0.044386  0  -0.090272  -0.100019  0  3.961683  0
C  C122  1  0.14048076  0.62783883  0.10726638  1  1.510835  0  0.199268  0.57965  0  4.186757  0
C  C123  1  0.19360150  0.89082092  0.28216097  1  0.405721  0  0.042293  0.084032  0  3.977421  0
C  C124  1  0.11679353  0.94225050  0.29639979  1  0.004741  0  -0.084349  -0.18422  0  3.953562  0
C  C125  1  0.00114901  0.92711754  0.25413854  1  0.015818  0  0.018867  0.181612  0  3.937086  0
C  C126  1  0.96909478  0.86028631  0.19749420  1  -0.054608  0  -0.08284  -0.192886  0  3.952426  0
C  C127  1  0.05101398  0.81099878  0.18716095  1  0.464695  0  0.050819  0.103164  0  3.968797  0
C  C128  1  0.07811851  0.80073804  0.59746215  1  0.464242  0  0.051689  0.10315  0  3.952083  0
C  C129  1  0.04134824  0.82274764  0.51142485  1  -0.019424  0  -0.087709  -0.198203  0  3.957057  0
C  C130  1  0.92974304  0.84749949  0.46771261  1  -0.006531  0  0.014404  0.175335  0  3.95929  0
C  C131  1  0.86025657  0.84972168  0.51461124  1  -0.115457  0  -0.089772  -0.202054  0  3.966985  0
C  C132  1  0.90340301  0.82688099  0.60077760  1  0.522341  0  0.046356  0.08835  0  3.988504  0
C  C133  1  0.91723965  0.97777908  0.27427954  1  0.000426  0  -0.159635  -0.215742  0  3.918857  0
C  C134  1  0.92475447  0.96037898  0.36617285  1  0.015445  0  -0.156422  -0.124279  0  3.91518  0
C  C135  1  0.88985511  0.87254041  0.37527031  1  -0.021436  0  -0.158229  -0.207888  0  3.942092  0
C  C136  1  0.70157448  0.44561738  0.17437377  1  -0.029845  0  -0.018378  -0.026207  0  3.969581  0
C  C137  1  0.67259207  0.47155134  0.24312824  1  -0.046923  0  -0.094687  -0.110136  0  4.009678  0
C  C138  1  0.59899433  0.53596846  0.23265437  1  -0.097612  0  -0.094446  -0.110575  0  4.017825  0
C  C139  1  0.55389353  0.57612276  0.15361056  1  -0.017206  0  -0.017757  -0.028127  0  3.954196  0
C  C140  1  0.58641491  0.55233253  0.08613524  1  -0.053521  0  -0.083634  -0.094107  0  3.967691  0
C  C141  1  0.65883083  0.48691390  0.09602342  1  -0.016209  0  -0.081561  -0.090141  0  3.958748  0
C  C142  1  0.77744913  0.37420420  0.18641380  1  1.5215  0  0.200448  0.582094  0  4.18098  0
C  C143  1  0.46642816  0.64108404  0.14020921  1  1.58279  0  0.207936  0.592383  0  4.203849  0
C  C144  1  0.98356129  0.06254362  0.05095883  1  -0.06876  0  -0.019428  -0.030751  0  3.977516  0
C  C145  1  0.07793999  0.01212340  0.08407355  1  -0.060182  0  -0.089876  -0.098477  0  3.985961  0
C  C146  1  0.90549301  0.05027032  0.96635310  1  -0.01693  0  -0.090132  -0.100714  0  3.961252  0
C  C147  1  0.96648691  0.12782116  0.10715469  1  1.515141  0  0.199703  0.58078  0  4.185415  0
C  C148  1  0.08850423  0.39076194  0.28267096  1  0.500426  0  0.04254  0.08501  0  3.979107  0
C  C149  1  0.17938664  0.44230228  0.29695205  1  -0.060013  0  -0.084161  -0.185098  0  3.954441  0
C  C150  1  0.25262087  0.42741716  0.25449559  1  -0.040967  0  0.018077  0.180767  0  3.937332  0
C  C151  1  0.22800333  0.36076689  0.19763145  1  0.027271  0  -0.083041  -0.193055  0  3.95257  0
C  C152  1  0.13571766  0.31147733  0.18711469  1  0.447868  0  0.051169  0.103984  0  3.969613  0
C  C153  1  0.51982209  0.30074662  0.59715444  1  0.515413  0  0.051711  0.103153  0  3.951674  0
C  C154  1  0.47052439  0.32290997  0.51116200  1  -0.023016  0  -0.08746  -0.197771  0  3.955579  0
C  C155  1  0.53837941  0.34782176  0.46747394  1  0.020962  0  0.014265  0.17514  0  3.958187  0
C  C156  1  0.65476695  0.35002194  0.51434712  1  -0.007094  0  -0.090052  -0.202962  0  3.966053  0
C  C157  1  0.69778933  0.32719341  0.60051229  1  0.476168  0  0.046768  0.088973  0  3.987141  0
C  C158  1  0.35655010  0.47814196  0.27439334  1  -0.022929  0  -0.159758  -0.21586  0  3.919127  0
C  C159  1  0.44135469  0.46081056  0.36618344  1  0.005619  0  -0.156703  -0.1236  0  3.91395  0
C  C160  1  0.48566905  0.37304315  0.37508611  1  -0.039912  0  -0.158106  -0.208544  0  3.943274  0
C  C161  1  0.52766206  0.05432592  0.82581871  1  -0.008877  0  -0.018387  -0.027119  0  3.971443  0
C  C162  1  0.42988846  0.02846781  0.75704714  1  -0.053113  0  -0.095157  -0.111159  0  4.011327  0
C  C163  1  0.36666985  0.96414413  0.76753808  1  -0.03242  0  -0.094627  -0.111211  0  4.017561  0
C  C164  1  0.40071928  0.92392305  0.84656552  1  -0.059402  0  -0.017283  -0.02609  0  3.95254  0
C  C165  1  0.50075156  0.94760438  0.91400371  1  -0.045583  0  -0.083807  -0.095284  0  3.968573  0
C  C166  1  0.56327809  0.01302068  0.90417698  1  -0.072892  0  -0.0814  -0.088593  0  3.960082  0
C  C167  1  0.59149003  0.12564935  0.81368107  1  1.532884  0  0.200761  0.582942  0  4.179108  0
C  C168  1  0.32658715  0.85901226  0.85993599  1  1.593425  0  0.207794  0.590455  0  4.205828  0
C  C169  1  0.93263022  0.43747498  0.94891697  1  0.046575  0  -0.01936  -0.031112  0  3.977137  0
C  C170  1  0.99356418  0.48820113  0.91579873  1  -0.094905  0  -0.089663  -0.097824  0  3.984944  0
C  C171  1  0.93941346  0.44944835  0.03363918  1  -0.045106  0  -0.090284  -0.099941  0  3.961792  0
C  C172  1  0.85949676  0.37214604  0.89271282  1  1.509927  0  0.199123  0.579345  0  4.186807  0
C  C173  1  0.80639320  0.10915666  0.71782104  1  0.405812  0  0.042062  0.08379  0  3.97736  0
C  C174  1  0.88320837  0.05773071  0.70359618  1  0.003757  0  -0.084382  -0.184097  0  3.953092  0
C  C175  1  0.99884590  0.07288433  0.74584641  1  0.015866  0  0.01891  0.181608  0  3.936944  0
C  C176  1  0.03089299  0.13972046  0.80247273  1  -0.054193  0  -0.083004  -0.193244  0  3.952142  0
C  C177  1  0.94896665  0.18900922  0.81279463  1  0.46532  0  0.051006  0.103199  0  3.968717  0
C  C178  1  0.92189372  0.19926562  0.40255107  1  0.463379  0  0.05165  0.103165  0  3.952147  0
C  C179  1  0.95866987  0.17724995  0.48858578  1  -0.019461  0  -0.087692  -0.198081  0  3.957226  0
C  C180  1  0.07027389  0.15250053  0.53229350  1  -0.007033  0  0.014332  0.175198  0  3.959443  0
C  C181  1  0.13975260  0.15027470  0.48539382  1  -0.1148  0  -0.089795  -0.201968  0  3.967184  0
C  C182  1  0.09660623  0.17312328  0.39922674  1  0.52194  0  0.046295  0.088172  0  3.988682  0
C  C183  1  0.08277308  0.02221853  0.72571899  1  0.000762  0  -0.159605  -0.215778  0  3.918734  0
C  C184  1  0.07527313  0.03962105  0.63382628  1  -0.000318  0  -0.156491  -0.124237  0  3.915402  0
C  C185  1  0.11017134  0.12746022  0.62473691  1  -0.006197  0  -0.158306  -0.207938  0  3.94225  0
N  N186  1  0.93241475  0.67440366  0.77064873  1  -1.243519  0  -0.332488  -0.248522  0  3.526546  0
N  N187  1  0.36820927  0.69733163  0.35889611  1  -1.22876  0  -0.327808  -0.229771  0  3.50224  0
N  N188  1  0.16140403  0.82540756  0.22920010  1  -1.221399  0  -0.332107  -0.247332  0  3.525344  0
N  N189  1  0.01005410  0.80252966  0.64139410  1  -1.205419  0  -0.327567  -0.228861  0  3.503238  0
N  N190  1  0.06756499  0.32562187  0.22936665  1  -1.243452  0  -0.332376  -0.248578  0  3.526925  0
N  N191  1  0.63178854  0.30266052  0.64109249  1  -1.228679  0  -0.327988  -0.229965  0  3.502567  0
N  N192  1  0.83858361  0.17458159  0.77076821  1  -1.221753  0  -0.332057  -0.247231  0  3.525208  0
N  N193  1  0.98995397  0.19747644  0.35861077  1  -1.203933  0  -0.327477  -0.228721  0  3.503134  0
O  O194  1  0.20923199  0.65735777  0.87962926  1  -1.187556  0  -0.336838  -0.603328  0  2.338975  0
O  O195  1  0.17152947  0.65240556  0.73780334  1  -1.165251  0  -0.337253  -0.563159  0  2.175978  0
O  O196  1  0.57401092  0.32845187  0.93482916  1  -1.157726  0  -0.330167  -0.57742  0  2.295525  0
O  O197  1  0.56056245  0.34196974  0.79617113  1  -1.171231  0  -0.3321  -0.563283  0  2.293591  0
O  O198  1  0.97514493  0.87293336  0.81230033  1  -1.152715  0  -0.331951  -0.561794  0  2.176338  0
O  O199  1  0.10644951  0.81614642  0.92692945  1  -1.183643  0  -0.343873  -0.6015  0  2.340792  0
O  O200  1  0.32901526  0.84282847  0.12037715  1  -1.197492  0  -0.336827  -0.604123  0  2.341484  0
O  O201  1  0.43341345  0.84767862  0.26211861  1  -1.162068  0  -0.337255  -0.563551  0  2.174606  0
O  O202  1  0.63871812  0.17162037  0.06509577  1  -1.155561  0  -0.330301  -0.577051  0  2.294195  0
O  O203  1  0.76413239  0.15773853  0.20361527  1  -1.184782  0  -0.332201  -0.562806  0  2.294059  0
O  O204  1  0.16266064  0.62707119  0.18782269  1  -1.16877  0  -0.331838  -0.561475  0  2.177363  0
O  O205  1  0.17916693  0.68390213  0.07312185  1  -1.180584  0  -0.343516  -0.601032  0  2.338811  0
O  O206  1  0.79075635  0.34263497  0.12037006  1  -1.18801  0  -0.33686  -0.603429  0  2.338819  0
O  O207  1  0.82850008  0.34761208  0.26220377  1  -1.165128  0  -0.337305  -0.563359  0  2.176067  0
O  O208  1  0.42601324  0.67155969  0.06517924  1  -1.157728  0  -0.330233  -0.577556  0  2.295328  0
O  O209  1  0.43940731  0.65800539  0.20382039  1  -1.171153  0  -0.332199  -0.56347  0  2.293812  0
O  O210  1  0.02486431  0.12707336  0.18769647  1  -1.152558  0  -0.331917  -0.561792  0  2.176353  0
O  O211  1  0.89356564  0.18385726  0.07306819  1  -1.183089  0  -0.343737  -0.601374  0  2.340671  0
O  O212  1  0.67100560  0.15714544  0.87962005  1  -1.196997  0  -0.336725  -0.603932  0  2.340915  0
O  O213  1  0.56658665  0.15230015  0.73787974  1  -1.162482  0  -0.33743  -0.563759  0  2.174011  0
O  O214  1  0.36127253  0.82836448  0.93490159  1  -1.155761  0  -0.330361  -0.577216  0  2.29421  0
O  O215  1  0.23585253  0.84226817  0.79639420  1  -1.184832  0  -0.332278  -0.562908  0  2.294046  0
O  O216  1  0.83731516  0.37292037  0.81215736  1  -1.168012  0  -0.331747  -0.561348  0  2.177169  0
O  O217  1  0.82081654  0.31608396  0.92685574  1  -1.180267  0  -0.34356  -0.600899  0  2.338658  0
