# generated using pymatgen
data_CdH8C10N8O
_symmetry_space_group_name_H-M   'P 1'
_cell_length_a   7.44115336
_cell_length_b   10.46331895
_cell_length_c   16.60901822
_cell_angle_alpha   89.99997935
_cell_angle_beta   90.00014665
_cell_angle_gamma   110.35157899
_symmetry_Int_Tables_number   1
_chemical_formula_structural   CdH8C10N8O
_chemical_formula_sum   'Cd4 H32 C40 N32 O4'
_cell_volume   1212.44004256
_cell_formula_units_Z   4
loop_
 _symmetry_equiv_pos_site_id
 _symmetry_equiv_pos_as_xyz
  1  'x, y, z'
loop_
 _atom_site_type_symbol
 _atom_site_label
 _atom_site_symmetry_multiplicity
 _atom_site_fract_x
 _atom_site_fract_y
 _atom_site_fract_z
 _atom_site_occupancy
 _atom_site_hle17_bader_spin_density
 _atom_site_hle17_ddec_charge
 _atom_site_hle17_ddec_spin_density
 _atom_site_hle17_ddec_sum_bond_order
 _atom_site_hle17_magmom
 _atom_site_hse06_10hf_bader_spin_density
 _atom_site_hse06_10hf_ddec_charge
 _atom_site_hse06_10hf_ddec_spin_density
 _atom_site_hse06_10hf_ddec_sum_bond_order
 _atom_site_hse06_10hf_magmom
 _atom_site_hse06_bader_spin_density
 _atom_site_hse06_ddec_charge
 _atom_site_hse06_ddec_spin_density
 _atom_site_hse06_ddec_sum_bond_order
 _atom_site_hse06_magmom
 _atom_site_pbe_bader_spin_density
 _atom_site_pbe_cm5_charge
 _atom_site_pbe_ddec_charge
 _atom_site_pbe_ddec_spin_density
 _atom_site_pbe_ddec_sum_bond_order
 _atom_site_pbe_magmom
Cd  Cd0  1  0.90968582  0.10267657  0.20771357  1  0  1.021022  0  1.869467  0  0  0.820167  0  2.346041  0  0  0.866867  0  2.304617  0  0  0.802773  0.787476  0  2.373958  0
Cd  Cd1  1  0.59031324  0.89732412  0.70771456  1  0  1.021018  0  1.869449  0  0  0.820164  0  2.346035  0  0  0.866863  0  2.304608  0  0  0.802748  0.787443  0  2.373944  0
Cd  Cd2  1  0.09031673  0.89732457  0.79228640  1  0  1.020963  0  1.869517  0  0  0.820113  0  2.346089  0  0  0.866805  0  2.30468  0  0  0.80273  0.7874  0  2.374002  0
Cd  Cd3  1  0.40968392  0.10267700  0.29228481  1  0  1.021004  0  1.869483  0  0  0.820145  0  2.346078  0  0  0.866851  0  2.304641  0  0  0.802757  0.787451  0  2.373988  0
H  H4  1  0.79585788  0.08937071  0.02773357  1  0  0.086622  0  0.947485  0  0  0.094645  0  1.014217  0  0  0.097197  0  1.011335  0  0  0.116314  0.092778  0  1.016192  0
H  H5  1  0.70414092  0.91062879  0.52773288  1  0  0.086607  0  0.947499  0  0  0.094607  0  1.014261  0  0  0.097157  0  1.011379  0  0  0.116313  0.092739  0  1.016236  0
H  H6  1  0.20414234  0.91062839  0.97226700  1  0  0.086601  0  0.947499  0  0  0.094616  0  1.014245  0  0  0.097166  0  1.011361  0  0  0.116327  0.09275  0  1.016219  0
H  H7  1  0.29585979  0.08937132  0.47226769  1  0  0.086603  0  0.94751  0  0  0.09461  0  1.014253  0  0  0.09716  0  1.011371  0  0  0.116318  0.09275  0  1.01623  0
H  H8  1  0.63481630  0.43270063  0.95822252  1  0  0.11502  0  0.943426  0  0  0.123573  0  1.010162  0  0  0.126366  0  1.00746  0  0  0.114002  0.12145  0  1.012232  0
H  H9  1  0.86518346  0.56730132  0.45821957  1  0  0.115015  0  0.943428  0  0  0.123572  0  1.010149  0  0  0.126367  0  1.007441  0  0  0.114004  0.121447  0  1.012216  0
H  H10  1  0.36518540  0.56730153  0.04177805  1  0  0.115018  0  0.943401  0  0  0.123571  0  1.010139  0  0  0.126365  0  1.007432  0  0  0.114001  0.121443  0  1.012215  0
H  H11  1  0.13481958  0.43270084  0.54177859  1  0  0.115002  0  0.94343  0  0  0.123552  0  1.010151  0  0  0.126349  0  1.007442  0  0  0.113998  0.121429  0  1.012236  0
H  H12  1  0.06682918  0.40339609  0.22681593  1  0  0.101257  0  0.963489  0  0  0.111012  0  1.027177  0  0  0.113497  0  1.027124  0  0  0.103617  0.10923  0  1.027381  0
H  H13  1  0.43317229  0.59660237  0.72681436  1  0  0.101248  0  0.963509  0  0  0.111044  0  1.02714  0  0  0.113529  0  1.027088  0  0  0.103646  0.10926  0  1.027336  0
H  H14  1  0.93317153  0.59660403  0.77318464  1  0  0.101265  0  0.963523  0  0  0.111019  0  1.027213  0  0  0.113505  0  1.02716  0  0  0.103625  0.109238  0  1.027418  0
H  H15  1  0.56682426  0.40339468  0.27318259  1  0  0.101196  0  0.963531  0  0  0.110997  0  1.027171  0  0  0.113482  0  1.027119  0  0  0.10362  0.109215  0  1.02737  0
H  H16  1  0.06179487  0.63200778  0.26247906  1  0  0.0916  0  0.9594  0  0  0.100247  0  1.023936  0  0  0.102639  0  1.023516  0  0  0.098633  0.098596  0  1.024048  0
H  H17  1  0.43821099  0.36799379  0.76247574  1  0  0.091646  0  0.959449  0  0  0.100271  0  1.024012  0  0  0.102662  0  1.023592  0  0  0.098668  0.098637  0  1.024106  0
H  H18  1  0.93820351  0.36799030  0.73752211  1  0  0.09161  0  0.959377  0  0  0.100246  0  1.023931  0  0  0.102638  0  1.023511  0  0  0.098642  0.098605  0  1.024047  0
H  H19  1  0.56178923  0.63200531  0.23752242  1  0  0.091595  0  0.959412  0  0  0.100241  0  1.023957  0  0  0.102632  0  1.023537  0  0  0.098639  0.098594  0  1.024058  0
H  H20  1  0.88956252  0.74520352  0.17633174  1  0  0.081714  0  0.976094  0  0  0.089836  0  1.043687  0  0  0.092788  0  1.041877  0  0  0.097606  0.087729  0  1.045019  0
H  H21  1  0.61044259  0.25479615  0.67632928  1  0  0.081669  0  0.976211  0  0  0.089795  0  1.043798  0  0  0.092748  0  1.041988  0  0  0.097605  0.087693  0  1.045129  0
H  H22  1  0.11043685  0.25479660  0.82367064  1  0  0.08173  0  0.976171  0  0  0.089848  0  1.04375  0  0  0.092801  0  1.041936  0  0  0.097631  0.087741  0  1.045087  0
H  H23  1  0.38956032  0.74520296  0.32366948  1  0  0.08171  0  0.976192  0  0  0.089838  0  1.043771  0  0  0.092789  0  1.041962  0  0  0.097606  0.087728  0  1.045094  0
H  H24  1  0.72995859  0.63419235  0.04953428  1  0  0.100341  0  0.968194  0  0  0.105419  0  1.041486  0  0  0.108463  0  1.039274  0  0  0.102092  0.103375  0  1.042634  0
H  H25  1  0.77004304  0.36580719  0.54953077  1  0  0.100349  0  0.96813  0  0  0.105394  0  1.041472  0  0  0.108437  0  1.039262  0  0  0.102082  0.103353  0  1.042623  0
H  H26  1  0.27004262  0.36580879  0.95046689  1  0  0.100333  0  0.968176  0  0  0.1054  0  1.041489  0  0  0.108443  0  1.039279  0  0  0.102079  0.103354  0  1.042637  0
H  H27  1  0.22995718  0.63419191  0.45046799  1  0  0.100353  0  0.968156  0  0  0.105411  0  1.041482  0  0  0.108453  0  1.039272  0  0  0.102081  0.103364  0  1.042627  0
H  H28  1  0.87311907  0.89621079  0.08730598  1  0  0.410615  0  0.861931  0  0  0.379816  0  0.943021  0  0  0.389591  0  0.931009  0  0  0.299156  0.37312  0  0.951048  0
H  H29  1  0.62688108  0.10379081  0.58730598  1  0  0.4106  0  0.861949  0  0  0.379802  0  0.943041  0  0  0.389577  0  0.931027  0  0  0.299141  0.373106  0  0.951074  0
H  H30  1  0.12687845  0.10378829  0.91269579  1  0  0.410628  0  0.861931  0  0  0.379832  0  0.94301  0  0  0.389608  0  0.930996  0  0  0.299154  0.373136  0  0.951038  0
H  H31  1  0.37311878  0.89621033  0.41269459  1  0  0.410601  0  0.861948  0  0  0.3798  0  0.943042  0  0  0.389576  0  0.931028  0  0  0.299131  0.373103  0  0.951063  0
H  H32  1  0.09694831  0.94345363  0.11211856  1  0  0.392199  0  0.926314  0  0  0.348531  0  1.012154  0  0  0.359683  0  0.996277  0  0  0.279499  0.340616  0  1.023379  0
H  H33  1  0.40305307  0.05654879  0.61211949  1  0  0.392212  0  0.926298  0  0  0.348549  0  1.012133  0  0  0.359701  0  0.996255  0  0  0.279505  0.340632  0  1.02336  0
H  H34  1  0.90305155  0.05654750  0.88788201  1  0  0.392215  0  0.926294  0  0  0.348548  0  1.012133  0  0  0.3597  0  0.996254  0  0  0.279503  0.340632  0  1.023357  0
H  H35  1  0.59694679  0.94345234  0.38788108  1  0  0.39223  0  0.926273  0  0  0.348566  0  1.012108  0  0  0.359718  0  0.996229  0  0  0.279511  0.340652  0  1.023331  0
C  C36  1  0.79700761  0.19265610  0.03820016  1  0  0.121477  0  3.678924  0  0  0.07984  0  3.931372  0  0  0.089774  0  3.94718  0  0  0.055231  0.073545  0  3.92019  0
C  C37  1  0.70299310  0.80734444  0.53819949  1  0  0.121542  0  3.678949  0  0  0.079917  0  3.931446  0  0  0.089855  0  3.94725  0  0  0.055277  0.073616  0  3.920255  0
C  C38  1  0.20299127  0.80734299  0.96180040  1  0  0.121567  0  3.6789  0  0  0.079931  0  3.931384  0  0  0.089869  0  3.947186  0  0  0.055259  0.073636  0  3.920203  0
C  C39  1  0.29700811  0.19265670  0.46179987  1  0  0.121536  0  3.679034  0  0  0.079923  0  3.931502  0  0  0.089861  0  3.947307  0  0  0.055277  0.073625  0  3.920342  0
C  C40  1  0.70441413  0.25253131  0.98298081  1  0  -0.049853  0  3.800311  0  0  -0.028834  0  4.041172  0  0  -0.036607  0  4.064637  0  0  -0.006115  -0.024133  0  4.02572  0
C  C41  1  0.79558848  0.74747067  0.48298076  1  0  -0.049786  0  3.800302  0  0  -0.028806  0  4.041161  0  0  -0.036579  0  4.064626  0  0  -0.006037  -0.024092  0  4.025699  0
C  C42  1  0.29558475  0.74746778  0.01701915  1  0  -0.049875  0  3.800344  0  0  -0.028881  0  4.041195  0  0  -0.036654  0  4.06466  0  0  -0.006134  -0.024177  0  4.025741  0
C  C43  1  0.20441273  0.25253047  0.51701861  1  0  -0.049794  0  3.800358  0  0  -0.028798  0  4.041224  0  0  -0.036571  0  4.06469  0  0  -0.006032  -0.024088  0  4.025799  0
C  C44  1  0.70488704  0.38245192  0.99859762  1  0  -0.040945  0  3.634185  0  0  -0.079467  0  3.886349  0  0  -0.074191  0  3.901325  0  0  -0.048263  -0.082679  0  3.876372  0
C  C45  1  0.79511432  0.61755007  0.49859699  1  0  -0.041001  0  3.634298  0  0  -0.079524  0  3.886467  0  0  -0.074249  0  3.901448  0  0  -0.048345  -0.082737  0  3.87648  0
C  C46  1  0.29511417  0.61754922  0.00140235  1  0  -0.040896  0  3.634285  0  0  -0.079429  0  3.886458  0  0  -0.074153  0  3.901438  0  0  -0.048246  -0.08264  0  3.876472  0
C  C47  1  0.20488824  0.38245107  0.50140238  1  0  -0.040959  0  3.634283  0  0  -0.07945  0  3.886417  0  0  -0.074173  0  3.901396  0  0  -0.048296  -0.082659  0  3.876446  0
C  C48  1  0.80031439  0.45218541  0.06790569  1  0  0.020098  0  3.774947  0  0  0.03947  0  4.00318  0  0  0.034592  0  4.028989  0  0  -0.002035  0.042467  0  3.985811  0
C  C49  1  0.69968111  0.54781514  0.56790266  1  0  0.020054  0  3.774939  0  0  0.039452  0  4.003128  0  0  0.034575  0  4.028939  0  0  -0.002071  0.042451  0  3.98576  0
C  C50  1  0.19968412  0.54781572  0.93209488  1  0  0.02006  0  3.775038  0  0  0.039452  0  4.003237  0  0  0.034575  0  4.02905  0  0  -0.002085  0.042449  0  3.985863  0
C  C51  1  0.30031507  0.45218394  0.43209490  1  0  0.020058  0  3.775048  0  0  0.039443  0  4.003241  0  0  0.034564  0  4.029053  0  0  -0.002075  0.042442  0  3.985868  0
C  C52  1  0.89243242  0.38479003  0.11997144  1  0  0.198546  0  3.766525  0  0  0.194879  0  4.002244  0  0  0.201335  0  4.025258  0  0  0.108487  0.190668  0  3.986655  0
C  C53  1  0.60756695  0.61520956  0.61997010  1  0  0.198492  0  3.766431  0  0  0.194825  0  4.002147  0  0  0.201281  0  4.025163  0  0  0.108485  0.190611  0  3.986557  0
C  C54  1  0.10756964  0.61521009  0.88002853  1  0  0.198465  0  3.766662  0  0  0.194813  0  4.002358  0  0  0.201268  0  4.025375  0  0  0.108505  0.190603  0  3.986764  0
C  C55  1  0.39242923  0.38478952  0.38002867  1  0  0.198531  0  3.766511  0  0  0.194859  0  4.00223  0  0  0.201316  0  4.025245  0  0  0.108514  0.190644  0  3.986637  0
C  C56  1  0.99083026  0.45311183  0.18910802  1  0  -0.144015  0  3.732884  0  0  -0.163864  0  3.984629  0  0  -0.169179  0  4.006577  0  0  -0.091495  -0.16055  0  3.970002  0
C  C57  1  0.50917088  0.54688784  0.68910659  1  0  -0.144009  0  3.732836  0  0  -0.163873  0  3.984572  0  0  -0.169189  0  4.006522  0  0  -0.0915  -0.16054  0  3.969931  0
C  C58  1  0.00916996  0.54688727  0.81089194  1  0  -0.144021  0  3.732918  0  0  -0.163874  0  3.984661  0  0  -0.169189  0  4.00661  0  0  -0.091502  -0.160557  0  3.970038  0
C  C59  1  0.49082934  0.45311126  0.31089218  1  0  -0.143918  0  3.732846  0  0  -0.163788  0  3.984581  0  0  -0.169102  0  4.006529  0  0  -0.09148  -0.160471  0  3.969938  0
C  C60  1  0.98870879  0.58072901  0.20840716  1  0  -0.037304  0  3.736624  0  0  -0.054162  0  3.98737  0  0  -0.05423  0  4.008714  0  0  -0.085134  -0.053808  0  3.972881  0
C  C61  1  0.51129652  0.41927068  0.70840515  1  0  -0.03738  0  3.736616  0  0  -0.05425  0  3.987415  0  0  -0.054317  0  4.008759  0  0  -0.085178  -0.053895  0  3.972936  0
C  C62  1  0.01128910  0.41926804  0.79159461  1  0  -0.03726  0  3.736558  0  0  -0.054111  0  3.987307  0  0  -0.054179  0  4.008651  0  0  -0.08512  -0.053766  0  3.972843  0
C  C63  1  0.48870321  0.58072739  0.29159301  1  0  -0.037324  0  3.736666  0  0  -0.054209  0  3.987474  0  0  -0.054277  0  4.008818  0  0  -0.085179  -0.053845  0  3.972962  0
C  C64  1  0.89145854  0.64539444  0.15882139  1  0  -0.072679  0  3.781193  0  0  -0.086635  0  4.034862  0  0  -0.090257  0  4.057569  0  0  -0.092565  -0.084359  0  4.01931  0
C  C65  1  0.60854143  0.35460316  0.65881830  1  0  -0.072598  0  3.781158  0  0  -0.086554  0  4.034852  0  0  -0.090177  0  4.057558  0  0  -0.092532  -0.084271  0  4.019312  0
C  C66  1  0.10853800  0.35460262  0.84118039  1  0  -0.072766  0  3.781264  0  0  -0.086722  0  4.03498  0  0  -0.090342  0  4.057683  0  0  -0.092622  -0.084448  0  4.01944  0
C  C67  1  0.39145879  0.64539594  0.34117986  1  0  -0.072756  0  3.781229  0  0  -0.086709  0  4.034922  0  0  -0.090331  0  4.057628  0  0  -0.092585  -0.084426  0  4.019346  0
C  C68  1  0.80204630  0.58407943  0.08906105  1  0  -0.09791  0  3.718653  0  0  -0.120499  0  3.970275  0  0  -0.122445  0  3.993076  0  0  -0.085062  -0.118762  0  3.954235  0
C  C69  1  0.69795105  0.41591911  0.58905865  1  0  -0.097839  0  3.718471  0  0  -0.120405  0  3.97007  0  0  -0.122351  0  3.992874  0  0  -0.084985  -0.118663  0  3.954043  0
C  C70  1  0.19795123  0.41591965  0.91094012  1  0  -0.097836  0  3.718534  0  0  -0.120416  0  3.970128  0  0  -0.122363  0  3.99293  0  0  -0.08501  -0.118676  0  3.954085  0
C  C71  1  0.30204648  0.58407998  0.41093951  1  0  -0.097816  0  3.718465  0  0  -0.120387  0  3.970061  0  0  -0.122333  0  3.992864  0  0  -0.08499  -0.118653  0  3.954009  0
C  C72  1  0.60792935  0.17012098  0.91416153  1  0  0.279737  0  3.790358  0  0  0.256555  0  4.061961  0  0  0.265747  0  4.079404  0  0  0.219605  0.250458  0  4.050202  0
C  C73  1  0.89207417  0.82988093  0.41416156  1  0  0.279533  0  3.790541  0  0  0.25644  0  4.062044  0  0  0.26563  0  4.07949  0  0  0.219568  0.250334  0  4.050286  0
C  C74  1  0.39207271  0.82987914  0.08583844  1  0  0.27956  0  3.790546  0  0  0.256471  0  4.062034  0  0  0.265662  0  4.07948  0  0  0.219597  0.250369  0  4.05027  0
C  C75  1  0.10793156  0.17012124  0.58583840  1  0  0.279723  0  3.79044  0  0  0.256534  0  4.062055  0  0  0.265724  0  4.079501  0  0  0.219574  0.25043  0  4.050317  0
N  N76  1  0.88414671  0.25408382  0.10426552  1  0  -0.362458  0  3.238934  0  0  -0.2888  0  3.501349  0  0  -0.309344  0  3.521129  0  0  -0.32619  -0.27494  0  3.487252  0
N  N77  1  0.61585306  0.74591677  0.60426356  1  0  -0.362461  0  3.238927  0  0  -0.288815  0  3.501344  0  0  -0.309357  0  3.521119  0  0  -0.326251  -0.274945  0  3.487228  0
N  N78  1  0.11585131  0.74591628  0.89573565  1  0  -0.362455  0  3.239013  0  0  -0.28881  0  3.501436  0  0  -0.309353  0  3.521214  0  0  -0.326217  -0.274946  0  3.487334  0
N  N79  1  0.38414582  0.25408232  0.39573460  1  0  -0.362518  0  3.239019  0  0  -0.288875  0  3.501441  0  0  -0.309419  0  3.521218  0  0  -0.326243  -0.275001  0  3.487346  0
N  N80  1  0.42947030  0.15285923  0.88753975  1  0  -0.298027  0  2.92703  0  0  -0.273127  0  3.198166  0  0  -0.282707  0  3.211591  0  0  -0.210219  -0.266661  0  3.188886  0
N  N81  1  0.07053131  0.84714040  0.38753821  1  0  -0.297915  0  2.927094  0  0  -0.273035  0  3.198197  0  0  -0.282616  0  3.211626  0  0  -0.210171  -0.266567  0  3.188906  0
N  N82  1  0.57053077  0.84713885  0.11246263  1  0  -0.297976  0  2.927182  0  0  -0.273099  0  3.198283  0  0  -0.28268  0  3.211712  0  0  -0.210225  -0.266631  0  3.188997  0
N  N83  1  0.92947394  0.15286075  0.61246056  1  0  -0.298042  0  2.927119  0  0  -0.273126  0  3.19825  0  0  -0.282707  0  3.211679  0  0  -0.210205  -0.266659  0  3.18897  0
N  N84  1  0.40064640  0.06377928  0.82668906  1  0  -0.125166  0  3.156967  0  0  -0.082187  0  3.448528  0  0  -0.088822  0  3.464849  0  0  -0.117287  -0.077473  0  3.437253  0
N  N85  1  0.09935263  0.93622130  0.32668874  1  0  -0.125224  0  3.157046  0  0  -0.08225  0  3.448615  0  0  -0.088886  0  3.464939  0  0  -0.117312  -0.077531  0  3.437326  0
N  N86  1  0.59935382  0.93621982  0.17331211  1  0  -0.125184  0  3.15707  0  0  -0.082205  0  3.44864  0  0  -0.088842  0  3.464965  0  0  -0.117276  -0.077494  0  3.437371  0
N  N87  1  0.90065041  0.06378086  0.67331183  1  0  -0.125206  0  3.157079  0  0  -0.082236  0  3.448648  0  0  -0.088871  0  3.464971  0  0  -0.11726  -0.077509  0  3.437343  0
N  N88  1  0.55397386  0.02863016  0.81727017  1  0  -0.111408  0  3.204714  0  0  -0.065889  0  3.495496  0  0  -0.072712  0  3.511818  0  0  -0.114989  -0.0609  0  3.484135  0
N  N89  1  0.94602588  0.97137064  0.31727084  1  0  -0.111487  0  3.204853  0  0  -0.065965  0  3.495647  0  0  -0.072789  0  3.511971  0  0  -0.115043  -0.060979  0  3.484293  0
N  N90  1  0.44602501  0.97136894  0.18272979  1  0  -0.111426  0  3.204778  0  0  -0.065921  0  3.495589  0  0  -0.072745  0  3.511913  0  0  -0.114999  -0.06094  0  3.484241  0
N  N91  1  0.05397717  0.02863152  0.68272973  1  0  -0.111468  0  3.204919  0  0  -0.065954  0  3.495713  0  0  -0.072778  0  3.512036  0  0  -0.115037  -0.060957  0  3.484329  0
N  N92  1  0.68678877  0.09322670  0.87123912  1  0  -0.289884  0  3.021336  0  0  -0.252828  0  3.283073  0  0  -0.263826  0  3.297974  0  0  -0.198779  -0.245396  0  3.273035  0
N  N93  1  0.81321265  0.90677416  0.37124025  1  0  -0.289715  0  3.021417  0  0  -0.252693  0  3.283126  0  0  -0.26369  0  3.298028  0  0  -0.198716  -0.245262  0  3.273097  0
N  N94  1  0.31321279  0.90677241  0.12876085  1  0  -0.289774  0  3.021417  0  0  -0.252746  0  3.283129  0  0  -0.263742  0  3.298032  0  0  -0.198771  -0.245315  0  3.273095  0
N  N95  1  0.18678990  0.09322699  0.62876092  1  0  -0.289786  0  3.021497  0  0  -0.252727  0  3.28323  0  0  -0.263724  0  3.298133  0  0  -0.198726  -0.245294  0  3.273197  0
N  N96  1  0.24038381  0.20335463  0.21097165  1  0  -0.632941  0  2.78746  0  0  -0.582395  0  3.10614  0  0  -0.610203  0  3.111879  0  0  -0.345279  -0.563229  0  3.101976  0
N  N97  1  0.25961670  0.79664484  0.71097165  1  0  -0.63294  0  2.787528  0  0  -0.582391  0  3.106183  0  0  -0.610196  0  3.111919  0  0  -0.345289  -0.563219  0  3.102014  0
N  N98  1  0.75961641  0.79664447  0.78902832  1  0  -0.632951  0  2.787751  0  0  -0.582427  0  3.106383  0  0  -0.610227  0  3.112117  0  0  -0.345296  -0.563266  0  3.102225  0
N  N99  1  0.74038500  0.20335732  0.28902953  1  0  -0.633011  0  2.787934  0  0  -0.582496  0  3.106579  0  0  -0.610295  0  3.112311  0  0  -0.345306  -0.563328  0  3.102418  0
N  N100  1  0.30237465  0.27597324  0.15317175  1  0  0.407286  0  4.216258  0  0  0.438545  0  4.496874  0  0  0.455324  0  4.524512  0  0  0.082118  0.427246  0  4.478155  0
N  N101  1  0.19762564  0.72402922  0.65317350  1  0  0.407217  0  4.216301  0  0  0.438488  0  4.496913  0  0  0.455269  0  4.524551  0  0  0.082122  0.427188  0  4.478193  0
N  N102  1  0.69762852  0.72403197  0.84682521  1  0  0.407304  0  4.216017  0  0  0.438627  0  4.496565  0  0  0.45541  0  4.524202  0  0  0.082167  0.427325  0  4.477851  0
N  N103  1  0.80237091  0.27596783  0.34682406  1  0  0.407399  0  4.216059  0  0  0.438722  0  4.496591  0  0  0.455504  0  4.52423  0  0  0.082187  0.427426  0  4.477878  0
N  N104  1  0.35733740  0.34772535  0.09826485  1  0  -0.349755  0  2.424754  0  0  -0.349153  0  2.655498  0  0  -0.354749  0  2.665462  0  0  -0.167244  -0.345246  0  2.648907  0
N  N105  1  0.14265887  0.65227501  0.59826475  1  0  -0.349697  0  2.424711  0  0  -0.349105  0  2.655452  0  0  -0.354705  0  2.665418  0  0  -0.16726  -0.345208  0  2.64887  0
N  N106  1  0.64265928  0.65227475  0.90173692  1  0  -0.349807  0  2.424211  0  0  -0.349259  0  2.654956  0  0  -0.354864  0  2.664925  0  0  -0.167327  -0.345357  0  2.648372  0
N  N107  1  0.85734148  0.34772714  0.40173762  1  0  -0.349877  0  2.424076  0  0  -0.349321  0  2.654814  0  0  -0.354931  0  2.664786  0  0  -0.167331  -0.345413  0  2.648228  0
O  O108  1  0.98611344  0.97459553  0.10185596  1  0  -0.815131  0  1.932723  0  0  -0.754629  0  2.149648  0  0  -0.774527  0  2.119332  0  0  -0.588463  -0.740561  0  2.170188  0
O  O109  1  0.51388815  0.02540609  0.60185706  1  0  -0.815117  0  1.932713  0  0  -0.754621  0  2.14963  0  0  -0.774518  0  2.119311  0  0  -0.588453  -0.740552  0  2.170176  0
O  O110  1  0.01388543  0.02540356  0.89814460  1  0  -0.81513  0  1.932703  0  0  -0.754637  0  2.149648  0  0  -0.774535  0  2.119327  0  0  -0.588457  -0.740572  0  2.17019  0
O  O111  1  0.48611171  0.97459505  0.39814411  1  0  -0.815116  0  1.932648  0  0  -0.754612  0  2.149565  0  0  -0.774511  0  2.119246  0  0  -0.588434  -0.740545  0  2.170102  0
