# generated using pymatgen
data_CdH24C34N2O5
_symmetry_space_group_name_H-M   'P 1'
_cell_length_a   10.74470048
_cell_length_b   12.12437511
_cell_length_c   15.39826775
_cell_angle_alpha   102.86909227
_cell_angle_beta   110.88669117
_cell_angle_gamma   102.90625386
_symmetry_Int_Tables_number   1
_chemical_formula_structural   CdH24C34N2O5
_chemical_formula_sum   'Cd2 H48 C68 N4 O10'
_cell_volume   1723.18625797
_cell_formula_units_Z   2
loop_
 _symmetry_equiv_pos_site_id
 _symmetry_equiv_pos_as_xyz
  1  'x, y, z'
loop_
 _atom_site_type_symbol
 _atom_site_label
 _atom_site_symmetry_multiplicity
 _atom_site_fract_x
 _atom_site_fract_y
 _atom_site_fract_z
 _atom_site_occupancy
 _atom_site_pbe_bader_charge
 _atom_site_pbe_bader_spin_density
 _atom_site_pbe_cm5_charge
 _atom_site_pbe_ddec_charge
 _atom_site_pbe_ddec_spin_density
 _atom_site_pbe_ddec_sum_bond_order
 _atom_site_pbe_magmom
Cd  Cd0  1  0.38125815  0.00153029  0.60713985  1  1.272849  0  0.770492  0.88324  0  2.146642  0
Cd  Cd1  1  0.61874100  0.99846981  0.39286362  1  1.27284  0  0.770505  0.883258  0  2.146566  0
H  H2  1  0.07310679  0.94758073  0.59367816  1  0.135612  0  0.113916  0.087665  0  1.026615  0
H  H3  1  0.92689689  0.05241852  0.40632169  1  0.135584  0  0.113953  0.087751  0  1.02664  0
H  H4  1  0.82145132  0.82049878  0.48500688  1  0.136201  0  0.106337  0.127252  0  1.045478  0
H  H5  1  0.17855125  0.17950498  0.51499422  1  0.136249  0  0.106321  0.127232  0  1.045522  0
H  H6  1  0.97072915  0.62942187  0.29230044  1  0.055152  0  0.098952  0.10091  0  1.022475  0
H  H7  1  0.02927294  0.37057828  0.70770050  1  0.055136  0  0.098939  0.100873  0  1.022518  0
H  H8  1  0.21618731  0.76288161  0.41207003  1  0.098232  0  0.109928  0.082175  0  1.041693  0
H  H9  1  0.78381566  0.23711576  0.58793253  1  0.098196  0  0.109964  0.082226  0  1.041727  0
H  H10  1  0.65084203  0.64763303  0.34307509  1  0.077839  0  0.106587  0.11173  0  0.984486  0
H  H11  1  0.34915481  0.35237638  0.65692118  1  0.078122  0  0.106568  0.111741  0  0.984539  0
H  H12  1  0.74872242  0.62535796  0.17696780  1  0.067982  0  0.098792  0.093026  0  1.026828  0
H  H13  1  0.25127850  0.37463966  0.82302652  1  0.068065  0  0.098678  0.092892  0  1.027031  0
H  H14  1  0.46019112  0.45616806  0.22353702  1  0.072256  0  0.099039  0.097994  0  1.01829  0
H  H15  1  0.53981327  0.54383308  0.77645946  1  0.072202  0  0.099044  0.097967  0  1.018221  0
H  H16  1  0.20678546  0.39958884  0.11993118  1  0.057142  0  0.096256  0.093857  0  1.038556  0
H  H17  1  0.79322052  0.60040421  0.88006217  1  0.057151  0  0.096251  0.093821  0  1.038576  0
H  H18  1  0.29876785  0.61226156  0.94619776  1  0.083788  0  0.100147  0.100631  0  0.989907  0
H  H19  1  0.70122678  0.38773523  0.05379619  1  0.083393  0  0.100164  0.100659  0  0.989926  0
H  H20  1  0.55433794  0.66458770  0.04822156  1  0.082007  0  0.102463  0.107358  0  1.005817  0
H  H21  1  0.44566223  0.33541536  0.95177299  1  0.082072  0  0.102493  0.107393  0  1.005865  0
H  H22  1  0.05806436  0.48393091  0.89516394  1  0.031036  0  0.097085  0.07047  0  0.995663  0
H  H23  1  0.94193692  0.51606762  0.10483000  1  0.03115  0  0.097129  0.070542  0  0.995653  0
H  H24  1  0.00645579  0.35822473  0.03605207  1  0.034367  0  0.100468  0.079901  0  1.00221  0
H  H25  1  0.99354823  0.64177551  0.96394481  1  0.0343  0  0.100516  0.079975  0  1.002145  0
H  H26  1  0.82069529  0.17687254  0.96603083  1  0.100713  0  0.10703  0.114706  0  1.008241  0
H  H27  1  0.17930988  0.82313027  0.03397072  1  0.100752  0  0.107022  0.114648  0  1.008272  0
H  H28  1  0.60482599  0.02819595  0.81917053  1  0.142488  0  0.112401  0.086112  0  1.050238  0
H  H29  1  0.39517430  0.97180675  0.18083697  1  0.142598  0  0.112427  0.086145  0  1.050146  0
H  H30  1  0.62884981  0.24273954  0.64862063  1  0.123869  0  0.116782  0.091852  0  1.01585  0
H  H31  1  0.37115424  0.75724619  0.35137539  1  0.123732  0  0.116765  0.09183  0  1.015838  0
H  H32  1  0.84002754  0.40281597  0.78724307  1  0.029099  0  0.105995  0.11092  0  1.003093  0
H  H33  1  0.15997584  0.59717083  0.21274716  1  0.029096  0  0.105936  0.110807  0  1.003159  0
H  H34  1  0.46203943  0.77767905  0.65215652  1  0.128886  0  0.107239  0.1129  0  0.994328  0
H  H35  1  0.53796166  0.22232111  0.34784418  1  0.128897  0  0.107235  0.112895  0  0.994338  0
H  H36  1  0.57805488  0.76101827  0.81794593  1  0.071736  0  0.109129  0.125449  0  0.99328  0
H  H37  1  0.42194499  0.23898370  0.18205548  1  0.071773  0  0.109154  0.125486  0  0.993239  0
H  H38  1  0.98638666  0.92223264  0.82929958  1  0.093024  0  0.101258  0.116199  0  1.039065  0
H  H39  1  0.01361347  0.07776026  0.17070144  1  0.093047  0  0.101266  0.116245  0  1.039033  0
H  H40  1  0.86864081  0.93670741  0.66157823  1  0.083038  0  0.106883  0.111014  0  0.999528  0
H  H41  1  0.13136204  0.06328724  0.33842378  1  0.082986  0  0.106868  0.111059  0  0.999516  0
H  H42  1  0.70115284  0.98004611  0.93611827  1  0.082035  0  0.102331  0.11259  0  1.058204  0
H  H43  1  0.29884663  0.01995503  0.06388028  1  0.08209  0  0.102356  0.112614  0  1.05819  0
H  H44  1  0.63658682  0.04004463  0.07564600  1  0.102068  0  0.103308  0.109548  0  0.999533  0
H  H45  1  0.36341090  0.95996202  0.92435125  1  0.1017  0  0.103244  0.109455  0  0.999605  0
H  H46  1  0.85512696  0.82892424  0.21735811  1  0.084637  0  0.102203  0.103943  0  1.027958  0
H  H47  1  0.14486118  0.17108059  0.78264297  1  0.084622  0  0.102207  0.103888  0  1.028006  0
H  H48  1  0.92402043  0.77040911  0.07897741  1  0.057867  0  0.100272  0.114296  0  1.036041  0
H  H49  1  0.07596763  0.22958566  0.92102627  1  0.058145  0  0.100242  0.114215  0  1.036187  0
C  C50  1  0.04509654  0.87409494  0.52710314  1  0.395187  0  0.042217  0.091717  0  3.960871  0
C  C51  1  0.95490381  0.12590344  0.47289639  1  0.395178  0  0.042151  0.091545  0  3.9609  0
C  C52  1  0.90582602  0.80301033  0.46644054  1  0.03409  0  -0.08241  -0.170842  0  3.897599  0
C  C53  1  0.09417716  0.19699257  0.53355859  1  0.034029  0  -0.082394  -0.170737  0  3.897588  0
C  C54  1  0.87372756  0.71416912  0.37806502  1  -0.008404  0  0.011297  0.162547  0  4.014978  0
C  C55  1  0.12627277  0.28583655  0.62193396  1  -0.008388  0  0.01136  0.162481  0  4.015096  0
C  C56  1  0.98806968  0.69882493  0.35828580  1  -0.051  0  -0.092341  -0.192846  0  3.960882  0
C  C57  1  0.01192882  0.30117617  0.64171446  1  -0.051007  0  -0.092325  -0.192735  0  3.960794  0
C  C58  1  0.12471339  0.77227425  0.42420200  1  0.461995  0  0.037225  0.086475  0  3.984557  0
C  C59  1  0.87528525  0.22772229  0.57579936  1  0.462011  0  0.037171  0.086379  0  3.984521  0
C  C60  1  0.72604234  0.64959534  0.31030378  1  0.05865  0  -0.085698  -0.128672  0  3.966931  0
C  C61  1  0.27395646  0.35041409  0.68969102  1  0.058305  0  -0.085731  -0.128743  0  3.967003  0
C  C62  1  0.67590310  0.61138591  0.21126650  1  -0.159865  0  -0.079559  -0.111841  0  3.981411  0
C  C63  1  0.32409662  0.38862065  0.78873316  1  -0.159938  0  -0.07941  -0.111596  0  3.981395  0
C  C64  1  0.52550062  0.56738784  0.14533783  1  0.052468  0  -0.009955  0.107489  0  4.034679  0
C  C65  1  0.47449856  0.43261524  0.85465648  1  0.052474  0  -0.010016  0.107353  0  4.034817  0
C  C66  1  0.42502870  0.49095702  0.16283619  1  -0.092064  0  -0.091842  -0.129516  0  3.976645  0
C  C67  1  0.57497162  0.50904144  0.83716075  1  -0.092065  0  -0.091835  -0.129425  0  3.976577  0
C  C68  1  0.28120238  0.45938960  0.10393842  1  -0.038322  0  -0.09919  -0.140708  0  4.027035  0
C  C69  1  0.71880250  0.54060794  0.89605684  1  -0.038934  0  -0.099145  -0.140637  0  4.026891  0
C  C70  1  0.23301252  0.50431389  0.02649408  1  -0.035505  0  -0.017948  0.071422  0  3.992674  0
C  C71  1  0.76699238  0.49568360  0.97350312  1  -0.035185  0  -0.017921  0.071384  0  3.992443  0
C  C72  1  0.33396450  0.57713122  0.00681712  1  -0.08867  0  -0.093537  -0.136081  0  4.005437  0
C  C73  1  0.66603234  0.42286375  0.99317571  1  -0.088047  0  -0.093639  -0.136193  0  4.005416  0
C  C74  1  0.47760082  0.60705324  0.06411396  1  -0.048147  0  -0.081455  -0.104094  0  3.946608  0
C  C75  1  0.52239950  0.39294525  0.93588169  1  -0.04795  0  -0.081386  -0.103984  0  3.946646  0
C  C76  1  0.08095716  0.49204740  0.97224734  1  -0.002929  0  -0.071036  -0.058503  0  3.778918  0
C  C77  1  0.91904848  0.50795188  0.02775038  1  -0.003147  0  -0.071145  -0.058622  0  3.778993  0
C  C78  1  0.96411161  0.40035097  0.98120606  1  -0.002351  0  -0.076497  -0.086468  0  3.772465  0
C  C79  1  0.03589216  0.59965109  0.01879045  1  -0.002505  0  -0.076538  -0.086542  0  3.772406  0
C  C80  1  0.84912642  0.30428130  0.89022683  1  -0.002435  0  0.009183  0.132368  0  3.96559  0
C  C81  1  0.15087414  0.69571540  0.10976788  1  -0.002763  0  0.009133  0.132239  0  3.965695  0
C  C82  1  0.78171435  0.19543892  0.89688149  1  -0.097003  0  -0.085065  -0.181102  0  3.944623  0
C  C83  1  0.21829034  0.80456024  0.10312118  1  -0.096881  0  -0.085044  -0.180987  0  3.944609  0
C  C84  1  0.66330345  0.11181706  0.81589033  1  0.489842  0  0.046542  0.101185  0  3.946647  0
C  C85  1  0.33669929  0.88818208  0.18411382  1  0.489883  0  0.046531  0.101168  0  3.946563  0
C  C86  1  0.67530619  0.23245052  0.72065888  1  0.504353  0  0.049217  0.101001  0  3.949802  0
C  C87  1  0.32469749  0.76754154  0.27933828  1  0.503819  0  0.049157  0.100947  0  3.94979  0
C  C88  1  0.79421127  0.32053056  0.79848336  1  -0.025175  0  -0.086593  -0.180722  0  3.957291  0
C  C89  1  0.20579177  0.67946247  0.20151189  1  -0.024313  0  -0.086457  -0.180505  0  3.957083  0
C  C90  1  0.58759531  0.87611922  0.54941038  1  1.576411  0  0.204204  0.579059  0  4.221911  0
C  C91  1  0.41240713  0.12388186  0.45058952  1  1.57646  0  0.204186  0.579136  0  4.221961  0
C  C92  1  0.65802949  0.85872164  0.64628857  1  -0.108329  0  -0.030339  -0.069626  0  4.009103  0
C  C93  1  0.34197289  0.14127656  0.35371661  1  -0.108548  0  -0.030423  -0.069672  0  4.009212  0
C  C94  1  0.57689562  0.80811408  0.69044927  1  -0.062125  0  -0.082616  -0.073462  0  3.993222  0
C  C95  1  0.42310412  0.19188518  0.30955158  1  -0.062079  0  -0.082611  -0.073467  0  3.993101  0
C  C96  1  0.64139751  0.79871125  0.78325144  1  -0.005844  0  -0.101882  -0.205869  0  4.005471  0
C  C97  1  0.35860088  0.20128713  0.21674892  1  -0.005797  0  -0.101888  -0.205858  0  4.005391  0
C  C98  1  0.78896928  0.84235642  0.83314256  1  0.356237  0  0.081111  0.253093  0  4.037159  0
C  C99  1  0.21102664  0.15763836  0.16685781  1  0.355779  0  0.080989  0.252957  0  4.037543  0
C  C100  1  0.87174576  0.88974903  0.78927925  1  0.011048  0  -0.102383  -0.195251  0  3.984885  0
C  C101  1  0.12825437  0.11024388  0.21072112  1  0.011323  0  -0.102328  -0.195174  0  3.985159  0
C  C102  1  0.80574409  0.89726780  0.69588664  1  0.04351  0  -0.081616  -0.064811  0  3.969361  0
C  C103  1  0.19426013  0.10272770  0.30411716  1  0.043736  0  -0.081547  -0.064908  0  3.969482  0
C  C104  1  0.81472046  0.86991459  0.99863656  1  0.383652  0  0.085153  0.262838  0  4.041506  0
C  C105  1  0.18527807  0.13008645  0.00136630  1  0.383673  0  0.085213  0.26291  0  4.041245  0
C  C106  1  0.73513650  0.94705001  0.99763175  1  -0.027022  0  -0.110958  -0.226315  0  4.021143  0
C  C107  1  0.26486275  0.05295287  0.00236968  1  -0.027049  0  -0.111017  -0.226334  0  4.021133  0
C  C108  1  0.69843144  0.97994345  0.07534169  1  -0.092577  0  -0.086251  -0.073101  0  3.992632  0
C  C109  1  0.30156693  0.02006220  0.92465876  1  -0.09202  0  -0.086147  -0.073034  0  3.992548  0
C  C110  1  0.73942955  0.93628661  0.15429538  1  -0.000786  0  -0.027661  -0.051272  0  3.990459  0
C  C111  1  0.26056585  0.06371910  0.84570373  1  -0.000908  0  -0.027679  -0.051242  0  3.990402  0
C  C112  1  0.82159417  0.86105586  0.15500909  1  -0.052983  0  -0.084195  -0.077112  0  3.991289  0
C  C113  1  0.17839558  0.13894804  0.84499221  1  -0.053171  0  -0.084213  -0.077129  0  3.991294  0
C  C114  1  0.85938919  0.82789605  0.07809713  1  0.019427  0  -0.105394  -0.205114  0  4.00405  0
C  C115  1  0.14060069  0.17210331  0.92190397  1  0.019352  0  -0.105421  -0.205061  0  4.00402  0
C  C116  1  0.69426701  0.96672784  0.23555867  1  1.552276  0  0.18161  0.546509  0  4.260065  0
C  C117  1  0.30572923  0.03328243  0.76443957  1  1.551049  0  0.181761  0.546663  0  4.259862  0
N  N118  1  0.15377918  0.85976675  0.50693581  1  -1.221085  0  -0.330635  -0.241279  0  3.490651  0
N  N119  1  0.84622217  0.14023156  0.49306590  1  -1.221029  0  -0.330649  -0.241252  0  3.490623  0
N  N120  1  0.60948854  0.12993562  0.72896158  1  -1.230139  0  -0.322605  -0.238344  0  3.480754  0
N  N121  1  0.39051232  0.87005910  0.27103867  1  -1.230293  0  -0.322593  -0.238344  0  3.480864  0
O  O122  1  0.45934171  0.87307250  0.52009501  1  -1.190841  0  -0.339252  -0.588137  0  2.308656  0
O  O123  1  0.54066148  0.12693033  0.47990671  1  -1.190928  0  -0.339198  -0.588124  0  2.308681  0
O  O124  1  0.66072133  0.89301463  0.50108118  1  -1.177171  0  -0.324603  -0.546443  0  2.279268  0
O  O125  1  0.33928336  0.10698453  0.49892149  1  -1.177131  0  -0.324569  -0.546455  0  2.279187  0
O  O126  1  0.85981125  0.83621339  0.92622174  1  -1.094932  0  -0.155886  -0.222234  0  2.563555  0
O  O127  1  0.14018988  0.16378670  0.07378155  1  -1.094989  0  -0.15584  -0.222222  0  2.563482  0
O  O128  1  0.63550342  0.04650640  0.24117537  1  -1.167766  0  -0.347861  -0.584234  0  2.136332  0
O  O129  1  0.36449963  0.95350823  0.75882665  1  -1.167835  0  -0.34785  -0.584205  0  2.13623  0
O  O130  1  0.71754021  0.90840532  0.29636306  1  -1.159454  0  -0.335801  -0.557446  0  2.223349  0
O  O131  1  0.28245148  0.09160586  0.70363686  1  -1.158213  0  -0.335927  -0.557583  0  2.223294  0
