# generated using pymatgen
data_Zn4H20C48O29
_symmetry_space_group_name_H-M   'P 1'
_cell_length_a   23.78687020
_cell_length_b   23.78846135
_cell_length_c   23.78708852
_cell_angle_alpha   66.36328313
_cell_angle_beta   72.57701022
_cell_angle_gamma   107.43242831
_symmetry_Int_Tables_number   1
_chemical_formula_structural   Zn4H20C48O29
_chemical_formula_sum   'Zn8 H40 C96 O58'
_cell_volume   10320.55928679
_cell_formula_units_Z   2
loop_
 _symmetry_equiv_pos_site_id
 _symmetry_equiv_pos_as_xyz
  1  'x, y, z'
loop_
 _atom_site_type_symbol
 _atom_site_label
 _atom_site_symmetry_multiplicity
 _atom_site_fract_x
 _atom_site_fract_y
 _atom_site_fract_z
 _atom_site_occupancy
 _atom_site_pbe_bader_charge
 _atom_site_pbe_bader_spin_density
 _atom_site_pbe_cm5_charge
 _atom_site_pbe_ddec_charge
 _atom_site_pbe_ddec_spin_density
 _atom_site_pbe_ddec_sum_bond_order
 _atom_site_pbe_magmom
Zn  Zn0  1  0.05672043  0.95602903  0.48724946  1  1.317207  0  0.676153  0.964195  0  2.376168  0
Zn  Zn1  1  0.05671677  0.10068055  0.45604579  1  1.315625  0  0.676219  0.964249  0  2.375872  0
Zn  Zn2  1  0.94327170  0.98724043  0.45602190  1  1.317175  0  0.676224  0.964291  0  2.375546  0
Zn  Zn3  1  0.94328774  0.95603886  0.60069028  1  1.315753  0  0.676138  0.964078  0  2.376133  0
Zn  Zn4  1  0.94327230  0.54395928  0.01275292  1  1.317178  0  0.676113  0.964115  0  2.376029  0
Zn  Zn5  1  0.05673667  0.51275259  0.04396802  1  1.316998  0  0.676207  0.964338  0  2.37563  0
Zn  Zn6  1  0.94326836  0.39930897  0.04397354  1  1.315506  0  0.676169  0.964169  0  2.375993  0
Zn  Zn7  1  0.05671769  0.54396375  0.89931139  1  1.315614  0  0.676123  0.964202  0  2.37617  0
H  H8  1  0.92359380  0.79816425  0.77820292  1  0.122424  0  0.112936  0.120081  0  0.985144  0
H  H9  1  0.07634926  0.70177286  0.72179609  1  0.121761  0  0.112934  0.120109  0  0.985266  0
H  H10  1  0.92362924  0.70184209  0.87456708  1  0.11856  0  0.112869  0.119994  0  0.985149  0
H  H11  1  0.07644086  0.79822050  0.62543036  1  0.119837  0  0.112932  0.120086  0  0.985246  0
H  H12  1  0.92356817  0.12543566  0.29819559  1  0.119556  0  0.112977  0.119979  0  0.985302  0
H  H13  1  0.07637068  0.37456652  0.20187508  1  0.119235  0  0.112968  0.119954  0  0.985387  0
H  H14  1  0.92364102  0.22180825  0.20177332  1  0.121175  0  0.112958  0.120223  0  0.98532  0
H  H15  1  0.07642214  0.27819365  0.29817221  1  0.121886  0  0.112951  0.120202  0  0.985313  0
H  H16  1  0.91975715  0.64759955  0.11688270  1  0.15218  0  0.125152  0.138042  0  0.973577  0
H  H17  1  0.08026543  0.61688338  0.14762172  1  0.152332  0  0.125168  0.137968  0  0.973797  0
H  H18  1  0.92701592  0.89232238  0.34313996  1  0.137753  0  0.125112  0.137948  0  0.973575  0
H  H19  1  0.07294452  0.84312750  0.39237772  1  0.137505  0  0.124977  0.138022  0  0.973458  0
H  H20  1  0.08025127  0.46334379  0.77216068  1  0.141448  0  0.125201  0.138178  0  0.973505  0
H  H21  1  0.91975381  0.27212608  0.96337764  1  0.141352  0  0.125123  0.137967  0  0.973934  0
H  H22  1  0.07294765  0.22983290  0.53468940  1  0.153806  0  0.125088  0.138092  0  0.973662  0
H  H23  1  0.92701722  0.03470429  0.72980320  1  0.15351  0  0.125108  0.137968  0  0.973533  0
H  H24  1  0.73548868  0.46530229  0.10765631  1  0.150923  0  0.125084  0.138003  0  0.973583  0
H  H25  1  0.73547773  0.27017205  0.15685787  1  0.136753  0  0.125123  0.138004  0  0.973637  0
H  H26  1  0.26449378  0.22786471  0.35237339  1  0.139109  0  0.125127  0.138043  0  0.973694  0
H  H27  1  0.26449570  0.03664834  0.38308399  1  0.146  0  0.125167  0.138094  0  0.973614  0
H  H28  1  0.26452326  0.60764466  0.96530506  1  0.150818  0  0.125072  0.138018  0  0.973633  0
H  H29  1  0.26450913  0.65684748  0.77017293  1  0.137  0  0.125094  0.137912  0  0.973673  0
H  H30  1  0.73551680  0.85237862  0.72786419  1  0.139209  0  0.125181  0.138121  0  0.973801  0
H  H31  1  0.73549068  0.88309606  0.53664461  1  0.146441  0  0.125101  0.137937  0  0.973841  0
H  H32  1  0.12129572  0.78006560  0.17415645  1  0.604218  0  0.328153  0.359561  0  0.894343  0
H  H33  1  0.87869404  0.67410895  0.28007911  1  0.599812  0  0.328019  0.35942  0  0.894538  0
H  H34  1  0.01076744  0.68578954  0.35918863  1  0.596448  0  0.327094  0.358122  0  0.897242  0
H  H35  1  0.98919359  0.85912318  0.18582519  1  0.596951  0  0.327151  0.358168  0  0.896957  0
H  H36  1  0.87868885  0.20456929  0.84123101  1  0.602159  0  0.328081  0.359547  0  0.894548  0
H  H37  1  0.12128364  0.34119160  0.70459604  1  0.600975  0  0.328141  0.359533  0  0.894234  0
H  H38  1  0.98920316  0.13005097  0.82497422  1  0.591054  0  0.327143  0.358111  0  0.896811  0
H  H39  1  0.01076607  0.32496797  0.63008316  1  0.590295  0  0.327189  0.358192  0  0.896996  0
H  H40  1  0.54495672  0.17502950  0.31417618  1  0.588097  0  0.327121  0.358022  0  0.897006  0
H  H41  1  0.54496575  0.36993986  0.14083304  1  0.595226  0  0.327026  0.35803  0  0.897204  0
H  H42  1  0.45420556  0.15879571  0.21989256  1  0.595295  0  0.328149  0.359458  0  0.894451  0
H  H43  1  0.45419864  0.29542041  0.32586908  1  0.592057  0  0.328059  0.359964  0  0.894656  0
H  H44  1  0.45503116  0.81416622  0.67502664  1  0.588261  0  0.327125  0.358024  0  0.896753  0
H  H45  1  0.45504387  0.64083437  0.86993850  1  0.595597  0  0.327112  0.358142  0  0.897033  0
H  H46  1  0.54578575  0.71991049  0.65877556  1  0.596038  0  0.328085  0.359565  0  0.894385  0
H  H47  1  0.54580762  0.82585754  0.79543232  1  0.592581  0  0.328156  0.359985  0  0.89468  0
C  C48  1  0.18128520  0.09065663  0.40934311  1  1.550727  0  0.231865  0.60566  0  4.166418  0
C  C49  1  0.99998816  0.13914317  0.36085271  1  1.553952  0  0.229855  0.604753  0  4.167113  0
C  C50  1  0.99998104  0.90934423  0.40934931  1  1.547746  0  0.230996  0.603489  0  4.168732  0
C  C51  1  0.81871383  0.90934559  0.59065099  1  1.550516  0  0.231829  0.605476  0  4.166475  0
C  C52  1  0.00002210  0.86086501  0.63915330  1  1.553401  0  0.22977  0.60458  0  4.167355  0
C  C53  1  0.99999479  0.09065987  0.59064574  1  1.556186  0  0.230899  0.603257  0  4.168683  0
C  C54  1  0.00000645  0.59063782  0.09064452  1  1.545002  0  0.231858  0.605661  0  4.166771  0
C  C55  1  0.00000617  0.36085661  0.13916230  1  1.552289  0  0.229864  0.605015  0  4.166767  0
C  C56  1  0.81869167  0.40933781  0.09064732  1  1.550464  0  0.230776  0.603226  0  4.169032  0
C  C57  1  0.99999014  0.40934149  0.90937163  1  1.553643  0  0.231795  0.605656  0  4.166627  0
C  C58  1  0.99997420  0.63913107  0.86085246  1  1.553935  0  0.22984  0.604679  0  4.166688  0
C  C59  1  0.18130524  0.59064977  0.90934106  1  1.550216  0  0.230847  0.603285  0  4.168887  0
C  C60  1  0.00001741  0.80355569  0.69645452  1  0.011687  0  -0.013133  -0.034101  0  3.97157  0
C  C61  1  0.99998463  0.69644041  0.80354363  1  0.01108  0  -0.013267  -0.034227  0  3.971517  0
C  C62  1  0.95679319  0.77668856  0.76652039  1  -0.072505  0  -0.075209  -0.086689  0  3.960636  0
C  C63  1  0.04319712  0.72329737  0.73347860  1  -0.071297  0  -0.075166  -0.086656  0  3.960672  0
C  C64  1  0.95679050  0.72331595  0.81989246  1  -0.051053  0  -0.075097  -0.086437  0  3.960382  0
C  C65  1  0.04322670  0.77669583  0.68010538  1  -0.051166  0  -0.075237  -0.086604  0  3.960514  0
C  C66  1  0.99999036  0.19645158  0.30355050  1  0.011265  0  -0.013131  -0.033944  0  3.971523  0
C  C67  1  0.00000296  0.30355033  0.19646564  1  0.012948  0  -0.01318  -0.03435  0  3.971785  0
C  C68  1  0.95677628  0.18011072  0.27668515  1  -0.05212  0  -0.075212  -0.086375  0  3.96051  0
C  C69  1  0.04320828  0.31989181  0.22334052  1  -0.051726  0  -0.075145  -0.086066  0  3.960679  0
C  C70  1  0.95679305  0.23348699  0.22330319  1  -0.071366  0  -0.075289  -0.086972  0  3.96117  0
C  C71  1  0.04321384  0.26651442  0.27669772  1  -0.071877  0  -0.075261  -0.087107  0  3.961172  0
C  C72  1  0.00001037  0.62823412  0.12824925  1  0.05216  0  -0.004439  -0.020256  0  3.950191  0
C  C73  1  0.95464951  0.65405143  0.13764896  1  -0.029734  0  -0.056719  -0.078752  0  3.906057  0
C  C74  1  0.95268987  0.68729341  0.17436679  1  -0.013673  0  -0.004558  -0.087915  0  3.943635  0
C  C75  1  0.99999644  0.69899506  0.19904269  1  0.121662  0  0.00202  0.076681  0  4.096712  0
C  C76  1  0.04731574  0.67434522  0.18732905  1  -0.014657  0  -0.004867  -0.088292  0  3.94372  0
C  C77  1  0.04536675  0.63763452  0.15407877  1  -0.02955  0  -0.056488  -0.078283  0  3.905787  0
C  C78  1  0.99998712  0.73457696  0.23465493  1  -0.357191  0  -0.042163  -0.126525  0  4.174681  0
C  C79  1  0.99997675  0.76533775  0.26542935  1  -0.141585  0  -0.042453  -0.127718  0  4.175785  0
C  C80  1  0.99997546  0.80094084  0.30101771  1  0.064134  0  0.001507  0.076718  0  4.094817  0
C  C81  1  0.96040806  0.83540147  0.30291051  1  0.003649  0  -0.004187  -0.087975  0  3.943075  0
C  C82  1  0.95937548  0.86834997  0.33991701  1  0.005144  0  -0.056847  -0.078421  0  3.906598  0
C  C83  1  0.99998216  0.87173251  0.37176645  1  0.019838  0  -0.004941  -0.020621  0  3.953141  0
C  C84  1  0.04058877  0.83989117  0.36839594  1  0.004882  0  -0.056828  -0.078708  0  3.906815  0
C  C85  1  0.03955640  0.80286285  0.33547021  1  0.005609  0  -0.004133  -0.088233  0  3.943308  0
C  C86  1  0.00000108  0.37173965  0.87177412  1  0.011051  0  -0.004491  -0.020389  0  3.950555  0
C  C87  1  0.04535778  0.40769220  0.80059965  1  0.005161  0  -0.056683  -0.079136  0  3.905866  0
C  C88  1  0.04731338  0.37293294  0.76539906  1  0.042701  0  -0.004601  -0.086977  0  3.942334  0
C  C89  1  0.00000373  0.30096003  0.80100053  1  0.038081  0  0.002024  0.076164  0  4.096279  0
C  C90  1  0.95269300  0.26536132  0.87296722  1  0.043426  0  -0.004853  -0.08747  0  3.942402  0
C  C91  1  0.95464917  0.30056074  0.90772939  1  0.00495  0  -0.056463  -0.078612  0  3.905823  0
C  C92  1  0.99999526  0.26536132  0.76540346  1  -0.354286  0  -0.042282  -0.126696  0  4.175158  0
C  C93  1  0.99998717  0.23460771  0.73462501  1  -0.140784  0  -0.042375  -0.127953  0  4.176275  0
C  C94  1  0.99997838  0.19902494  0.69901646  1  0.156727  0  0.00151  0.076417  0  4.093901  0
C  C95  1  0.03955281  0.23669045  0.62498974  1  -0.010118  0  -0.004126  -0.086964  0  3.941528  0
C  C96  1  0.04058920  0.20070879  0.59101821  1  -0.018793  0  -0.056889  -0.079254  0  3.90664  0
C  C97  1  0.99998102  0.12826153  0.62823894  1  0.037623  0  -0.00492  -0.020582  0  3.952844  0
C  C98  1  0.95937059  0.09103479  0.70068463  1  -0.018692  0  -0.05696  -0.078956  0  3.906192  0
C  C99  1  0.96040394  0.12499985  0.73667373  1  -0.010446  0  -0.004172  -0.086952  0  3.941505  0
C  C100  1  0.74349696  0.37174483  0.12824900  1  0.054554  0  -0.004942  -0.020681  0  3.953503  0
C  C101  1  0.70827872  0.40897246  0.13162969  1  0.080635  0  -0.056948  -0.079039  0  3.906767  0
C  C102  1  0.63832556  0.37501103  0.16455814  1  -0.128768  0  -0.004192  -0.087116  0  3.941474  0
C  C103  1  0.60195584  0.30098440  0.19900458  1  0.114251  0  0.001535  0.076351  0  4.093793  0
C  C104  1  0.63831866  0.26331815  0.19710475  1  0.000252  0  -0.004111  -0.086958  0  3.941536  0
C  C105  1  0.70827381  0.29929748  0.16009264  1  -0.040191  0  -0.056957  -0.079006  0  3.906718  0
C  C106  1  0.53076375  0.26539669  0.23458107  1  -0.407793  0  -0.042597  -0.128055  0  4.176185  0
C  C107  1  0.46923212  0.23463108  0.26534287  1  -0.085112  0  -0.042039  -0.126465  0  4.174963  0
C  C108  1  0.39803675  0.19902902  0.30094540  1  0.12766  0  0.002143  0.076314  0  4.095921  0
C  C109  1  0.36166888  0.23462881  0.31266361  1  -0.021116  0  -0.004823  -0.087531  0  3.942475  0
C  C110  1  0.29170624  0.19943047  0.34590794  1  -0.035935  0  -0.056418  -0.07854  0  3.90534  0
C  C111  1  0.25648465  0.12825176  0.37173158  1  0.02451  0  -0.004601  -0.020566  0  3.950526  0
C  C112  1  0.29170536  0.09229839  0.36232965  1  0.015771  0  -0.056588  -0.078941  0  3.905858  0
C  C113  1  0.36166390  0.12705638  0.32560948  1  -0.011501  0  -0.004696  -0.086975  0  3.94201  0
C  C114  1  0.25650178  0.62823775  0.87174670  1  0.0547  0  -0.004907  -0.020468  0  3.95318  0
C  C115  1  0.29172735  0.63161804  0.90897616  1  0.080502  0  -0.056934  -0.079214  0  3.906785  0
C  C116  1  0.36167931  0.66454566  0.87501313  1  -0.130006  0  -0.00407  -0.087006  0  3.941672  0
C  C117  1  0.39804057  0.69898853  0.80098810  1  0.115957  0  0.001455  0.076318  0  4.093759  0
C  C118  1  0.36167440  0.69709076  0.76331928  1  -0.000844  0  -0.004198  -0.087116  0  3.941574  0
C  C119  1  0.29172024  0.66007981  0.79929907  1  -0.040274  0  -0.056977  -0.078988  0  3.906644  0
C  C120  1  0.46923451  0.73457605  0.76539642  1  -0.091731  0  -0.042512  -0.127864  0  4.176032  0
C  C121  1  0.53076279  0.76534461  0.73462983  1  -0.401202  0  -0.042108  -0.126666  0  4.175197  0
C  C122  1  0.60196067  0.80095232  0.69902766  1  0.128384  0  0.002147  0.076492  0  4.095857  0
C  C123  1  0.63833617  0.81266992  0.73462898  1  -0.021061  0  -0.004743  -0.087278  0  3.942356  0
C  C124  1  0.70829752  0.84591694  0.69942820  1  -0.036139  0  -0.056566  -0.078889  0  3.905725  0
C  C125  1  0.74351385  0.87174161  0.62824981  1  0.025124  0  -0.004644  -0.020447  0  3.95028  0
C  C126  1  0.70828638  0.86233892  0.59229447  1  0.014963  0  -0.056451  -0.078699  0  3.90586  0
C  C127  1  0.63832640  0.82562216  0.62705406  1  -0.012263  0  -0.004727  -0.087316  0  3.942255  0
C  C128  1  0.10007072  0.68347796  0.21045654  1  1.559198  0  0.230498  0.56571  0  4.131883  0
C  C129  1  0.89993844  0.71041842  0.18348264  1  1.557662  0  0.2308  0.566334  0  4.131192  0
C  C130  1  0.08326985  0.76829811  0.33786337  1  1.56507  0  0.230488  0.566842  0  4.133046  0
C  C131  1  0.91669977  0.83778757  0.26833111  1  1.565015  0  0.230452  0.566318  0  4.133699  0
C  C132  1  0.89993058  0.18949175  0.91658923  1  1.541437  0  0.230682  0.566114  0  4.130775  0
C  C133  1  0.10006618  0.41655753  0.68952792  1  1.544815  0  0.230673  0.565764  0  4.131528  0
C  C134  1  0.91670264  0.07890091  0.81494919  1  1.539858  0  0.230627  0.566246  0  4.133532  0
C  C135  1  0.08326570  0.31496856  0.57890074  1  1.536424  0  0.230301  0.566052  0  4.132984  0
C  C136  1  0.60613643  0.18504042  0.23167662  1  1.556543  0  0.230482  0.566213  0  4.133038  0
C  C137  1  0.60615134  0.42111564  0.16215572  1  1.561951  0  0.230494  0.566531  0  4.132648  0
C  C138  1  0.39390676  0.08342846  0.31647280  1  1.558139  0  0.23061  0.565474  0  4.131457  0
C  C139  1  0.39391763  0.31050147  0.28954777  1  1.563646  0  0.230549  0.566019  0  4.131556  0
C  C140  1  0.39385071  0.73165521  0.68504203  1  1.565812  0  0.230708  0.56655  0  4.133564  0
C  C141  1  0.39386738  0.66216227  0.92111286  1  1.561589  0  0.230464  0.566414  0  4.132861  0
C  C142  1  0.60607537  0.81649856  0.58342096  1  1.557738  0  0.230621  0.56601  0  4.131791  0
C  C143  1  0.60609819  0.78955246  0.81050140  1  1.564351  0  0.230545  0.565771  0  4.131819  0
O  O144  1  0.99999365  0.99999392  0.50000282  1  -1.230798  0  -0.571229  -1.032783  0  2.537376  0
O  O145  1  0.15268233  0.02533774  0.43344808  1  -1.168486  0  -0.307819  -0.536063  0  2.330115  0
O  O146  1  0.04037504  0.15732050  0.38317354  1  -1.170581  0  -0.313487  -0.54571  0  2.345157  0
O  O147  1  0.95962335  0.93452066  0.41274941  1  -1.167482  0  -0.307501  -0.534877  0  2.332182  0
O  O148  1  0.15268548  0.12735213  0.41385649  1  -1.164388  0  -0.307715  -0.535863  0  2.330968  0
O  O149  1  0.04035235  0.91276069  0.43452991  1  -1.166883  0  -0.307749  -0.535226  0  2.331824  0
O  O150  1  0.95960029  0.07644301  0.38304821  1  -1.171684  0  -0.313715  -0.54604  0  2.345134  0
O  O151  1  0.84730953  0.93345726  0.52533830  1  -1.16865  0  -0.307752  -0.535957  0  2.330404  0
O  O152  1  0.95964772  0.88318817  0.65733249  1  -1.171243  0  -0.313524  -0.545707  0  2.345355  0
O  O153  1  0.84732045  0.91384237  0.62735808  1  -1.164289  0  -0.307694  -0.535755  0  2.330707  0
O  O154  1  0.04040353  0.88306241  0.57644929  1  -1.17114  0  -0.313536  -0.545753  0  2.345179  0
O  O155  1  0.04036589  0.12760470  0.52511426  1  -1.172631  0  -0.307531  -0.534932  0  2.331986  0
O  O156  1  0.95963418  0.02511858  0.62759957  1  -1.172242  0  -0.307632  -0.534989  0  2.331945  0
O  O157  1  0.00000119  0.49999859  0.00000062  1  -1.23088  0  -0.571285  -1.032864  0  2.537428  0
O  O158  1  0.95879431  0.58613483  0.06654468  1  -1.165746  0  -0.307698  -0.535915  0  2.330777  0
O  O159  1  0.04052536  0.42355883  0.11683566  1  -1.171427  0  -0.313757  -0.546107  0  2.344802  0
O  O160  1  0.84727579  0.37238668  0.08724097  1  -1.167123  0  -0.307429  -0.534763  0  2.332383  0
O  O161  1  0.04121794  0.56654055  0.08614463  1  -1.166312  0  -0.307729  -0.53599  0  2.330572  0
O  O162  1  0.84728256  0.47488150  0.06546135  1  -1.167406  0  -0.307564  -0.535019  0  2.331812  0
O  O163  1  0.95949547  0.34267899  0.11696711  1  -1.170308  0  -0.313428  -0.54579  0  2.345384  0
O  O164  1  0.95879274  0.37264271  0.97467346  1  -1.171485  0  -0.307719  -0.535899  0  2.330904  0
O  O165  1  0.04046812  0.61692117  0.84267251  1  -1.170805  0  -0.313508  -0.545798  0  2.345254  0
O  O166  1  0.04118856  0.47465821  0.87265398  1  -1.171224  0  -0.307661  -0.535998  0  2.330506  0
O  O167  1  0.95948121  0.61682161  0.92355015  1  -1.172347  0  -0.313578  -0.545729  0  2.344868  0
O  O168  1  0.15272313  0.56547729  0.97487701  1  -1.167326  0  -0.307578  -0.535011  0  2.332143  0
O  O169  1  0.15271315  0.58724307  0.87238429  1  -1.166765  0  -0.307551  -0.534959  0  2.331987  0
O  O170  1  0.13703252  0.74824942  0.19609831  1  -1.087453  0  -0.32578  -0.44934  0  2.226221  0
O  O171  1  0.11127587  0.63596312  0.23824829  1  -1.090775  0  -0.264072  -0.417364  0  2.022701  0
O  O172  1  0.86296682  0.69605315  0.24825109  1  -1.08284  0  -0.325792  -0.449444  0  2.226292  0
O  O173  1  0.88874574  0.73821123  0.13595683  1  -1.0899  0  -0.264266  -0.417719  0  2.022156  0
O  O174  1  0.05590550  0.70118048  0.35428371  1  -1.08496  0  -0.326475  -0.449252  0  2.226624  0
O  O175  1  0.13963761  0.79774171  0.32854863  1  -1.089013  0  -0.26456  -0.418623  0  2.026266  0
O  O176  1  0.94404463  0.85418297  0.20122492  1  -1.085459  0  -0.326245  -0.449038  0  2.227391  0
O  O177  1  0.86032862  0.82847647  0.29777329  1  -1.08834  0  -0.26459  -0.418364  0  2.025985  0
O  O178  1  0.86295214  0.16689839  0.88878580  1  -1.090051  0  -0.325718  -0.449465  0  2.226518  0
O  O179  1  0.88873050  0.15049696  0.97531019  1  -1.088482  0  -0.264204  -0.417742  0  2.022152  0
O  O180  1  0.13702285  0.38874709  0.66692632  1  -1.089622  0  -0.325787  -0.449333  0  2.226504  0
O  O181  1  0.11127739  0.47528119  0.65054465  1  -1.090255  0  -0.264246  -0.417629  0  2.022544  0
O  O182  1  0.94405738  0.08983708  0.85471358  1  -1.077962  0  -0.326348  -0.44902  0  2.227117  0
O  O183  1  0.86032651  0.03184628  0.84186937  1  -1.096264  0  -0.264686  -0.418585  0  2.026171  0
O  O184  1  0.05591183  0.35471805  0.58987263  1  -1.07394  0  -0.326454  -0.449208  0  2.226935  0
O  O185  1  0.13962949  0.34189852  0.53184549  1  -1.096572  0  -0.264412  -0.418359  0  2.02621  0
O  O186  1  0.55541799  0.14528121  0.29877747  1  -1.067845  0  -0.326277  -0.448993  0  2.227112  0
O  O187  1  0.62627220  0.15811377  0.20223496  1  -1.083439  0  -0.264617  -0.418497  0  2.025946  0
O  O188  1  0.55544191  0.41016250  0.14574982  1  -1.083734  0  -0.326354  -0.44913  0  2.226751  0
O  O189  1  0.62628593  0.46817449  0.17146566  1  -1.085035  0  -0.264544  -0.41865  0  2.026121  0
O  O190  1  0.44431477  0.11123701  0.25170546  1  -1.082631  0  -0.325746  -0.449118  0  2.226529  0
O  O191  1  0.37416455  0.02470054  0.36398306  1  -1.096915  0  -0.264243  -0.417584  0  2.022621  0
O  O192  1  0.44431868  0.33309450  0.30393132  1  -1.074652  0  -0.325828  -0.450248  0  2.22647  0
O  O193  1  0.37419603  0.34949563  0.26175199  1  -1.088998  0  -0.264033  -0.417481  0  2.022657  0
O  O194  1  0.44455787  0.79876167  0.64528344  1  -1.077248  0  -0.326368  -0.449059  0  2.227124  0
O  O195  1  0.37371653  0.70220522  0.65811940  1  -1.083569  0  -0.264682  -0.418659  0  2.02627  0
O  O196  1  0.44458126  0.64576665  0.91015226  1  -1.083646  0  -0.326389  -0.449238  0  2.226818  0
O  O197  1  0.37374565  0.67147467  0.96816417  1  -1.084596  0  -0.264576  -0.418551  0  2.026236  0
O  O198  1  0.55566974  0.75172916  0.61121990  1  -1.082907  0  -0.325628  -0.44945  0  2.226651  0
O  O199  1  0.62580694  0.86401654  0.52470440  1  -1.096782  0  -0.264323  -0.417761  0  2.022828  0
O  O200  1  0.55569644  0.80392399  0.83310235  1  -1.07515  0  -0.325943  -0.450174  0  2.226588  0
O  O201  1  0.62583348  0.76176663  0.84949102  1  -1.089805  0  -0.264012  -0.417415  0  2.022857  0
