# generated using pymatgen
data_CdH10C11S2N4O3
_symmetry_space_group_name_H-M   'P 1'
_cell_length_a   7.22557643
_cell_length_b   8.75701270
_cell_length_c   33.11206100
_cell_angle_alpha   93.75992777
_cell_angle_beta   89.99945179
_cell_angle_gamma   90.00086929
_symmetry_Int_Tables_number   1
_chemical_formula_structural   CdH10C11S2N4O3
_chemical_formula_sum   'Cd4 H40 C44 S8 N16 O12'
_cell_volume   2090.63828275
_cell_formula_units_Z   4
loop_
 _symmetry_equiv_pos_site_id
 _symmetry_equiv_pos_as_xyz
  1  'x, y, z'
loop_
 _atom_site_type_symbol
 _atom_site_label
 _atom_site_symmetry_multiplicity
 _atom_site_fract_x
 _atom_site_fract_y
 _atom_site_fract_z
 _atom_site_occupancy
 _atom_site_pbe_bader_charge
 _atom_site_pbe_bader_spin_density
 _atom_site_pbe_cm5_charge
 _atom_site_pbe_ddec_charge
 _atom_site_pbe_ddec_spin_density
 _atom_site_pbe_ddec_sum_bond_order
 _atom_site_pbe_magmom
Cd  Cd0  1  0.56456300  0.19004490  0.78502054  1  1.094865  0  0.676392  0.775966  0  2.37013  0
Cd  Cd1  1  0.06456771  0.30996005  0.71497809  1  1.094738  0  0.676392  0.776003  0  2.370061  0
Cd  Cd2  1  0.43544088  0.80994687  0.21497850  1  1.09486  0  0.676389  0.776032  0  2.370074  0
Cd  Cd3  1  0.93543893  0.69003979  0.28502196  1  1.09476  0  0.676384  0.77597  0  2.37013  0
H  H4  1  0.27972114  0.62397925  0.88506088  1  0.469188  0  0.352438  0.31264  0  0.875247  0
H  H5  1  0.77972052  0.87602442  0.61493774  1  0.469192  0  0.352404  0.312569  0  0.875293  0
H  H6  1  0.72029658  0.37601358  0.11493696  1  0.468986  0  0.352464  0.312721  0  0.875251  0
H  H7  1  0.22025844  0.12398212  0.38505998  1  0.469301  0  0.352458  0.312649  0  0.875343  0
H  H8  1  0.29327012  0.87575621  0.79183507  1  0.172684  0  0.12396  0.100806  0  1.03297  0
H  H9  1  0.79329325  0.62424220  0.70816608  1  0.172879  0  0.123938  0.100799  0  1.033122  0
H  H10  1  0.70674898  0.12424596  0.20816561  1  0.172664  0  0.12394  0.100795  0  1.032905  0
H  H11  1  0.20669402  0.37575629  0.29183093  1  0.173085  0  0.123938  0.100853  0  1.032918  0
H  H12  1  0.87535263  0.89567253  0.79558020  1  0.131259  0  0.115534  0.120737  0  1.017086  0
H  H13  1  0.37536789  0.60435027  0.70441841  1  0.131266  0  0.115486  0.120637  0  1.017097  0
H  H14  1  0.12467339  0.10432731  0.20441985  1  0.131567  0  0.115538  0.120685  0  1.017049  0
H  H15  1  0.62460693  0.39566500  0.29558999  1  0.131653  0  0.115469  0.120565  0  1.017306  0
H  H16  1  0.76560897  0.59276307  0.80427014  1  0.196629  0  0.119847  0.146377  0  1.03018  0
H  H17  1  0.26560519  0.90724806  0.69572477  1  0.196578  0  0.119789  0.146255  0  1.030257  0
H  H18  1  0.23441013  0.40722976  0.19572771  1  0.196744  0  0.119828  0.146343  0  1.030236  0
H  H19  1  0.73435994  0.09275562  0.30428136  1  0.196426  0  0.11985  0.146359  0  1.030191  0
H  H20  1  0.39139773  0.48419974  0.77644666  1  0.114061  0  0.10944  0.102666  0  1.036193  0
H  H21  1  0.89139986  0.01579701  0.72355045  1  0.114057  0  0.10947  0.102739  0  1.036285  0
H  H22  1  0.60862967  0.51579873  0.22355004  1  0.11407  0  0.109481  0.10271  0  1.036219  0
H  H23  1  0.10857080  0.98420142  0.27644565  1  0.113875  0  0.109482  0.102742  0  1.03616  0
H  H24  1  0.22918254  0.60312977  0.80341904  1  0.109788  0  0.126262  0.137575  0  0.964452  0
H  H25  1  0.72919037  0.89686821  0.69657845  1  0.109773  0  0.126278  0.137639  0  0.964463  0
H  H26  1  0.77083103  0.39686423  0.19657912  1  0.109528  0  0.126229  0.137535  0  0.964442  0
H  H27  1  0.27079137  0.10313942  0.30341837  1  0.109881  0  0.126279  0.137699  0  0.96436  0
H  H28  1  0.69060326  0.11169264  0.87885206  1  0.118172  0  0.107791  0.129455  0  1.002033  0
H  H29  1  0.19062083  0.38831587  0.62114367  1  0.118214  0  0.107835  0.129545  0  1.001923  0
H  H30  1  0.30939508  0.88829231  0.12114749  1  0.117986  0  0.107764  0.129427  0  1.00214  0
H  H31  1  0.80939550  0.61168089  0.37886147  1  0.118699  0  0.107774  0.129452  0  1.002112  0
H  H32  1  0.66024962  0.09240983  0.95378247  1  0.060157  0  0.098766  0.096206  0  0.999897  0
H  H33  1  0.16026236  0.40759453  0.54621197  1  0.059928  0  0.098856  0.096268  0  0.999827  0
H  H34  1  0.33974319  0.90756709  0.04621668  1  0.060098  0  0.09886  0.096277  0  0.999976  0
H  H35  1  0.83975812  0.59241928  0.45379187  1  0.060022  0  0.098869  0.096292  0  0.999871  0
H  H36  1  0.48611796  0.28711916  0.99583873  1  0.0762  0  0.096343  0.088927  0  1.015907  0
H  H37  1  0.98611919  0.21288403  0.50415701  1  0.075957  0  0.096366  0.089005  0  1.015841  0
H  H38  1  0.51386931  0.71286327  0.00415747  1  0.076291  0  0.096329  0.088952  0  1.015703  0
H  H39  1  0.01387639  0.78714793  0.49584465  1  0.076187  0  0.09639  0.089053  0  1.015689  0
H  H40  1  0.33709899  0.50870335  0.96551374  1  0.075004  0  0.104132  0.112853  0  1.010564  0
H  H41  1  0.83709753  0.99129569  0.53448340  1  0.0748  0  0.104134  0.112852  0  1.010486  0
H  H42  1  0.66289520  0.49128022  0.03448248  1  0.074672  0  0.104146  0.112816  0  1.010519  0
H  H43  1  0.16287729  0.00873134  0.46551306  1  0.074784  0  0.104146  0.112829  0  1.010754  0
C  C44  1  0.43704416  0.84155014  0.79414276  1  0.942101  0  0.134102  0.07801  0  3.939871  0
C  C45  1  0.93705613  0.65845686  0.70585691  1  0.94213  0  0.134009  0.077885  0  3.93998  0
C  C46  1  0.56297217  0.15843834  0.20585835  1  0.941443  0  0.134183  0.078299  0  3.939873  0
C  C47  1  0.06292007  0.34154173  0.29414161  1  0.942162  0  0.134091  0.077907  0  3.93971  0
C  C48  1  0.73866309  0.84485840  0.79556265  1  0.418404  0  -0.007849  -0.030332  0  3.990429  0
C  C49  1  0.23867163  0.65515323  0.70443099  1  0.418337  0  -0.007822  -0.030121  0  3.990183  0
C  C50  1  0.26135325  0.15515744  0.20443729  1  0.41831  0  -0.007811  -0.029975  0  3.989944  0
C  C51  1  0.76130595  0.34486299  0.29557470  1  0.418541  0  -0.007652  -0.029905  0  3.990053  0
C  C52  1  0.68631564  0.69625483  0.80025231  1  0.217987  0  -0.004703  -0.115094  0  3.893609  0
C  C53  1  0.18631462  0.80375608  0.69974663  1  0.218149  0  -0.004652  -0.115112  0  3.893615  0
C  C54  1  0.31372422  0.30375053  0.19974478  1  0.218319  0  -0.004691  -0.115153  0  3.893833  0
C  C55  1  0.81365604  0.19625226  0.30026077  1  0.217217  0  -0.004696  -0.115136  0  3.893435  0
C  C56  1  0.37358338  0.56467164  0.80305152  1  0.309982  0  -0.042671  -0.179017  0  3.919147  0
C  C57  1  0.87358448  0.93533044  0.69694563  1  0.30979  0  -0.042703  -0.179288  0  3.919235  0
C  C58  1  0.62643849  0.43532585  0.19694759  1  0.310153  0  -0.042684  -0.179025  0  3.919115  0
C  C59  1  0.12639172  0.06467493  0.30305176  1  0.310344  0  -0.042677  -0.179137  0  3.918927  0
C  C60  1  0.41703493  0.48344315  0.84007775  1  1.066549  0  0.235344  0.349627  0  3.988341  0
C  C61  1  0.91702501  0.01656442  0.65991927  1  1.066903  0  0.235318  0.349643  0  3.987854  0
C  C62  1  0.58298971  0.51655530  0.15991866  1  1.047235  0  0.235397  0.349827  0  3.987894  0
C  C63  1  0.08295949  0.98343877  0.34007961  1  1.0661  0  0.235325  0.349568  0  3.988348  0
C  C64  1  0.52827762  0.31975019  0.88055972  1  0.414158  0  0.094019  0.165723  0  4.011909  0
C  C65  1  0.02829556  0.18025394  0.61943802  1  0.414094  0  0.094057  0.165812  0  4.011726  0
C  C66  1  0.47172211  0.68023224  0.11943648  1  0.414154  0  0.094055  0.165688  0  4.011939  0
C  C67  1  0.97171663  0.81974367  0.38056291  1  0.414335  0  0.094035  0.165798  0  4.011805  0
C  C68  1  0.61292893  0.19580196  0.89768598  1  -0.043103  0  -0.08642  -0.139765  0  3.947296  0
C  C69  1  0.11294285  0.30420946  0.60230897  1  -0.042888  0  -0.086491  -0.139963  0  3.947237  0
C  C70  1  0.38707079  0.80418517  0.10231209  1  -0.042369  0  -0.086361  -0.139689  0  3.947367  0
C  C71  1  0.88706795  0.69579735  0.39769267  1  -0.043383  0  -0.086411  -0.139864  0  3.947578  0
C  C72  1  0.59588604  0.18735894  0.93932983  1  -0.015169  0  -0.100668  -0.098776  0  4.052489  0
C  C73  1  0.09589435  0.31263951  0.56066452  1  -0.015457  0  -0.100719  -0.098674  0  4.052376  0
C  C74  1  0.40411922  0.81262358  0.06066759  1  -0.015307  0  -0.100815  -0.098877  0  4.052605  0
C  C75  1  0.90410123  0.68737410  0.43933631  1  -0.015405  0  -0.10067  -0.098607  0  4.052568  0
C  C76  1  0.49766834  0.29890782  0.96336338  1  -0.078024  0  -0.099515  -0.088369  0  4.062912  0
C  C77  1  0.99766593  0.20109329  0.53663193  1  -0.07819  0  -0.099581  -0.088644  0  4.062886  0
C  C78  1  0.50232862  0.70107350  0.03663341  1  -0.078581  0  -0.099472  -0.08841  0  4.062622  0
C  C79  1  0.00233657  0.79891693  0.46336946  1  -0.078598  0  -0.099618  -0.088734  0  4.062661  0
C  C80  1  0.41394017  0.42377443  0.94674921  1  -0.01786  0  -0.099357  -0.182085  0  4.017878  0
C  C81  1  0.91395002  0.07621825  0.55324855  1  -0.017361  0  -0.099394  -0.182028  0  4.017797  0
C  C82  1  0.58604710  0.57620585  0.05324908  1  -0.017395  0  -0.099366  -0.181997  0  4.017731  0
C  C83  1  0.08604832  0.92379421  0.44675226  1  -0.017464  0  -0.099415  -0.182034  0  4.017829  0
C  C84  1  0.43161830  0.43207856  0.90499548  1  0.392151  0  0.098606  0.164904  0  4.021104  0
C  C85  1  0.93162270  0.06792366  0.59500255  1  0.392428  0  0.098652  0.164877  0  4.021077  0
C  C86  1  0.56839250  0.56790849  0.09500138  1  0.392282  0  0.098595  0.164909  0  4.02124  0
C  C87  1  0.06837011  0.93208995  0.40499828  1  0.39225  0  0.098643  0.164964  0  4.021127  0
S  S88  1  0.19717698  0.16013767  0.77071208  1  -0.540512  0  -0.248222  -0.559366  0  2.422622  0
S  S89  1  0.69718516  0.33986553  0.72928776  1  -0.54062  0  -0.248207  -0.559373  0  2.422769  0
S  S90  1  0.80282136  0.83985534  0.22928849  1  -0.540457  0  -0.248216  -0.55931  0  2.422664  0
S  S91  1  0.30282148  0.66013214  0.27071407  1  -0.540573  0  -0.248219  -0.559437  0  2.422729  0
S  S92  1  0.03083863  0.25639253  0.81958789  1  3.143185  0  0.474129  1.187107  0  6.234702  0
S  S93  1  0.53084418  0.24362095  0.68041206  1  3.14347  0  0.474283  1.187217  0  6.234465  0
S  S94  1  0.96917217  0.74360859  0.18041429  1  3.143537  0  0.474056  1.186961  0  6.234918  0
S  S95  1  0.46915416  0.75638702  0.31958990  1  3.143214  0  0.474191  1.187204  0  6.234303  0
N  N96  1  0.58213577  0.93399517  0.79175357  1  -1.219065  0  -0.360688  -0.265868  0  3.526694  0
N  N97  1  0.08214296  0.56601836  0.70824845  1  -1.21913  0  -0.360591  -0.265802  0  3.526783  0
N  N98  1  0.41787365  0.06599901  0.20824731  1  -1.218498  0  -0.36071  -0.266153  0  3.526705  0
N  N99  1  0.91783048  0.43398632  0.29175559  1  -1.219255  0  -0.360776  -0.265863  0  3.526652  0
N  N100  1  0.49457588  0.69683883  0.79936616  1  -1.194521  0  -0.242836  0.051417  0  3.790466  0
N  N101  1  0.99457683  0.80316788  0.70062845  1  -1.194623  0  -0.242829  0.051574  0  3.790225  0
N  N102  1  0.50545568  0.30315647  0.20063443  1  -1.194921  0  -0.242909  0.051134  0  3.790779  0
N  N103  1  0.00539245  0.19683423  0.29937132  1  -1.194471  0  -0.242978  0.051131  0  3.790759  0
N  N104  1  0.36586045  0.53465730  0.87828430  1  -1.244464  0  -0.371766  -0.312723  0  3.571499  0
N  N105  1  0.86586228  0.96534463  0.62171292  1  -1.244618  0  -0.371749  -0.312616  0  3.571277  0
N  N106  1  0.63415035  0.46532973  0.12171226  1  -1.224417  0  -0.371817  -0.312894  0  3.571443  0
N  N107  1  0.13412915  0.03465848  0.37828475  1  -1.244637  0  -0.371817  -0.312768  0  3.57174  0
N  N108  1  0.51645513  0.35630178  0.84045224  1  -1.217165  0  -0.348915  -0.374989  0  3.42143  0
N  N109  1  0.01646595  0.14370098  0.65954558  1  -1.217047  0  -0.348878  -0.374983  0  3.42123  0
N  N110  1  0.48355290  0.64368985  0.15954468  1  -1.217905  0  -0.34896  -0.375105  0  3.421487  0
N  N111  1  0.98353516  0.85629320  0.34045530  1  -1.216562  0  -0.348848  -0.37491  0  3.421458  0
O  O112  1  0.13424814  0.23660578  0.85649132  1  -1.302977  0  -0.34507  -0.564708  0  2.162482  0
O  O113  1  0.63425277  0.26342008  0.64350786  1  -1.302826  0  -0.345069  -0.564692  0  2.162308  0
O  O114  1  0.86577096  0.76338958  0.14351018  1  -1.303229  0  -0.34498  -0.564543  0  2.162473  0
O  O115  1  0.36574004  0.73658211  0.35649312  1  -1.302901  0  -0.344984  -0.564624  0  2.162366  0
O  O116  1  0.86283140  0.15957746  0.81636035  1  -1.327102  0  -0.352761  -0.600216  0  2.359528  0
O  O117  1  0.36283857  0.34043169  0.68364291  1  -1.327119  0  -0.352873  -0.600306  0  2.359654  0
O  O118  1  0.13717663  0.84042495  0.18364396  1  -1.327229  0  -0.352817  -0.600239  0  2.35963  0
O  O119  1  0.63716670  0.65958554  0.31636068  1  -1.326982  0  -0.352794  -0.600263  0  2.359449  0
O  O120  1  0.99441005  0.41595404  0.81051561  1  -1.322495  0  -0.355643  -0.609654  0  2.181426  0
O  O121  1  0.49440986  0.08405743  0.68948167  1  -1.322855  0  -0.355728  -0.609747  0  2.18133  0
O  O122  1  0.00560075  0.58404594  0.18948655  1  -1.322478  0  -0.355623  -0.609683  0  2.181583  0
O  O123  1  0.50557049  0.91595399  0.31052064  1  -1.322735  0  -0.355794  -0.609814  0  2.18132  0
