# generated using pymatgen
data_Zn2H31C27N3O13
_symmetry_space_group_name_H-M   'P 1'
_cell_length_a   11.17068112
_cell_length_b   13.91580587
_cell_length_c   22.46390488
_cell_angle_alpha   90.00013226
_cell_angle_beta   89.99985038
_cell_angle_gamma   89.99993842
_symmetry_Int_Tables_number   1
_chemical_formula_structural   Zn2H31C27N3O13
_chemical_formula_sum   'Zn8 H124 C108 N12 O52'
_cell_volume   3491.99222060
_cell_formula_units_Z   4
loop_
 _symmetry_equiv_pos_site_id
 _symmetry_equiv_pos_as_xyz
  1  'x, y, z'
loop_
 _atom_site_type_symbol
 _atom_site_label
 _atom_site_symmetry_multiplicity
 _atom_site_fract_x
 _atom_site_fract_y
 _atom_site_fract_z
 _atom_site_occupancy
 _atom_site_pbe_bader_charge
 _atom_site_pbe_bader_spin_density
 _atom_site_pbe_cm5_charge
 _atom_site_pbe_ddec_charge
 _atom_site_pbe_ddec_spin_density
 _atom_site_pbe_ddec_sum_bond_order
 _atom_site_pbe_magmom
Zn  Zn0  1  0.36877638  0.85812758  0.34621890  1  1.316907  0  0.679878  0.933383  0  2.225235  0
Zn  Zn1  1  0.13122512  0.14187257  0.84621843  1  1.316894  0  0.679879  0.933394  0  2.225223  0
Zn  Zn2  1  0.86877298  0.64187384  0.65378205  1  1.316956  0  0.679902  0.933408  0  2.225216  0
Zn  Zn3  1  0.63122317  0.35812803  0.15378122  1  1.316918  0  0.679908  0.933427  0  2.225152  0
Zn  Zn4  1  0.13517078  0.97791826  0.44042315  1  1.426521  0  0.697852  1.012327  0  2.293735  0
Zn  Zn5  1  0.36482933  0.02208224  0.94042355  1  1.426537  0  0.697835  1.012297  0  2.293721  0
Zn  Zn6  1  0.63517072  0.52208408  0.55957587  1  1.426556  0  0.69783  1.012266  0  2.293742  0
Zn  Zn7  1  0.86483219  0.47791601  0.05957669  1  1.426426  0  0.697826  1.012243  0  2.293812  0
H  H8  1  0.85328403  0.47245600  0.43042673  1  0.093208  0  0.107836  0.121919  0  1.010626  0
H  H9  1  0.64671872  0.52754474  0.93042502  1  0.093194  0  0.107812  0.12194  0  1.010607  0
H  H10  1  0.35328311  0.02754585  0.56957396  1  0.093159  0  0.107816  0.121918  0  1.010607  0
H  H11  1  0.14671358  0.97245255  0.06957355  1  0.09344  0  0.107838  0.121935  0  1.010586  0
H  H12  1  0.09491150  0.62639977  0.31344990  1  0.113504  0  0.110401  0.130012  0  1.014419  0
H  H13  1  0.40509197  0.37360026  0.81344941  1  0.113527  0  0.11043  0.130012  0  1.014399  0
H  H14  1  0.59490940  0.87360117  0.68655007  1  0.113485  0  0.110423  0.13002  0  1.014338  0
H  H15  1  0.90508926  0.12640011  0.18655122  1  0.113386  0  0.110416  0.13002  0  1.014422  0
H  H16  1  0.03607032  0.72503689  0.49227644  1  0.137658  0  0.110224  0.120782  0  1.033631  0
H  H17  1  0.46393041  0.27496237  0.99227707  1  0.137694  0  0.110251  0.120856  0  1.033565  0
H  H18  1  0.53606930  0.77496194  0.50772360  1  0.137678  0  0.110207  0.120788  0  1.033648  0
H  H19  1  0.96393031  0.22503795  0.00772393  1  0.137699  0  0.110224  0.120822  0  1.033587  0
H  H20  1  0.09916747  0.46875235  0.28137878  1  0.071077  0  0.102703  0.070628  0  0.99372  0
H  H21  1  0.40083169  0.53124756  0.78137718  1  0.071081  0  0.102705  0.070659  0  0.993699  0
H  H22  1  0.59916656  0.03124972  0.71862091  1  0.071105  0  0.102696  0.070626  0  0.993721  0
H  H23  1  0.90083104  0.96875168  0.21862150  1  0.071058  0  0.102725  0.070665  0  0.993715  0
H  H24  1  0.98413415  0.53380957  0.24343516  1  0.08237  0  0.106765  0.084587  0  1.008557  0
H  H25  1  0.51586690  0.46619120  0.74343397  1  0.082365  0  0.106746  0.084564  0  1.008568  0
H  H26  1  0.48413525  0.96619174  0.75656519  1  0.082379  0  0.106743  0.08455  0  1.008655  0
H  H27  1  0.01586404  0.03381023  0.25656449  1  0.082361  0  0.106733  0.084539  0  1.008665  0
H  H28  1  0.86472437  0.37914232  0.23585007  1  0.118733  0  0.115591  0.101053  0  0.975797  0
H  H29  1  0.63527493  0.62085986  0.73584850  1  0.118749  0  0.115582  0.101034  0  0.975814  0
H  H30  1  0.36472499  0.12085952  0.76415106  1  0.118743  0  0.115591  0.101035  0  0.975815  0
H  H31  1  0.13527426  0.87914248  0.26415008  1  0.11876  0  0.115601  0.101099  0  0.975739  0
H  H32  1  0.99844954  0.38008428  0.19359553  1  0.070203  0  0.106611  0.081336  0  1.001657  0
H  H33  1  0.50154998  0.61991702  0.69359369  1  0.07031  0  0.106603  0.081329  0  1.001694  0
H  H34  1  0.49844994  0.11991673  0.80640498  1  0.070185  0  0.10659  0.081313  0  1.001645  0
H  H35  1  0.00154909  0.88008399  0.30640461  1  0.070214  0  0.1066  0.081332  0  1.001658  0
H  H36  1  0.05893906  0.14190971  0.32218670  1  0.091719  0  0.114343  0.137434  0  0.993549  0
H  H37  1  0.44105720  0.85809035  0.82218641  1  0.091742  0  0.114298  0.137371  0  0.993568  0
H  H38  1  0.55894330  0.35809096  0.67781304  1  0.092188  0  0.114318  0.13739  0  0.993493  0
H  H39  1  0.94105720  0.64190957  0.17781355  1  0.09174  0  0.114301  0.137381  0  0.993591  0
H  H40  1  0.42559009  0.14537744  0.26224631  1  0.114419  0  0.107875  0.121784  0  1.010308  0
H  H41  1  0.07440470  0.85462096  0.76224738  1  0.114343  0  0.107853  0.121775  0  1.0103  0
H  H42  1  0.92559491  0.35461860  0.73775385  1  0.114709  0  0.107825  0.121749  0  1.010287  0
H  H43  1  0.57440617  0.64538071  0.23775484  1  0.114709  0  0.107824  0.121753  0  1.0103  0
H  H44  1  0.19188095  0.37660157  0.21394692  1  0.114908  0  0.105417  0.120624  0  1.042054  0
H  H45  1  0.30811588  0.62339736  0.71394780  1  0.114946  0  0.10547  0.120727  0  1.042092  0
H  H46  1  0.69188045  0.12339754  0.78605309  1  0.114926  0  0.105429  0.120687  0  1.042041  0
H  H47  1  0.80811769  0.87660411  0.28605233  1  0.114903  0  0.105459  0.120741  0  1.042091  0
H  H48  1  0.94165895  0.82961094  0.40450668  1  0.091412  0  0.116821  0.034849  0  1.062365  0
H  H49  1  0.55834214  0.17039115  0.90450680  1  0.091369  0  0.116825  0.034846  0  1.062401  0
H  H50  1  0.44165681  0.67039113  0.59549461  1  0.091331  0  0.116805  0.034783  0  1.062406  0
H  H51  1  0.05834422  0.32960952  0.09549339  1  0.091368  0  0.116808  0.034815  0  1.062397  0
H  H52  1  0.78209847  0.74076527  0.40073489  1  0.061697  0  0.104379  0.119151  0  1.007775  0
H  H53  1  0.71790175  0.25923465  0.90073493  1  0.061695  0  0.104372  0.119149  0  1.007759  0
H  H54  1  0.28209620  0.75923478  0.59926750  1  0.061901  0  0.10438  0.119145  0  1.007785  0
H  H55  1  0.21790393  0.24076588  0.09926594  1  0.061931  0  0.104382  0.119146  0  1.007788  0
H  H56  1  0.63743668  0.79219824  0.41218940  1  0.095949  0  0.109734  0.135339  0  1.009684  0
H  H57  1  0.86256258  0.20780244  0.91218784  1  0.096165  0  0.109727  0.135339  0  1.009656  0
H  H58  1  0.13743454  0.70780266  0.58781318  1  0.096133  0  0.109752  0.135346  0  1.009568  0
H  H59  1  0.36256654  0.29219724  0.08781196  1  0.096133  0  0.109757  0.13536  0  1.00953  0
H  H60  1  0.72529779  0.75517567  0.47450885  1  0.087813  0  0.101694  0.129444  0  1.003307  0
H  H61  1  0.77470293  0.24482453  0.97450790  1  0.08783  0  0.101674  0.129455  0  1.003289  0
H  H62  1  0.22529682  0.74482444  0.52549362  1  0.08789  0  0.10167  0.129446  0  1.003377  0
H  H63  1  0.27470280  0.25517595  0.02549290  1  0.087854  0  0.101658  0.129435  0  1.003377  0
H  H64  1  0.68153930  0.95364429  0.49777924  1  0.041477  0  0.096442  0.105693  0  1.019975  0
H  H65  1  0.81846130  0.04635527  0.99777706  1  0.041558  0  0.096444  0.105673  0  1.020003  0
H  H66  1  0.18153961  0.54635513  0.50222373  1  0.041557  0  0.096463  0.105683  0  1.020005  0
H  H67  1  0.31846371  0.45364445  0.00222324  1  0.041564  0  0.096438  0.105641  0  1.020011  0
H  H68  1  0.62599498  0.96533304  0.42319118  1  0.112293  0  0.110698  0.141919  0  0.994577  0
H  H69  1  0.87400512  0.03466696  0.92318891  1  0.112268  0  0.110696  0.141953  0  0.994529  0
H  H70  1  0.12599312  0.53466715  0.57681142  1  0.112235  0  0.110686  0.141931  0  0.994599  0
H  H71  1  0.37400801  0.46533272  0.07681087  1  0.112216  0  0.110703  0.141941  0  0.99463  0
H  H72  1  0.75823010  0.02957335  0.44536244  1  0.07882  0  0.108336  0.12466  0  1.005529  0
H  H73  1  0.74176899  0.97042530  0.94536079  1  0.078821  0  0.108341  0.12469  0  1.005521  0
H  H74  1  0.25822956  0.47042643  0.55464061  1  0.078847  0  0.108352  0.124704  0  1.005529  0
H  H75  1  0.24177258  0.52957479  0.05463988  1  0.078852  0  0.108333  0.124668  0  1.005544  0
H  H76  1  0.14019581  0.07135296  0.57048404  1  0.092403  0  0.119973  0.041552  0  0.997508  0
H  H77  1  0.35980626  0.92864400  0.07048684  1  0.092571  0  0.119985  0.041593  0  0.997435  0
H  H78  1  0.64019231  0.42864836  0.42951248  1  0.092668  0  0.119944  0.041615  0  0.997455  0
H  H79  1  0.85980776  0.57134520  0.92951545  1  0.092378  0  0.119991  0.041674  0  0.99745  0
H  H80  1  0.93154893  0.87614543  0.58786977  1  0.09487  0  0.112676  0.137806  0  0.987403  0
H  H81  1  0.56845115  0.12385261  0.08787135  1  0.094933  0  0.11261  0.137622  0  0.987485  0
H  H82  1  0.43154693  0.62385737  0.41212976  1  0.094865  0  0.112696  0.137854  0  0.987401  0
H  H83  1  0.06845691  0.37614158  0.91212704  1  0.09459  0  0.112657  0.137737  0  0.987483  0
H  H84  1  0.84609022  0.94573477  0.63994185  1  0.051299  0  0.100087  0.109167  0  0.99872  0
H  H85  1  0.65391048  0.05426633  0.13994278  1  0.051284  0  0.100065  0.109116  0  0.998736  0
H  H86  1  0.34608948  0.55426954  0.36005734  1  0.051307  0  0.100032  0.109117  0  0.99873  0
H  H87  1  0.15391553  0.44573210  0.86005550  1  0.051218  0  0.10005  0.109124  0  0.998682  0
H  H88  1  0.96363272  0.86979019  0.66565764  1  0.127214  0  0.107973  0.138506  0  1.016021  0
H  H89  1  0.53636695  0.13020957  0.16565839  1  0.127207  0  0.107965  0.138475  0  1.016018  0
H  H90  1  0.46362933  0.63021114  0.33434274  1  0.127163  0  0.107974  0.138544  0  1.016011  0
H  H91  1  0.03637313  0.36978824  0.83434049  1  0.127114  0  0.108007  0.138585  0  1.015958  0
H  H92  1  0.09731633  0.12005604  0.65920331  1  0.06928  0  0.110477  0.122055  0  0.983898  0
H  H93  1  0.40268616  0.87994341  0.15920466  1  0.069184  0  0.110484  0.122059  0  0.983912  0
H  H94  1  0.59731336  0.37994747  0.34079460  1  0.069271  0  0.11046  0.121985  0  0.983837  0
H  H95  1  0.90268359  0.62005007  0.84079580  1  0.069388  0  0.110446  0.122029  0  0.983833  0
H  H96  1  0.07120952  0.02454389  0.71076464  1  0.086123  0  0.108285  0.140092  0  1.00526  0
H  H97  1  0.42879001  0.97545503  0.21076654  1  0.086084  0  0.108278  0.140061  0  1.005257  0
H  H98  1  0.57120939  0.47545820  0.28923197  1  0.086112  0  0.108244  0.139987  0  1.005318  0
H  H99  1  0.92879142  0.52453986  0.78923389  1  0.086127  0  0.108256  0.14001  0  1.005312  0
H  H100  1  0.94901367  0.09426490  0.68430880  1  0.054846  0  0.100355  0.110186  0  1.020187  0
H  H101  1  0.55098858  0.90573278  0.18431019  1  0.054803  0  0.100353  0.110165  0  1.020198  0
H  H102  1  0.44901001  0.40573471  0.31568866  1  0.054856  0  0.100321  0.110103  0  1.020225  0
H  H103  1  0.05098628  0.59426316  0.81568939  1  0.054847  0  0.100296  0.110094  0  1.020223  0
H  H104  1  0.30023558  0.15340611  0.43959090  1  0.124148  0  0.124705  0.059976  0  0.996448  0
H  H105  1  0.19976543  0.84659511  0.93959135  1  0.124158  0  0.124714  0.059984  0  0.996454  0
H  H106  1  0.80023329  0.34659938  0.56040853  1  0.124291  0  0.124682  0.059939  0  0.996517  0
H  H107  1  0.69976604  0.65340071  0.06040848  1  0.124307  0  0.124703  0.059989  0  0.996443  0
H  H108  1  0.38404063  0.28989256  0.42045758  1  0.058145  0  0.114029  0.125333  0  0.988579  0
H  H109  1  0.11595779  0.71010930  0.92045795  1  0.058122  0  0.11402  0.125274  0  0.988581  0
H  H110  1  0.88404290  0.21011286  0.57954263  1  0.058064  0  0.113981  0.125225  0  0.988577  0
H  H111  1  0.61595633  0.78988874  0.07954244  1  0.058078  0  0.113993  0.125235  0  0.988591  0
H  H112  1  0.32458840  0.38876297  0.46178354  1  0.046953  0  0.109063  0.125861  0  0.991424  0
H  H113  1  0.17541160  0.61123833  0.96178413  1  0.046966  0  0.109063  0.125816  0  0.991455  0
H  H114  1  0.82459102  0.11124106  0.53821630  1  0.046998  0  0.109071  0.125834  0  0.991445  0
H  H115  1  0.67541022  0.88875895  0.03821617  1  0.046997  0  0.109079  0.125855  0  0.991457  0
H  H116  1  0.29038479  0.37597594  0.38442924  1  0.078267  0  0.105284  0.116131  0  1.002445  0
H  H117  1  0.20961652  0.62402435  0.88442891  1  0.078286  0  0.105249  0.116068  0  1.002392  0
H  H118  1  0.79038698  0.12402668  0.61557110  1  0.078318  0  0.10522  0.115983  0  1.002394  0
H  H119  1  0.70961385  0.87597505  0.11557090  1  0.078301  0  0.105221  0.115988  0  1.002428  0
H  H120  1  0.05888948  0.35252935  0.39961996  1  0.089155  0  0.106673  0.12575  0  1.000613  0
H  H121  1  0.44111085  0.64747171  0.89961937  1  0.089156  0  0.106663  0.12574  0  1.000613  0
H  H122  1  0.55889172  0.14747275  0.60037933  1  0.08896  0  0.106688  0.125764  0  1.000602  0
H  H123  1  0.94110740  0.85252748  0.10037970  1  0.088954  0  0.106687  0.125786  0  1.000564  0
H  H124  1  0.09282004  0.38981585  0.47376291  1  0.077992  0  0.105695  0.12047  0  1.002586  0
H  H125  1  0.40717989  0.61018621  0.97376275  1  0.078013  0  0.105695  0.120483  0  1.00261  0
H  H126  1  0.59282362  0.11018622  0.52623634  1  0.078105  0  0.1057  0.120497  0  1.002547  0
H  H127  1  0.90717678  0.88981302  0.02623681  1  0.078116  0  0.105701  0.12049  0  1.002604  0
H  H128  1  0.01939580  0.27687378  0.46084259  1  0.106208  0  0.113771  0.135853  0  0.988883  0
H  H129  1  0.48060420  0.72312679  0.96084251  1  0.106198  0  0.113787  0.135892  0  0.988883  0
H  H130  1  0.51939648  0.22312835  0.53915720  1  0.106174  0  0.113767  0.135856  0  0.988893  0
H  H131  1  0.98060386  0.77687166  0.03915741  1  0.106171  0  0.113784  0.135901  0  0.988879  0
C  C132  1  0.88785007  0.58101977  0.52893994  1  1.580945  0  0.218526  0.603021  0  4.169669  0
C  C133  1  0.61215390  0.41898307  0.02893966  1  1.581573  0  0.218682  0.603233  0  4.169388  0
C  C134  1  0.38784647  0.91898234  0.47105965  1  1.581602  0  0.218675  0.603195  0  4.169474  0
C  C135  1  0.11215169  0.08101755  0.97106001  1  1.581549  0  0.21864  0.603246  0  4.16949  0
C  C136  1  0.94034926  0.59633675  0.46813749  1  -0.057714  0  -0.020323  -0.0244  0  4.013025  0
C  C137  1  0.55965508  0.40366413  0.96813704  1  -0.057644  0  -0.020333  -0.02435  0  4.013128  0
C  C138  1  0.44034446  0.90366388  0.53186248  1  -0.057686  0  -0.020261  -0.024238  0  4.012889  0
C  C139  1  0.05965244  0.09633509  0.03186226  1  -0.057776  0  -0.020217  -0.02431  0  4.012982  0
C  C140  1  0.91427044  0.53207019  0.42246241  1  0.041613  0  -0.092015  -0.202427  0  3.953873  0
C  C141  1  0.58573235  0.46793053  0.92246068  1  0.041619  0  -0.091983  -0.202471  0  3.953929  0
C  C142  1  0.41426800  0.96793119  0.57753804  1  0.041668  0  -0.092018  -0.202472  0  3.953857  0
C  C143  1  0.08572955  0.03206940  0.07753769  1  0.04151  0  -0.092004  -0.20241  0  3.953756  0
C  C144  1  0.96843827  0.54237202  0.36655313  1  0.431855  0  0.080028  0.247946  0  4.09468  0
C  C145  1  0.53156660  0.45762706  0.86655146  1  0.43185  0  0.080066  0.247899  0  4.094758  0
C  C146  1  0.46843465  0.95762859  0.63344769  1  0.431865  0  0.08006  0.247898  0  4.094729  0
C  C147  1  0.03156171  0.04237076  0.13344609  1  0.431698  0  0.079986  0.247897  0  4.094709  0
C  C148  1  0.05073772  0.61663040  0.35620607  1  -0.041892  0  -0.101295  -0.233806  0  3.953597  0
C  C149  1  0.44926731  0.38336691  0.85620598  1  -0.041811  0  -0.101337  -0.233746  0  3.953517  0
C  C150  1  0.55073225  0.88336698  0.64379307  1  -0.041734  0  -0.101373  -0.233823  0  3.953453  0
C  C151  1  0.94926216  0.11662911  0.14379370  1  -0.041743  0  -0.101267  -0.233798  0  3.953625  0
C  C152  1  0.07450602  0.68234999  0.40211664  1  -0.051945  0  -0.024321  -0.027999  0  4.015248  0
C  C153  1  0.42549787  0.31764965  0.90211738  1  -0.051834  0  -0.024371  -0.027936  0  4.015058  0
C  C154  1  0.57450179  0.81765024  0.59788202  1  -0.051822  0  -0.024402  -0.028012  0  4.015231  0
C  C155  1  0.92549556  0.18234927  0.09788278  1  -0.051803  0  -0.024386  -0.027979  0  4.015165  0
C  C156  1  0.01837860  0.67297157  0.45739379  1  -0.045421  0  -0.092226  -0.150805  0  3.983881  0
C  C157  1  0.48162321  0.32703043  0.95739491  1  -0.045481  0  -0.092277  -0.151045  0  3.983907  0
C  C158  1  0.51837733  0.82703086  0.54260583  1  -0.045475  0  -0.092247  -0.15096  0  3.984002  0
C  C159  1  0.98162120  0.17296844  0.04260517  1  -0.045373  0  -0.092291  -0.151002  0  3.983883  0
C  C160  1  0.15955541  0.76531100  0.39381488  1  1.584472  0  0.216946  0.586932  0  4.181754  0
C  C161  1  0.34044584  0.23469005  0.89381516  1  1.584251  0  0.216904  0.586819  0  4.181642  0
C  C162  1  0.65955482  0.73468916  0.60618456  1  1.584344  0  0.216952  0.586956  0  4.181733  0
C  C163  1  0.84044516  0.26530894  0.10618555  1  1.584306  0  0.216909  0.586899  0  4.181639  0
C  C164  1  0.00263891  0.47049859  0.27123190  1  0.369846  0  -0.07151  -0.01344  0  3.901155  0
C  C165  1  0.49736119  0.52950128  0.77123018  1  0.369882  0  -0.071557  -0.013543  0  3.901059  0
C  C166  1  0.50263795  0.02950141  0.72876881  1  0.369823  0  -0.071457  -0.013385  0  3.901157  0
C  C167  1  0.99736049  0.97049931  0.22876838  1  0.369845  0  -0.071497  -0.01344  0  3.90123  0
C  C168  1  0.96244804  0.38083892  0.23908542  1  0.416115  0  -0.069766  -0.00285  0  3.898065  0
C  C169  1  0.53754946  0.61916184  0.73908398  1  0.415978  0  -0.069688  -0.002751  0  3.897867  0
C  C170  1  0.46244867  0.11916140  0.76091513  1  0.416117  0  -0.069716  -0.002755  0  3.897912  0
C  C171  1  0.03755059  0.88083914  0.26091517  1  0.416089  0  -0.069799  -0.00293  0  3.897996  0
C  C172  1  0.10883671  0.26302367  0.26765617  1  0.406243  0  0.076508  0.248843  0  4.103556  0
C  C173  1  0.39116074  0.73697691  0.76765710  1  0.406628  0  0.076518  0.248821  0  4.10367  0
C  C174  1  0.60883724  0.23697768  0.73234396  1  0.406274  0  0.076521  0.24882  0  4.103718  0
C  C175  1  0.89116208  0.76302449  0.23234337  1  0.406282  0  0.076526  0.248946  0  4.103551  0
C  C176  1  0.13067958  0.17639488  0.29723599  1  0.024244  0  -0.096708  -0.212187  0  3.959352  0
C  C177  1  0.36931681  0.82360652  0.79723530  1  0.024256  0  -0.096606  -0.211991  0  3.95957  0
C  C178  1  0.63068284  0.32360716  0.70276500  1  0.023809  0  -0.09663  -0.212013  0  3.959521  0
C  C179  1  0.86931664  0.67639489  0.20276387  1  0.02427  0  -0.096592  -0.212021  0  3.959474  0
C  C180  1  0.24289927  0.13269128  0.29376988  1  -0.003051  0  -0.02495  -0.026051  0  4.013564  0
C  C181  1  0.25709624  0.86730939  0.79377029  1  -0.002865  0  -0.024958  -0.026056  0  4.013821  0
C  C182  1  0.74290335  0.36730922  0.70623007  1  -0.002823  0  -0.024965  -0.026085  0  4.013783  0
C  C183  1  0.75709790  0.63269069  0.20623036  1  -0.002824  0  -0.024946  -0.026041  0  4.013665  0
C  C184  1  0.33737163  0.17842767  0.26382359  1  -0.028379  0  -0.092718  -0.141533  0  3.943341  0
C  C185  1  0.16262315  0.82157001  0.76382583  1  -0.028393  0  -0.092716  -0.141601  0  3.943361  0
C  C186  1  0.83737561  0.32156845  0.73617490  1  -0.028718  0  -0.09271  -0.141512  0  3.943303  0
C  C187  1  0.66262459  0.67843086  0.23617583  1  -0.028719  0  -0.092732  -0.141564  0  3.943335  0
C  C188  1  0.31689035  0.26721947  0.23655637  1  -0.069759  0  -0.022261  -0.012296  0  4.005077  0
C  C189  1  0.18310457  0.73277812  0.73655890  1  -0.069734  0  -0.022268  -0.012229  0  4.004969  0
C  C190  1  0.81689251  0.23277810  0.76344171  1  -0.069725  0  -0.022244  -0.012348  0  4.005118  0
C  C191  1  0.68310754  0.76722274  0.26344184  1  -0.06975  0  -0.022222  -0.012234  0  4.005051  0
C  C192  1  0.20232792  0.30873849  0.23742586  1  -0.041825  0  -0.106016  -0.247754  0  3.984643  0
C  C193  1  0.29766789  0.69126125  0.73742730  1  -0.0422  0  -0.10605  -0.247896  0  3.984716  0
C  C194  1  0.70232925  0.19126133  0.76257325  1  -0.041868  0  -0.106011  -0.247826  0  3.984789  0
C  C195  1  0.79766991  0.80874023  0.26257329  1  -0.041853  0  -0.106049  -0.247987  0  3.984917  0
C  C196  1  0.41398385  0.32210300  0.20438785  1  1.558236  0  0.193509  0.547076  0  4.252288  0
C  C197  1  0.08601214  0.67789662  0.70438821  1  1.558319  0  0.193562  0.547078  0  4.252013  0
C  C198  1  0.91398502  0.17789305  0.79561233  1  1.558266  0  0.193574  0.547174  0  4.252073  0
C  C199  1  0.58601665  0.82210935  0.29561177  1  1.557952  0  0.193531  0.547092  0  4.251996  0
C  C200  1  0.25505162  0.03476527  0.32081764  1  1.552653  0  0.214786  0.585448  0  4.191291  0
C  C201  1  0.24494644  0.96523622  0.82081642  1  1.552459  0  0.214782  0.585386  0  4.191439  0
C  C202  1  0.75505391  0.46523594  0.67918363  1  1.552383  0  0.214765  0.585374  0  4.191462  0
C  C203  1  0.74494569  0.53476387  0.17918380  1  1.552407  0  0.214754  0.585342  0  4.191463  0
C  C204  1  0.89608152  0.89610013  0.41823946  1  1.368497  0  0.171024  0.299047  0  4.089236  0
C  C205  1  0.60391860  0.10390201  0.91823853  1  1.36845  0  0.17103  0.299084  0  4.089369  0
C  C206  1  0.39608044  0.60390270  0.58176234  1  1.368461  0  0.171156  0.299287  0  4.089379  0
C  C207  1  0.10392067  0.39609862  0.08176205  1  1.368489  0  0.17101  0.299107  0  4.089515  0
C  C208  1  0.72856000  0.78716654  0.42981005  1  0.236147  0  -0.134328  -0.279319  0  3.863896  0
C  C209  1  0.77143917  0.21283205  0.92980950  1  0.235952  0  -0.134324  -0.279335  0  3.863825  0
C  C210  1  0.22855883  0.71283284  0.57019241  1  0.235686  0  -0.134352  -0.27932  0  3.863894  0
C  C211  1  0.27143965  0.28716700  0.07019085  1  0.235685  0  -0.134354  -0.279348  0  3.863821  0
C  C212  1  0.70688612  0.96312478  0.45082924  1  0.244926  0  -0.135985  -0.276528  0  3.880507  0
C  C213  1  0.79311204  0.03687245  0.95082708  1  0.244873  0  -0.135987  -0.276562  0  3.880524  0
C  C214  1  0.20688710  0.53687390  0.54917414  1  0.244918  0  -0.135994  -0.276523  0  3.880648  0
C  C215  1  0.29311508  0.46312658  0.04917369  1  0.244869  0  -0.135987  -0.276461  0  3.880646  0
C  C216  1  0.08242676  0.00697224  0.57153460  1  1.379553  0  0.176932  0.300644  0  4.104164  0
C  C217  1  0.41757708  0.99302473  0.07153609  1  1.379377  0  0.176825  0.300425  0  4.104312  0
C  C218  1  0.58242050  0.49302913  0.42846377  1  1.379268  0  0.176832  0.300398  0  4.104514  0
C  C219  1  0.91758136  0.50696515  0.92846524  1  1.380117  0  0.176839  0.300424  0  4.104511  0
C  C220  1  0.93551275  0.91747764  0.62928067  1  0.22567  0  -0.134544  -0.270519  0  3.864515  0
C  C221  1  0.56448712  0.08252127  0.12928176  1  0.225616  0  -0.134427  -0.270228  0  3.864352  0
C  C222  1  0.43551102  0.58252516  0.37071885  1  0.225622  0  -0.134538  -0.270617  0  3.864472  0
C  C223  1  0.06449304  0.41747364  0.87071709  1  0.22612  0  -0.134522  -0.270478  0  3.864542  0
C  C224  1  0.03534339  0.06235192  0.67169491  1  0.267194  0  -0.130491  -0.278877  0  3.898769  0
C  C225  1  0.46465904  0.93764686  0.17169670  1  0.267408  0  -0.130466  -0.278836  0  3.89881  0
C  C226  1  0.53533952  0.43765092  0.32830219  1  0.267182  0  -0.130328  -0.278526  0  3.898688  0
C  C227  1  0.96465840  0.56234729  0.82830368  1  0.267131  0  -0.130369  -0.278629  0  3.898718  0
C  C228  1  0.20937089  0.18312560  0.44568030  1  1.385255  0  0.176001  0.298917  0  4.089392  0
C  C229  1  0.29063008  0.81687564  0.94568104  1  1.385246  0  0.17597  0.298866  0  4.089417  0
C  C230  1  0.70937047  0.31687781  0.55431925  1  1.385044  0  0.175973  0.298897  0  4.089518  0
C  C231  1  0.79062890  0.68312297  0.05431867  1  1.385092  0  0.175943  0.298806  0  4.089408  0
C  C232  1  0.30588689  0.33665741  0.42618329  1  0.298042  0  -0.125619  -0.278005  0  3.923613  0
C  C233  1  0.19411509  0.66334447  0.92618438  1  0.297792  0  -0.125563  -0.277777  0  3.92348  0
C  C234  1  0.80588657  0.16334663  0.57381613  1  0.297788  0  -0.125477  -0.277618  0  3.923421  0
C  C235  1  0.69411359  0.83665422  0.07381635  1  0.297788  0  -0.12551  -0.27768  0  3.923514  0
C  C236  1  0.08637651  0.32747661  0.44402004  1  0.213238  0  -0.130204  -0.267762  0  3.874447  0
C  C237  1  0.41362358  0.67252462  0.94401952  1  0.213257  0  -0.130206  -0.267798  0  3.874476  0
C  C238  1  0.58637806  0.17252690  0.55597922  1  0.213455  0  -0.130206  -0.267785  0  3.874418  0
C  C239  1  0.91362309  0.82747317  0.05597914  1  0.213436  0  -0.130235  -0.267863  0  3.874432  0
N  N240  1  0.78116818  0.88320049  0.43154353  1  -1.196889  0  -0.274309  0.052013  0  3.69985  0
N  N241  1  0.71883188  0.11679811  0.93154247  1  -1.196906  0  -0.274265  0.052012  0  3.699881  0
N  N242  1  0.28116715  0.61679885  0.56845886  1  -1.196916  0  -0.274286  0.051904  0  3.699994  0
N  N243  1  0.21883402  0.38320170  0.06845795  1  -1.196914  0  -0.274283  0.051923  0  3.700005  0
N  N244  1  0.01943249  0.99683095  0.62173143  1  -1.225024  0  -0.27906  0.029257  0  3.723252  0
N  N245  1  0.48056840  0.00316692  0.12173320  1  -1.225181  0  -0.27911  0.029251  0  3.723303  0
N  N246  1  0.51943073  0.50317005  0.37826596  1  -1.224916  0  -0.279076  0.029277  0  3.723375  0
N  N247  1  0.98057229  0.49682691  0.87826688  1  -1.225419  0  -0.279019  0.02924  0  3.723432  0
N  N248  1  0.20150740  0.27873414  0.44057263  1  -1.251995  0  -0.280406  0.026318  0  3.7282  0
N  N249  1  0.29849181  0.72126779  0.94057322  1  -1.251722  0  -0.280403  0.02627  0  3.728262  0
N  N250  1  0.70150887  0.22127000  0.55942738  1  -1.25179  0  -0.280403  0.026244  0  3.728209  0
N  N251  1  0.79849136  0.77873009  0.05942738  1  -1.251778  0  -0.280368  0.02632  0  3.728247  0
O  O252  1  0.81751151  0.51027436  0.53628015  1  -1.201175  0  -0.328044  -0.603011  0  2.354991  0
O  O253  1  0.68249332  0.48972923  0.03628033  1  -1.201261  0  -0.328116  -0.603111  0  2.354935  0
O  O254  1  0.31751143  0.98973069  0.46371863  1  -1.201331  0  -0.328115  -0.603087  0  2.354949  0
O  O255  1  0.18248945  0.01027061  0.96371969  1  -1.201281  0  -0.3281  -0.603125  0  2.354971  0
O  O256  1  0.92140473  0.64009511  0.56918719  1  -1.164805  0  -0.309605  -0.546723  0  2.364803  0
O  O257  1  0.57859813  0.35990933  0.06918643  1  -1.165348  0  -0.309631  -0.546752  0  2.364734  0
O  O258  1  0.42140231  0.85990770  0.43081324  1  -1.165346  0  -0.309665  -0.546818  0  2.364818  0
O  O259  1  0.07859874  0.14009204  0.93081284  1  -1.165328  0  -0.309661  -0.546817  0  2.364793  0
O  O260  1  0.23018954  0.76410290  0.34898603  1  -1.165579  0  -0.311753  -0.534824  0  2.281853  0
O  O261  1  0.26981105  0.23589725  0.84898641  1  -1.16554  0  -0.311747  -0.534792  0  2.28183  0
O  O262  1  0.73018692  0.73589648  0.65101332  1  -1.165594  0  -0.311749  -0.534846  0  2.282007  0
O  O263  1  0.76981014  0.26410251  0.15101440  1  -1.16558  0  -0.311721  -0.53479  0  2.28189  0
O  O264  1  0.15499870  0.83010646  0.43337617  1  -1.195218  0  -0.316315  -0.581989  0  2.426315  0
O  O265  1  0.34499966  0.16989330  0.93337591  1  -1.195171  0  -0.316269  -0.581953  0  2.426267  0
O  O266  1  0.65500019  0.66989371  0.56662416  1  -1.195254  0  -0.316311  -0.581998  0  2.426321  0
O  O267  1  0.84500090  0.33010569  0.06662435  1  -1.195173  0  -0.316322  -0.582005  0  2.426166  0
O  O268  1  0.93572690  0.47493425  0.32563635  1  -1.083273  0  -0.186851  -0.205217  0  2.554079  0
O  O269  1  0.56427371  0.52506683  0.82563518  1  -1.083345  0  -0.18684  -0.205166  0  2.554111  0
O  O270  1  0.43572544  0.02506681  0.67436379  1  -1.083321  0  -0.186825  -0.205171  0  2.554127  0
O  O271  1  0.06427250  0.97493270  0.17436393  1  -1.083264  0  -0.186833  -0.20517  0  2.554049  0
O  O272  1  0.99330647  0.29475124  0.27061192  1  -1.073726  0  -0.188285  -0.204555  0  2.529106  0
O  O273  1  0.50669086  0.70524963  0.77061197  1  -1.073674  0  -0.18836  -0.204587  0  2.529035  0
O  O274  1  0.49330805  0.20524905  0.72938771  1  -1.073715  0  -0.188402  -0.204657  0  2.52906  0
O  O275  1  0.00669228  0.79475138  0.22938722  1  -1.073699  0  -0.18833  -0.204606  0  2.529044  0
O  O276  1  0.51892197  0.28122569  0.20291917  1  -1.167694  0  -0.33719  -0.571121  0  2.283139  0
O  O277  1  0.98107481  0.71877565  0.70291952  1  -1.16778  0  -0.337204  -0.571117  0  2.283087  0
O  O278  1  0.01892139  0.21877213  0.79708240  1  -1.167644  0  -0.337188  -0.571144  0  2.283182  0
O  O279  1  0.48107679  0.78123142  0.29707950  1  -1.167626  0  -0.33718  -0.571116  0  2.283128  0
O  O280  1  0.39027895  0.40126116  0.18102822  1  -1.167775  0  -0.327198  -0.543776  0  2.122114  0
O  O281  1  0.10971627  0.59873838  0.68102755  1  -1.167886  0  -0.327201  -0.543761  0  2.121991  0
O  O282  1  0.89027921  0.09873491  0.81897154  1  -1.167913  0  -0.327227  -0.543799  0  2.122005  0
O  O283  1  0.60972055  0.90126614  0.31897284  1  -1.167626  0  -0.327228  -0.543796  0  2.121945  0
O  O284  1  0.34999150  0.98676182  0.30905850  1  -1.151925  0  -0.30736  -0.539184  0  2.347809  0
O  O285  1  0.15000661  0.01324034  0.80905694  1  -1.151987  0  -0.307374  -0.539165  0  2.347934  0
O  O286  1  0.84999345  0.51323961  0.69094336  1  -1.151954  0  -0.307377  -0.539167  0  2.347927  0
O  O287  1  0.65000609  0.48676096  0.19094269  1  -1.151969  0  -0.307388  -0.539202  0  2.34799  0
O  O288  1  0.16824127  0.00313371  0.35141342  1  -1.204298  0  -0.322755  -0.604529  0  2.447244  0
O  O289  1  0.33175752  0.99686717  0.85141258  1  -1.204241  0  -0.322757  -0.60452  0  2.447171  0
O  O290  1  0.66824369  0.49686614  0.64858752  1  -1.204218  0  -0.322706  -0.604461  0  2.447166  0
O  O291  1  0.83175607  0.50313427  0.14858708  1  -1.204212  0  -0.322711  -0.604431  0  2.447168  0
O  O292  1  0.95035568  0.97534885  0.42087615  1  -1.16204  0  -0.310124  -0.468176  0  2.348665  0
O  O293  1  0.54964533  0.02465330  0.92087562  1  -1.161974  0  -0.310151  -0.468207  0  2.348723  0
O  O294  1  0.45035383  0.52465465  0.57912513  1  -1.161934  0  -0.310246  -0.468296  0  2.348709  0
O  O295  1  0.04964730  0.47534737  0.07912502  1  -1.161898  0  -0.310083  -0.468136  0  2.348851  0
O  O296  1  0.07753935  0.94979000  0.52845817  1  -1.15559  0  -0.297373  -0.452693  0  2.385992  0
O  O297  1  0.42246563  0.05020537  0.02845964  1  -1.155466  0  -0.297259  -0.452495  0  2.386079  0
O  O298  1  0.57752897  0.55021023  0.47153959  1  -1.155594  0  -0.297266  -0.452541  0  2.386201  0
O  O299  1  0.92247446  0.44978133  0.97154008  1  -1.155772  0  -0.297335  -0.452611  0  2.38618  0
O  O300  1  0.12194651  0.12952186  0.45692191  1  -1.155373  0  -0.295009  -0.45877  0  2.361915  0
O  O301  1  0.37805441  0.87047941  0.95692217  1  -1.155416  0  -0.294994  -0.458732  0  2.36186  0
O  O302  1  0.62194428  0.37047947  0.54307775  1  -1.155349  0  -0.295004  -0.458751  0  2.361919  0
O  O303  1  0.87805514  0.62951984  0.04307743  1  -1.155384  0  -0.294997  -0.458725  0  2.361805  0
