# generated using pymatgen
data_CuH5C5NCl2
_symmetry_space_group_name_H-M   'P 1'
_cell_length_a   3.75470401
_cell_length_b   8.63574290
_cell_length_c   10.66599132
_cell_angle_alpha   103.33438341
_cell_angle_beta   93.27287314
_cell_angle_gamma   98.19936979
_symmetry_Int_Tables_number   1
_chemical_formula_structural   CuH5C5NCl2
_chemical_formula_sum   'Cu2 H10 C10 N2 Cl4'
_cell_volume   331.62052745
_cell_formula_units_Z   2
loop_
 _symmetry_equiv_pos_site_id
 _symmetry_equiv_pos_as_xyz
  1  'x, y, z'
loop_
 _atom_site_type_symbol
 _atom_site_label
 _atom_site_symmetry_multiplicity
 _atom_site_fract_x
 _atom_site_fract_y
 _atom_site_fract_z
 _atom_site_occupancy
 _atom_site_hle17_ddec_charge
 _atom_site_hle17_ddec_spin_density
 _atom_site_hle17_ddec_sum_bond_order
 _atom_site_hle17_magmom
 _atom_site_hse06_10hf_ddec_charge
 _atom_site_hse06_10hf_ddec_spin_density
 _atom_site_hse06_10hf_ddec_sum_bond_order
 _atom_site_hse06_10hf_magmom
 _atom_site_hse06_ddec_charge
 _atom_site_hse06_ddec_spin_density
 _atom_site_hse06_ddec_sum_bond_order
 _atom_site_hse06_magmom
 _atom_site_pbe_cm5_charge
 _atom_site_pbe_ddec_charge
 _atom_site_pbe_ddec_spin_density
 _atom_site_pbe_ddec_sum_bond_order
 _atom_site_pbe_magmom
Cu  Cu0  1  0.36138464  0.97926842  0.14685515  1  0.717505  0.603933  1.961897  0.435  0.725662  0.711775  2.349749  0.556  0.820228  0.781283  2.27032  0.642  0.516067  0.674504  0.670162  2.398396  0.509
Cu  Cu1  1  0.63863151  0.02073000  0.85314207  1  0.717586  0.60397  1.962009  0.435  0.725742  0.711793  2.349851  0.556  0.820301  0.781298  2.270411  0.642  0.51612  0.674593  0.670184  2.398477  0.509
H  H2  1  0.01584495  0.63977878  0.06811541  1  0.080635  0.001774  0.963787  0.002  0.090938  0.001832  1.02803  0.002  0.093012  0.001342  1.025478  0.001  0.104725  0.089361  0.002308  1.030003  0.002
H  H3  1  0.98415742  0.36021855  0.93188414  1  0.080543  0.001771  0.963615  0.002  0.090875  0.001831  1.027851  0.002  0.09295  0.001341  1.025296  0.001  0.104678  0.0893  0.002306  1.029823  0.002
H  H4  1  0.57932557  0.93608095  0.40190180  1  0.081666  0.001189  0.964876  0.002  0.088736  0.001184  1.033695  0.002  0.090766  0.000835  1.031146  0.001  0.106158  0.087021  0.001508  1.035764  0.002
H  H5  1  0.42070248  0.06391378  0.59809500  1  0.08167  0.001186  0.964736  0.002  0.088735  0.001183  1.033604  0.002  0.090756  0.000835  1.031069  0.001  0.106193  0.087081  0.001507  1.035603  0.002
H  H6  1  0.90573877  0.40534767  0.17258149  1  0.112036  0.000941  0.974513  0.001  0.120929  0.001083  1.036541  0.001  0.124653  0.000804  1.034222  0.001  0.093151  0.118353  0.001316  1.038077  0.001
H  H7  1  0.09424904  0.59465340  0.82741937  1  0.111943  0.000942  0.974389  0.001  0.120792  0.001084  1.036475  0.001  0.124511  0.000804  1.034169  0.001  0.093091  0.118217  0.001316  1.03801  0.001
H  H8  1  0.48373155  0.72053478  0.52258161  1  0.107404  0.000995  0.975398  0.001  0.117075  0.001092  1.037142  0.001  0.120541  0.000818  1.035331  0.001  0.095317  0.11451  0.001368  1.038724  0.001
H  H9  1  0.51628069  0.27946731  0.47741806  1  0.10741  0.000997  0.975122  0.001  0.11709  0.001092  1.036873  0.001  0.12056  0.000818  1.035053  0.001  0.095275  0.114527  0.001368  1.038454  0.001
H  H10  1  0.14261077  0.44445748  0.40193204  1  0.091114  0.00062  0.964295  0.001  0.105049  0.000397  1.022228  0.0  0.107252  0.000224  1.020735  0.0  0.100474  0.103487  0.000557  1.023308  0.0
H  H11  1  0.85737876  0.55554119  0.59807124  1  0.091122  0.000618  0.964633  0.001  0.105023  0.000396  1.022577  0.0  0.107228  0.000224  1.02108  0.0  0.100429  0.10347  0.000556  1.023651  0.0
C  C12  1  0.11543316  0.64974163  0.16801813  1  0.121499  -0.006055  3.674902  -0.004  0.092311  0.001014  3.924772  0.001  0.101159  -0.001575  3.944708  -0.001  0.037525  0.08668  0.002727  3.911944  0.002
C  C13  1  0.88456200  0.35027139  0.83197845  1  0.12158  -0.00601  3.675249  -0.004  0.092341  0.001015  3.925129  0.001  0.10119  -0.001572  3.945062  -0.001  0.037441  0.086708  0.002728  3.912301  0.002
C  C14  1  0.42735439  0.81727530  0.35634700  1  0.130307  -0.009562  3.674474  -0.007  0.100496  -0.00141  3.926012  -0.001  0.109474  -0.003832  3.946541  -0.003  0.042441  0.09495  0.000504  3.912825  0.0
C  C15  1  0.57265095  0.18273643  0.64364863  1  0.1305  -0.009524  3.674732  -0.007  0.100652  -0.00141  3.926299  -0.001  0.109638  -0.003829  3.946832  -0.003  0.042439  0.095064  0.000505  3.913093  0.0
C  C16  1  0.05449147  0.52150113  0.22659980  1  -0.107512  0.011022  3.711892  0.011  -0.117043  0.005373  3.955288  0.006  -0.123944  0.004641  3.975341  0.005  -0.085194  -0.112442  0.005701  3.941544  0.006
C  C17  1  0.94548851  0.47848684  0.77341074  1  -0.107324  0.010982  3.712179  0.011  -0.116808  0.005368  3.955571  0.006  -0.123709  0.004637  3.975622  0.005  -0.085031  -0.112205  0.005695  3.941832  0.006
C  C18  1  0.37496467  0.69492776  0.42163588  1  -0.119829  0.011815  3.726257  0.012  -0.129796  0.005674  3.972331  0.006  -0.137632  0.004861  3.993536  0.006  -0.085254  -0.12488  0.00594  3.958284  0.006
C  C19  1  0.62502643  0.30506131  0.57837227  1  -0.119929  0.01178  3.726198  0.012  -0.129906  0.005671  3.9723  0.006  -0.137743  0.004858  3.993496  0.005  -0.085198  -0.124988  0.005935  3.958272  0.006
C  C20  1  0.18662626  0.54460754  0.35548423  1  0.001728  -0.011696  3.70368  -0.008  -0.016209  -0.003313  3.944861  -0.002  -0.011922  -0.004639  3.963169  -0.003  -0.066414  -0.018827  -0.002239  3.932482  -0.001
C  C21  1  0.81337313  0.45541629  0.64451156  1  0.001707  -0.01167  3.703162  -0.008  -0.016196  -0.003319  3.944284  -0.002  -0.011902  -0.004645  3.962579  -0.003  -0.066403  -0.018829  -0.002243  3.931914  -0.001
N  N22  1  0.29943843  0.79471720  0.23195424  1  -0.29101  0.089299  3.382311  0.111  -0.23413  0.065305  3.665835  0.086  -0.269418  0.054821  3.694603  0.078  -0.351299  -0.21408  0.070893  3.649138  0.089
N  N23  1  0.70054969  0.20527785  0.76804836  1  -0.291204  0.089272  3.38188  0.111  -0.23428  0.065303  3.665402  0.086  -0.26957  0.05482  3.69416  0.078  -0.351303  -0.214232  0.070887  3.648732  0.089
Cl  Cl24  1  0.60965941  0.82852363  0.97378995  1  -0.43271  0.177875  1.311273  0.211  -0.445354  0.128742  1.656778  0.161  -0.490968  0.099983  1.631149  0.134  -0.227272  -0.420221  0.145326  1.675681  0.173
Cl  Cl25  1  0.39034156  0.17147003  0.02620422  1  -0.432721  0.177875  1.311315  0.211  -0.445354  0.128742  1.656799  0.161  -0.490961  0.099984  1.631154  0.134  -0.227273  -0.420233  0.145327  1.675724  0.173
Cl  Cl26  1  0.00757753  0.11573064  0.28510580  1  -0.492859  0.127833  1.069445  0.153  -0.498689  0.081252  1.368878  0.103  -0.533231  0.060431  1.343063  0.084  -0.280431  -0.47844  0.09393  1.38745  0.113
Cl  Cl27  1  0.99242453  0.88427272  0.71489295  1  -0.492855  0.12783  1.069436  0.153  -0.498686  0.081252  1.368887  0.103  -0.53322  0.060431  1.343058  0.084  -0.280453  -0.478449  0.093929  1.387468  0.113
