# generated using pymatgen
data_Al2H5C13NO10
_symmetry_space_group_name_H-M   'P 1'
_cell_length_a   6.70827833
_cell_length_b   14.67289589
_cell_length_c   16.82418997
_cell_angle_alpha   93.71995510
_cell_angle_beta   90.00051050
_cell_angle_gamma   89.99959310
_symmetry_Int_Tables_number   1
_chemical_formula_structural   Al2H5C13NO10
_chemical_formula_sum   'Al4 H10 C26 N2 O20'
_cell_volume   1652.51376174
_cell_formula_units_Z   2
loop_
 _symmetry_equiv_pos_site_id
 _symmetry_equiv_pos_as_xyz
  1  'x, y, z'
loop_
 _atom_site_type_symbol
 _atom_site_label
 _atom_site_symmetry_multiplicity
 _atom_site_fract_x
 _atom_site_fract_y
 _atom_site_fract_z
 _atom_site_occupancy
 _atom_site_pbe_bader_charge
 _atom_site_pbe_bader_spin_density
 _atom_site_pbe_cm5_charge
 _atom_site_pbe_ddec_charge
 _atom_site_pbe_ddec_spin_density
 _atom_site_pbe_ddec_sum_bond_order
 _atom_site_pbe_magmom
Al  Al0  1  0.90163681  0.49786233  0.49994757  1  2.500166  0  0.404839  1.640211  0  2.576311  0
Al  Al1  1  0.40163367  0.50213835  0.50005074  1  2.500227  0  0.404873  1.640124  0  2.576343  0
Al  Al2  1  0.36296413  0.00031635  0.99958683  1  2.504221  0  0.403871  1.645109  0  2.578744  0
Al  Al3  1  0.86296907  0.99968802  0.00041373  1  2.504254  0  0.403848  1.645039  0  2.578688  0
H  H4  1  0.41881187  0.81722249  0.80822165  1  0.140395  0  0.120793  0.126816  0  0.977134  0
H  H5  1  0.91879380  0.18277494  0.19177970  1  0.140469  0  0.120823  0.126862  0  0.977233  0
H  H6  1  0.96114169  0.80651372  0.79206679  1  0.1257  0  0.117017  0.136309  0  0.987368  0
H  H7  1  0.46113250  0.19347618  0.20793588  1  0.125596  0  0.117005  0.136355  0  0.987483  0
H  H8  1  0.98865993  0.68683728  0.70656528  1  0.169527  0  0.119094  0.144875  0  1.015256  0
H  H9  1  0.48864030  0.31316625  0.29342916  1  0.169452  0  0.119167  0.144953  0  1.014942  0
H  H10  1  0.65793892  0.61264933  0.53834558  1  0.666713  0  0.345688  0.428353  0  0.86946  0
H  H11  1  0.15793825  0.38734606  0.46165367  1  0.666656  0  0.345737  0.428502  0  0.869265  0
H  H12  1  0.61170305  0.88502530  0.01972717  1  0.60556  0  0.358463  0.438663  0  0.841354  0
H  H13  1  0.11170032  0.11497504  0.98027254  1  0.60554  0  0.358486  0.438696  0  0.841383  0
C  C14  1  0.64880790  0.39166099  0.60261881  1  1.694353  0  0.276621  0.698291  0  4.178697  0
C  C15  1  0.14880527  0.60833839  0.39737864  1  1.694677  0  0.276681  0.698291  0  4.179207  0
C  C16  1  0.64881297  0.39062987  0.38706693  1  1.583974  0  0.271578  0.684866  0  4.100782  0
C  C17  1  0.14884194  0.60937201  0.61292754  1  1.584016  0  0.271605  0.684787  0  4.100837  0
C  C18  1  0.27858206  0.79232186  0.78193121  1  -0.104776  0  -0.058158  -0.062163  0  3.928314  0
C  C19  1  0.77857759  0.20767688  0.21807263  1  -0.104757  0  -0.058169  -0.062136  0  3.928011  0
C  C20  1  0.10848040  0.82498858  0.81525344  1  0.023632  0  -0.072834  -0.204328  0  3.846948  0
C  C21  1  0.60846379  0.17500180  0.18474981  1  0.023834  0  -0.072722  -0.204353  0  3.846591  0
C  C22  1  0.29323088  0.72624106  0.71298448  1  0.051532  0  0.030241  0.106174  0  4.049311  0
C  C23  1  0.79321199  0.27376121  0.28701227  1  0.05101  0  0.030115  0.106228  0  4.04952  0
C  C24  1  0.13755909  0.67665003  0.68183361  1  -0.006439  0  -0.049212  -0.218894  0  3.744019  0
C  C25  1  0.63754905  0.32335257  0.31816082  1  -0.006297  0  -0.049357  -0.219228  0  3.743957  0
C  C26  1  0.11796888  0.83074085  0.16607435  1  0.255591  0  -0.008328  -0.162164  0  3.856775  0
C  C27  1  0.61797422  0.16926574  0.83392716  1  0.255683  0  -0.008273  -0.162168  0  3.856776  0
C  C28  1  0.12698263  0.77805673  0.21940417  1  -0.391536  0  -0.001059  0.044553  0  4.233097  0
C  C29  1  0.62699042  0.22195102  0.78059500  1  -0.391696  0  -0.00102  0.044664  0  4.233125  0
C  C30  1  0.13593836  0.72025336  0.27856673  1  -0.141998  0  -0.006812  0.022937  0  4.229643  0
C  C31  1  0.63595733  0.27974827  0.72143306  1  -0.142309  0  -0.006836  0.022972  0  4.230124  0
C  C32  1  0.14437820  0.66823633  0.33241083  1  0.099514  0  0.005353  -0.127043  0  3.828883  0
C  C33  1  0.64439366  0.33176243  0.66759673  1  0.099607  0  0.005422  -0.127032  0  3.828915  0
C  C34  1  0.61210974  0.11083564  0.11298140  1  1.557124  0  0.262794  0.677448  0  4.11256  0
C  C35  1  0.11211649  0.88915814  0.88702187  1  1.557325  0  0.262749  0.677519  0  4.112365  0
C  C36  1  0.61447376  0.10706782  0.89667334  1  1.672283  0  0.278692  0.710915  0  4.165067  0
C  C37  1  0.11448990  0.89293805  0.10332757  1  1.671776  0  0.27887  0.711146  0  4.16488  0
C  C38  1  0.49067320  0.71827978  0.68069495  1  0.867485  0  0.19856  0.253341  0  3.988908  0
C  C39  1  0.99065042  0.28172141  0.31930486  1  0.867281  0  0.198612  0.25345  0  3.988859  0
N  N40  1  0.65711357  0.72114407  0.66057748  1  -1.120085  0  -0.288083  -0.351188  0  2.766761  0
N  N41  1  0.15709551  0.27885972  0.33942477  1  -1.119623  0  -0.288079  -0.351281  0  2.766757  0
O  O42  1  0.48177911  0.42028915  0.41341923  1  -1.240639  0  -0.221673  -0.574299  0  2.33603  0
O  O43  1  0.98178138  0.57971751  0.58657103  1  -1.240558  0  -0.221637  -0.574287  0  2.335728  0
O  O44  1  0.82040141  0.41209433  0.57694503  1  -1.218598  0  -0.223935  -0.569027  0  2.276894  0
O  O45  1  0.32037880  0.58791226  0.42305599  1  -1.218828  0  -0.223945  -0.568957  0  2.277412  0
O  O46  1  0.81960207  0.41360223  0.41470618  1  -1.248781  0  -0.224154  -0.588027  0  2.35185  0
O  O47  1  0.31961141  0.58639294  0.58529720  1  -1.248895  0  -0.224248  -0.588082  0  2.352117  0
O  O48  1  0.97945106  0.58361376  0.42229971  1  -1.221053  0  -0.22322  -0.568488  0  2.282215  0
O  O49  1  0.47946442  0.41637676  0.57769349  1  -1.220782  0  -0.22314  -0.568415  0  2.282365  0
O  O50  1  0.65317476  0.55526675  0.50596474  1  -1.466144  0  -0.447724  -0.989788  0  2.17002  0
O  O51  1  0.15317091  0.44473307  0.49402974  1  -1.465996  0  -0.447778  -0.989992  0  2.16992  0
O  O52  1  0.78358768  0.08238001  0.92207753  1  -1.226501  0  -0.222212  -0.576056  0  2.288536  0
O  O53  1  0.28360136  0.91762281  0.07792633  1  -1.226305  0  -0.22224  -0.57615  0  2.288637  0
O  O54  1  0.44186176  0.08711335  0.08476640  1  -1.245171  0  -0.238024  -0.593625  0  2.299846  0
O  O55  1  0.94186603  0.91288406  0.91523561  1  -1.24523  0  -0.238019  -0.593707  0  2.299792  0
O  O56  1  0.44399680  0.08307198  0.92126611  1  -1.22912  0  -0.223169  -0.577823  0  2.279617  0
O  O57  1  0.94400779  0.91693327  0.07874069  1  -1.228983  0  -0.223223  -0.577821  0  2.279513  0
O  O58  1  0.28154309  0.91390597  0.91515963  1  -1.251946  0  -0.237627  -0.600293  0  2.334569  0
O  O59  1  0.78153909  0.08608799  0.08484422  1  -1.251842  0  -0.237674  -0.600288  0  2.334703  0
O  O60  1  0.61269282  0.94486329  0.99843096  1  -1.405196  0  -0.447492  -0.995641  0  2.184932  0
O  O61  1  0.11269168  0.05513696  0.00156755  1  -1.405088  0  -0.447521  -0.995705  0  2.185099  0
