# generated using pymatgen
data_CuH3C6N4O2F
_symmetry_space_group_name_H-M   'P 1'
_cell_length_a   5.92553522
_cell_length_b   10.73116290
_cell_length_c   12.41594532
_cell_angle_alpha   90.00025110
_cell_angle_beta   90.00125359
_cell_angle_gamma   89.99996967
_symmetry_Int_Tables_number   1
_chemical_formula_structural   CuH3C6N4O2F
_chemical_formula_sum   'Cu4 H12 C24 N16 O8 F4'
_cell_volume   789.50368739
_cell_formula_units_Z   4
loop_
 _symmetry_equiv_pos_site_id
 _symmetry_equiv_pos_as_xyz
  1  'x, y, z'
loop_
 _atom_site_type_symbol
 _atom_site_label
 _atom_site_symmetry_multiplicity
 _atom_site_fract_x
 _atom_site_fract_y
 _atom_site_fract_z
 _atom_site_occupancy
 _atom_site_hle17_ddec_charge
 _atom_site_hle17_ddec_spin_density
 _atom_site_hle17_ddec_sum_bond_order
 _atom_site_hle17_magmom
 _atom_site_hse06_10hf_ddec_charge
 _atom_site_hse06_10hf_ddec_spin_density
 _atom_site_hse06_10hf_ddec_sum_bond_order
 _atom_site_hse06_10hf_magmom
 _atom_site_hse06_ddec_charge
 _atom_site_hse06_ddec_spin_density
 _atom_site_hse06_ddec_sum_bond_order
 _atom_site_hse06_magmom
 _atom_site_pbe_cm5_charge
 _atom_site_pbe_ddec_charge
 _atom_site_pbe_ddec_spin_density
 _atom_site_pbe_ddec_sum_bond_order
 _atom_site_pbe_magmom
Cu  Cu0  1  0.74848527  0.69025300  0.48997532  1  0.836103  -0.648748  1.929278  -0.441  0.847893  -0.782234  2.354409  -0.6  0.95304  -0.878641  2.274583  -0.709  0.743209  0.788232  -0.706488  2.408505  -0.526
Cu  Cu1  1  0.75151453  0.30975380  0.98997363  1  0.836165  0.64884  1.929192  0.441  0.847918  0.782248  2.354323  0.6  0.953098  0.878685  2.274505  0.709  0.743203  0.788275  0.706516  2.408335  0.526
Cu  Cu2  1  0.25151388  0.19025396  0.01002397  1  0.835838  0.648673  1.929391  0.441  0.847991  0.782295  2.354403  0.6  0.953044  0.878644  2.274645  0.709  0.74324  0.788327  0.706539  2.40844  0.526
Cu  Cu3  1  0.24848327  0.80974671  0.51002558  1  0.836098  -0.648699  1.928953  -0.441  0.847888  -0.78223  2.354182  -0.6  0.953086  -0.878624  2.274199  -0.709  0.743159  0.788205  -0.706452  2.408227  -0.526
H  H4  1  0.23522722  0.01903263  0.21165614  1  0.094217  0.000305  0.93923  0.0  0.100424  0.000316  1.006121  0.0  0.103632  0.000237  1.002783  0.0  0.119216  0.098161  0.000371  1.00856  0.0
H  H5  1  0.26476871  0.98096171  0.71166113  1  0.094273  -0.000305  0.939202  0.0  0.100508  -0.000316  1.006057  0.0  0.103692  -0.000237  1.002748  0.0  0.119257  0.098245  -0.000372  1.008495  0.0
H  H6  1  0.76478254  0.51903800  0.28834370  1  0.094332  -0.000302  0.939117  0.0  0.100513  -0.000316  1.006023  0.0  0.103692  -0.000237  1.002723  0.0  0.119249  0.098247  -0.000372  1.008461  0.0
H  H7  1  0.73523199  0.48096115  0.78833834  1  0.094259  0.000303  0.939185  0.0  0.100472  0.000316  1.006066  0.0  0.103692  0.000237  1.002714  0.0  0.119254  0.098209  0.000372  1.008504  0.0
H  H8  1  0.66101766  0.77569006  0.16971838  1  0.137063  -0.000168  0.950206  0.0  0.14298  -0.000163  1.017765  0.0  0.147168  -9.1e-05  1.013419  0.0  0.115675  0.140014  -0.00027  1.020799  0.0
H  H9  1  0.83895451  0.22431353  0.66970665  1  0.13713  0.000167  0.950425  0.0  0.143109  0.000162  1.017875  0.0  0.1473  9.1e-05  1.013518  0.0  0.115712  0.14014  0.00027  1.020913  0.0
H  H10  1  0.33897288  0.27568748  0.33028346  1  0.137086  0.000166  0.950273  0.0  0.142997  0.000162  1.01782  0.0  0.14718  9.1e-05  1.013475  0.0  0.115701  0.140033  0.00027  1.020853  0.0
H  H11  1  0.16103334  0.72430709  0.83029243  1  0.136997  -0.000168  0.95051  0.0  0.143005  -0.000162  1.017939  0.0  0.147196  -9.1e-05  1.013585  0.0  0.115693  0.140039  -0.00027  1.020974  0.0
H  H12  1  0.91227954  0.00883535  0.91329445  1  0.114256  -0.00024  0.929148  0.0  0.118988  -0.000148  0.997189  0.0  0.122249  -0.000162  0.993799  0.0  0.123006  0.116636  -0.000116  0.999937  0.0
H  H13  1  0.58771260  0.99115771  0.41328398  1  0.114158  0.000236  0.928967  0.0  0.118873  0.000148  0.99713  0.0  0.122143  0.000162  0.993743  0.0  0.122974  0.116518  0.000116  0.999882  0.0
H  H14  1  0.08773393  0.50882452  0.58670594  1  0.114084  0.000237  0.929326  0.0  0.11888  0.000148  0.997312  0.0  0.122143  0.000161  0.993926  0.0  0.122987  0.11653  0.000116  1.000052  0.0
H  H15  1  0.41229789  0.49116380  0.08671413  1  0.114258  -0.000241  0.929122  0.0  0.118951  -0.000148  0.997247  0.0  0.122218  -0.000162  0.993863  0.0  0.123003  0.116595  -0.000117  0.999997  0.0
C  C16  1  0.98246904  0.84327116  0.31739292  1  0.656104  0.004803  3.856928  0.01  0.61658  -0.002142  4.142433  0.003  0.659426  -0.001084  4.136139  0.002  0.222945  0.588184  -0.003157  4.147394  0.003
C  C17  1  0.51753250  0.15672989  0.81737732  1  0.655885  -0.004802  3.856563  -0.01  0.616502  0.002145  4.141939  -0.003  0.659347  0.001086  4.135634  -0.002  0.222853  0.588104  0.003159  4.146894  -0.003
C  C18  1  0.01753818  0.34327532  0.18260936  1  0.656121  -0.004808  3.856258  -0.01  0.616532  0.002142  4.141869  -0.003  0.659382  0.001084  4.135572  -0.002  0.222916  0.588129  0.003156  4.146822  -0.003
C  C19  1  0.48245891  0.65672084  0.68261810  1  0.65602  0.004802  3.856549  0.01  0.616515  -0.002144  4.142038  0.003  0.659362  -0.001086  4.135742  0.002  0.222858  0.588114  -0.003159  4.146995  0.003
C  C20  1  0.95693572  0.88945386  0.20389759  1  -0.079863  -0.016437  3.735142  -0.016  -0.055666  -0.011551  3.970104  -0.013  -0.068183  -0.008245  3.990442  -0.009  -0.007742  -0.047449  -0.012984  3.956055  -0.014
C  C21  1  0.54305841  0.11054807  0.70389597  1  -0.079574  0.016402  3.735421  0.016  -0.055435  0.011539  3.970375  0.013  -0.067939  0.008237  3.990675  0.009  -0.007679  -0.047211  0.012969  3.956324  0.014
C  C22  1  0.04307433  0.38944795  0.29610792  1  -0.079946  0.016428  3.735151  0.016  -0.055774  0.011547  3.970162  0.013  -0.068286  0.008242  3.990471  0.009  -0.007812  -0.047555  0.012979  3.956112  0.014
C  C23  1  0.45693187  0.61054361  0.79610427  1  -0.079686  -0.016439  3.735164  -0.016  -0.055561  -0.011544  3.970184  -0.013  -0.068076  -0.00824  3.990509  -0.009  -0.007717  -0.047341  -0.012977  3.956132  -0.014
C  C24  1  0.10289337  0.97914571  0.16165281  1  0.122578  0.000327  3.648144  0.0  0.080292  -0.000894  3.90733  -0.001  0.0915  -0.000622  3.922663  -0.001  0.047025  0.073209  -0.001035  3.89678  -0.001
C  C25  1  0.39710071  0.02085814  0.66165194  1  0.122487  -0.000308  3.64855  0.0  0.080181  0.000895  3.907703  0.001  0.091414  0.000623  3.92304  0.001  0.047026  0.073088  0.001036  3.897174  0.001
C  C26  1  0.89710477  0.47914486  0.33835518  1  0.122497  -0.000332  3.647922  0.0  0.080265  0.000894  3.907032  0.001  0.091496  0.000624  3.922364  0.001  0.046995  0.073186  0.001036  3.896476  0.001
C  C27  1  0.60289472  0.52085596  0.83834582  1  0.122484  0.000344  3.648403  0.0  0.080194  -0.000895  3.907579  -0.001  0.091404  -0.000624  3.922904  -0.001  0.047008  0.073101  -0.001037  3.897038  -0.001
C  C28  1  0.78190508  0.84380838  0.13936509  1  -0.11555  0.000267  3.660159  0.0  -0.156411  -0.000963  3.907641  -0.001  -0.150803  -0.000584  3.919052  -0.001  -0.068638  -0.159718  -0.001395  3.899796  -0.001
C  C29  1  0.71807681  0.15620351  0.63936944  1  -0.115747  -0.000253  3.660187  0.0  -0.156664  0.000963  3.907532  0.001  -0.151055  0.000583  3.918941  0.001  -0.068694  -0.15998  0.001395  3.899711  0.001
C  C30  1  0.21809350  0.34380416  0.36063558  1  -0.115613  -0.000261  3.660544  0.0  -0.156428  0.000962  3.907937  0.001  -0.15083  0.000584  3.919372  0.001  -0.068598  -0.159745  0.001394  3.900102  0.001
C  C31  1  0.28190805  0.65619235  0.86063726  1  -0.115453  0.000282  3.660289  0.0  -0.156374  -0.000963  3.907619  -0.001  -0.150758  -0.000584  3.919013  -0.001  -0.068593  -0.159688  -0.001395  3.899785  -0.001
C  C32  1  0.76813767  0.88820924  0.03493579  1  0.275812  -0.000561  3.769457  -0.001  0.267231  0.000219  4.049022  0.0  0.273103  0.000169  4.058445  0.0  0.107678  0.262614  0.000293  4.042973  0.0
C  C33  1  0.73185448  0.11178985  0.53492620  1  0.276029  0.000539  3.769623  0.001  0.267584  -0.00022  4.049008  0.0  0.273453  -0.000169  4.058436  0.0  0.10791  0.26296  -0.000293  4.042967  0.0
C  C34  1  0.23186104  0.38820169  0.46506572  1  0.276034  0.000551  3.769722  0.001  0.267471  -0.00022  4.049265  0.0  0.273341  -0.000169  4.058686  0.0  0.107747  0.262858  -0.000293  4.043211  0.0
C  C35  1  0.26814883  0.61179084  0.96507241  1  0.275807  -0.000573  3.769778  -0.001  0.267333  0.00022  4.049166  0.0  0.273204  0.000169  4.058591  0.0  0.107774  0.262708  0.000293  4.043123  0.0
C  C36  1  0.92169565  0.97527027  0.99592519  1  0.031737  0.001618  3.673448  0.002  -0.011825  0.000145  3.947718  0.0  -0.003773  -1.4e-05  3.961323  0.0  0.043417  -0.017323  0.000258  3.939349  0.0
C  C37  1  0.57831031  0.02474325  0.49592540  1  0.031809  -0.001589  3.673377  -0.002  -0.011903  -0.000146  3.947659  0.0  -0.003878  1.2e-05  3.961302  0.0  0.043402  -0.017383  -0.000259  3.939278  0.0
C  C38  1  0.07832913  0.47526053  0.50407841  1  0.032095  -0.001603  3.67367  -0.002  -0.011584  -0.000145  3.947922  0.0  -0.003541  1.2e-05  3.96154  0.0  0.043545  -0.017078  -0.000259  3.939544  0.0
C  C39  1  0.42169054  0.52473621  0.00407596  1  0.031773  0.001631  3.673419  0.002  -0.011831  0.000144  3.947613  0.0  -0.003797  -1.3e-05  3.961246  0.0  0.043421  -0.017323  0.000257  3.939239  0.0
N  N40  1  0.08394321  0.02153003  0.06005908  1  -0.295316  0.006068  3.285908  0.008  -0.25387  0.008876  3.593668  0.013  -0.279546  0.007042  3.611826  0.011  -0.333594  -0.23734  0.01056  3.582562  0.014
N  N41  1  0.41605409  0.97847790  0.56006663  1  -0.295474  -0.006091  3.286012  -0.008  -0.253943  -0.008882  3.593741  -0.013  -0.279643  -0.007045  3.61189  -0.011  -0.333641  -0.237406  -0.010568  3.582627  -0.014
N  N42  1  0.91607742  0.52152328  0.43994475  1  -0.295624  -0.006076  3.286172  -0.008  -0.254122  -0.00888  3.59388  -0.013  -0.279812  -0.007043  3.612035  -0.011  -0.333707  -0.237594  -0.010565  3.582782  -0.014
N  N43  1  0.58394923  0.47847533  0.93993289  1  -0.29539  0.00606  3.285948  0.008  -0.253904  0.008882  3.593668  0.013  -0.279605  0.007046  3.611851  0.011  -0.333646  -0.237375  0.010566  3.582553  0.014
N  N44  1  0.92518850  0.82037523  0.57004844  1  -0.541324  -0.118471  2.905364  -0.14  -0.61448  -0.057891  3.329506  -0.077  -0.675028  -0.036997  3.346464  -0.055  -0.361561  -0.578812  -0.070419  3.321075  -0.087
N  N45  1  0.57480357  0.17962318  0.07004420  1  -0.54142  0.118591  2.905081  0.141  -0.614513  0.057925  3.329185  0.077  -0.67505  0.037028  3.346168  0.055  -0.361596  -0.578834  0.070458  3.320714  0.087
N  N46  1  0.07480529  0.32037834  0.92995301  1  -0.54145  0.118526  2.905149  0.141  -0.614587  0.057893  3.329289  0.077  -0.675107  0.037001  3.346251  0.055  -0.361641  -0.578913  0.070426  3.320827  0.087
N  N47  1  0.42519621  0.67961861  0.42995769  1  -0.541299  -0.118444  2.905437  -0.14  -0.614455  -0.057889  3.329561  -0.077  -0.674999  -0.036992  3.346522  -0.055  -0.361648  -0.578786  -0.070423  3.32112  -0.087
N  N48  1  0.90026000  0.83537750  0.66607187  1  0.402969  0.042113  4.122832  0.061  0.454565  0.006769  4.443722  0.016  0.476945  0.008545  4.481261  0.017  0.090637  0.440798  0.003059  4.417643  0.013
N  N49  1  0.59974121  0.16462410  0.16607381  1  0.402801  -0.042042  4.123292  -0.061  0.454395  -0.006749  4.44419  -0.016  0.476773  -0.008524  4.481726  -0.017  0.090527  0.440623  -0.003042  4.418071  -0.013
N  N50  1  0.09973994  0.33537561  0.83392690  1  0.40298  -0.042077  4.122899  -0.061  0.454592  -0.00676  4.443803  -0.016  0.476974  -0.008536  4.481329  -0.017  0.09067  0.440819  -0.003051  4.417691  -0.013
N  N51  1  0.40027099  0.66462280  0.33393559  1  0.402971  0.042127  4.122678  0.061  0.454574  0.006774  4.443553  0.016  0.476953  0.008549  4.481097  0.017  0.090746  0.440802  0.003063  4.417458  0.013
N  N52  1  0.87562658  0.85285196  0.75771625  1  -0.276879  -0.160727  2.338925  -0.171  -0.312159  -0.068668  2.578161  -0.078  -0.320997  -0.051909  2.589001  -0.062  -0.139568  -0.305218  -0.082132  2.569835  -0.089
N  N53  1  0.62437070  0.14715363  0.25770102  1  -0.276525  0.160514  2.339643  0.171  -0.311846  0.068604  2.578813  0.078  -0.320681  0.051852  2.589657  0.062  -0.139376  -0.304911  0.082061  2.570471  0.089
N  N54  1  0.12437520  0.35284611  0.74228947  1  -0.2767  0.160632  2.339235  0.171  -0.312088  0.068632  2.578433  0.078  -0.320926  0.05188  2.589272  0.062  -0.139538  -0.305147  0.082094  2.570089  0.089
N  N55  1  0.37563291  0.64715298  0.24228693  1  -0.276898  -0.160787  2.33871  -0.171  -0.312131  -0.06869  2.577911  -0.078  -0.320973  -0.051931  2.588757  -0.062  -0.1396  -0.305188  -0.082165  2.569581  -0.089
O  O56  1  0.83247025  0.76645129  0.34843107  1  -0.599787  -0.065113  2.145933  -0.082  -0.558414  -0.05391  2.421823  -0.076  -0.604807  -0.041386  2.41656  -0.062  -0.309648  -0.531006  -0.058989  2.427441  -0.08
O  O57  1  0.66751812  0.23355732  0.84842627  1  -0.599757  0.065105  2.145684  0.082  -0.55842  0.053904  2.421475  0.076  -0.604839  0.041379  2.416272  0.062  -0.309628  -0.53101  0.058982  2.427068  0.08
O  O58  1  0.16754571  0.26645015  0.15156690  1  -0.599758  0.065113  2.145538  0.082  -0.558422  0.053909  2.421525  0.076  -0.604783  0.041387  2.416229  0.062  -0.309656  -0.531012  0.05899  2.427124  0.08
O  O59  1  0.33245949  0.73354405  0.65157507  1  -0.599752  -0.065126  2.145516  -0.082  -0.558387  -0.053918  2.421398  -0.076  -0.604798  -0.041392  2.416135  -0.062  -0.309638  -0.530974  -0.059002  2.427  -0.08
O  O60  1  0.15047990  0.88376804  0.37118039  1  -0.566543  -0.086853  2.083527  -0.108  -0.529783  -0.065441  2.349219  -0.092  -0.576269  -0.04944  2.342629  -0.074  -0.303408  -0.502962  -0.071594  2.355885  -0.096
O  O61  1  0.34951892  0.11623814  0.87118468  1  -0.566578  0.086888  2.083115  0.108  -0.529941  0.065449  2.348787  0.092  -0.576405  0.049442  2.342211  0.074  -0.303492  -0.503115  0.071607  2.355451  0.096
O  O62  1  0.84952554  0.38377899  0.12881313  1  -0.566575  0.086865  2.083243  0.108  -0.529772  0.065444  2.348913  0.092  -0.576256  0.049437  2.342343  0.074  -0.303411  -0.502956  0.071601  2.355576  0.096
O  O63  1  0.65046246  0.61622603  0.62881063  1  -0.566669  -0.086883  2.083243  -0.108  -0.529885  -0.065452  2.348882  -0.092  -0.576369  -0.049444  2.34231  -0.074  -0.303461  -0.503062  -0.071613  2.355562  -0.096
F  F64  1  0.60021245  0.84794184  0.96962009  1  -0.195545  -0.00022  1.221861  0.0  -0.136376  -0.000159  1.371144  0.0  -0.147685  -0.000111  1.364533  0.0  -0.088655  -0.128048  -0.000174  1.375656  0.0
F  F65  1  0.89977922  0.15206242  0.46961911  1  -0.195534  0.000219  1.221898  0.0  -0.136426  0.00016  1.371142  0.0  -0.147729  0.000111  1.364532  0.0  -0.088702  -0.12809  0.000174  1.375658  0.0
F  F66  1  0.39977769  0.34793064  0.53037443  1  -0.195587  0.00022  1.222033  0.0  -0.136435  0.00016  1.371317  0.0  -0.147739  0.000111  1.364707  0.0  -0.088664  -0.128103  0.000174  1.375828  0.0
F  F67  1  0.10022084  0.65206139  0.03037923  1  -0.195494  -0.000221  1.221859  0.0  -0.136377  -0.000159  1.371111  0.0  -0.147685  -0.000111  1.3645  0.0  -0.088687  -0.128047  -0.000174  1.375626  0.0
