# generated using pymatgen
data_CdH8C14(N4O3)2
_symmetry_space_group_name_H-M   'P 1'
_cell_length_a   9.36400119
_cell_length_b   14.97411682
_cell_length_c   19.16752125
_cell_angle_alpha   90.00001876
_cell_angle_beta   89.99999335
_cell_angle_gamma   90.00001426
_symmetry_Int_Tables_number   1
_chemical_formula_structural   CdH8C14(N4O3)2
_chemical_formula_sum   'Cd4 H32 C56 N32 O24'
_cell_volume   2687.62474118
_cell_formula_units_Z   4
loop_
 _symmetry_equiv_pos_site_id
 _symmetry_equiv_pos_as_xyz
  1  'x, y, z'
loop_
 _atom_site_type_symbol
 _atom_site_label
 _atom_site_symmetry_multiplicity
 _atom_site_fract_x
 _atom_site_fract_y
 _atom_site_fract_z
 _atom_site_occupancy
 _atom_site_hle17_bader_spin_density
 _atom_site_hle17_ddec_charge
 _atom_site_hle17_ddec_spin_density
 _atom_site_hle17_ddec_sum_bond_order
 _atom_site_hle17_magmom
 _atom_site_hse06_10hf_bader_charge
 _atom_site_hse06_10hf_bader_spin_density
 _atom_site_hse06_10hf_ddec_charge
 _atom_site_hse06_10hf_ddec_spin_density
 _atom_site_hse06_10hf_ddec_sum_bond_order
 _atom_site_hse06_10hf_magmom
 _atom_site_hse06_bader_spin_density
 _atom_site_hse06_ddec_charge
 _atom_site_hse06_ddec_spin_density
 _atom_site_hse06_ddec_sum_bond_order
 _atom_site_hse06_magmom
 _atom_site_pbe_bader_spin_density
 _atom_site_pbe_cm5_charge
 _atom_site_pbe_ddec_charge
 _atom_site_pbe_ddec_spin_density
 _atom_site_pbe_ddec_sum_bond_order
 _atom_site_pbe_magmom
Cd  Cd0  1  0.82160489  0.00000022  0.74999993  1  0  1.096922  0  1.697019  0  1.293216  0  0.898373  0  2.145179  0  0  0.95608  0  2.093327  0  0  0.786505  0.857352  0  2.180551  0
Cd  Cd1  1  0.67839597  0.50000021  0.24999951  1  0  1.096947  0  1.696995  0  1.293163  0  0.898404  0  2.145161  0  0  0.956109  0  2.09331  0  0  0.786522  0.857385  0  2.18053  0
Cd  Cd2  1  0.17839593  0.00000007  0.25000050  1  0  1.096944  0  1.697026  0  1.293216  0  0.898413  0  2.145158  0  0  0.956118  0  2.09331  0  0  0.786524  0.857393  0  2.180527  0
Cd  Cd3  1  0.32160505  0.50000029  0.75000001  1  0  1.096914  0  1.697038  0  1.293167  0  0.898362  0  2.14521  0  0  0.956068  0  2.093358  0  0  0.786494  0.857342  0  2.180579  0
H  H4  1  0.11456318  0.30356598  0.74049745  1  0  0.138085  0  0.91675  0  0.206173  0  0.148862  0  0.971843  0  0  0.151423  0  0.969297  0  0  0.153296  0.14693  0  0.973725  0
H  H5  1  0.38543781  0.19643437  0.24049747  1  0  0.138079  0  0.916778  0  0.206181  0  0.148857  0  0.971869  0  0  0.151418  0  0.969323  0  0  0.153296  0.146926  0  0.973751  0
H  H6  1  0.38543793  0.80356601  0.25950261  1  0  0.138089  0  0.916757  0  0.206178  0  0.148866  0  0.971848  0  0  0.151427  0  0.969303  0  0  0.1533  0.146935  0  0.973729  0
H  H7  1  0.11456219  0.69643390  0.75950257  1  0  0.138092  0  0.916756  0  0.206183  0  0.14887  0  0.971848  0  0  0.151431  0  0.969302  0  0  0.153299  0.146939  0  0.97373  0
H  H8  1  0.88543784  0.69643385  0.25950258  1  0  0.138089  0  0.916757  0  0.206182  0  0.148867  0  0.971848  0  0  0.151428  0  0.969302  0  0  0.153298  0.146936  0  0.973729  0
H  H9  1  0.61456214  0.80356613  0.75950257  1  0  0.138087  0  0.916758  0  0.206182  0  0.148864  0  0.971851  0  0  0.151426  0  0.969305  0  0  0.153298  0.146934  0  0.973732  0
H  H10  1  0.61456203  0.19643316  0.74049743  1  0  0.138092  0  0.916734  0  0.206162  0  0.148861  0  0.971835  0  0  0.151422  0  0.969289  0  0  0.153301  0.146928  0  0.973715  0
H  H11  1  0.88543777  0.30356594  0.24049746  1  0  0.138093  0  0.916765  0  0.20617  0  0.148864  0  0.971863  0  0  0.151425  0  0.969316  0  0  0.1533  0.146933  0  0.973743  0
H  H12  1  0.94506177  0.11048017  0.60207419  1  0  0.121553  0  0.897681  0  0.148766  0  0.135536  0  0.951602  0  0  0.13786  0  0.948808  0  0  0.156644  0.133787  0  0.953584  0
H  H13  1  0.55493806  0.38952020  0.10207427  1  0  0.121553  0  0.897676  0  0.148764  0  0.135536  0  0.951598  0  0  0.13786  0  0.948804  0  0  0.156642  0.133787  0  0.953581  0
H  H14  1  0.55493806  0.61047954  0.39792528  1  0  0.121541  0  0.897721  0  0.148774  0  0.135527  0  0.951637  0  0  0.137852  0  0.948844  0  0  0.156635  0.133779  0  0.953619  0
H  H15  1  0.94506189  0.88952050  0.89792579  1  0  0.121556  0  0.897661  0  0.14876  0  0.135532  0  0.951591  0  0  0.137856  0  0.948797  0  0  0.156645  0.133783  0  0.953574  0
H  H16  1  0.05493711  0.88952033  0.39792585  1  0  0.121545  0  0.897688  0  0.148763  0  0.135528  0  0.951609  0  0  0.137852  0  0.948815  0  0  0.156637  0.133779  0  0.953592  0
H  H17  1  0.44506296  0.61047963  0.89792577  1  0  0.121554  0  0.897682  0  0.148766  0  0.135536  0  0.951603  0  0  0.13786  0  0.948809  0  0  0.156641  0.133787  0  0.953587  0
H  H18  1  0.44506189  0.38952030  0.60207476  1  0  0.121544  0  0.897709  0  0.148695  0  0.13553  0  0.951627  0  0  0.137855  0  0.948832  0  0  0.156642  0.133782  0  0.953608  0
H  H19  1  0.05493913  0.11047933  0.10207477  1  0  0.121532  0  0.897731  0  0.148693  0  0.135508  0  0.95166  0  0  0.137832  0  0.948868  0  0  0.156635  0.13376  0  0.953641  0
H  H20  1  0.16211979  0.30087598  0.58999025  1  0  0.303004  0  0.8684  0  0.504974  0  0.286204  0  0.933718  0  0  0.292514  0  0.928872  0  0  0.335256  0.281674  0  0.93725  0
H  H21  1  0.33788123  0.19912431  0.08998974  1  0  0.303048  0  0.868351  0  0.505  0  0.286215  0  0.933701  0  0  0.292523  0  0.928856  0  0  0.33526  0.281685  0  0.937233  0
H  H22  1  0.33788131  0.80087539  0.41000981  1  0  0.303005  0  0.868423  0  0.505003  0  0.286211  0  0.93373  0  0  0.29252  0  0.928886  0  0  0.335262  0.281681  0  0.937262  0
H  H23  1  0.16211769  0.69912457  0.91001029  1  0  0.30304  0  0.868373  0  0.505031  0  0.286211  0  0.933728  0  0  0.29252  0  0.928883  0  0  0.335273  0.281681  0  0.93726  0
H  H24  1  0.83788123  0.69912452  0.41000978  1  0  0.303013  0  0.868408  0  0.505006  0  0.286209  0  0.933729  0  0  0.292519  0  0.928883  0  0  0.335262  0.281679  0  0.937262  0
H  H25  1  0.66211872  0.80087619  0.91000977  1  0  0.303024  0  0.868376  0  0.504999  0  0.286198  0  0.933726  0  0  0.292508  0  0.928881  0  0  0.335261  0.281669  0  0.937258  0
H  H26  1  0.66211757  0.19912444  0.58998970  1  0  0.303052  0  0.868337  0  0.505032  0  0.286223  0  0.933687  0  0  0.292531  0  0.928841  0  0  0.33527  0.281693  0  0.937219  0
H  H27  1  0.83788226  0.30087526  0.08998974  1  0  0.303053  0  0.86836  0  0.505032  0  0.286224  0  0.933708  0  0  0.292531  0  0.928863  0  0  0.335272  0.281694  0  0.93724  0
H  H28  1  0.83217847  0.38126071  0.46351745  1  0  0.123903  0  0.926614  0  0.12619  0  0.132288  0  0.984555  0  0  0.136859  0  0.981207  0  0  0.114963  0.128975  0  0.987098  0
H  H29  1  0.66782234  0.11873981  0.96351791  1  0  0.123902  0  0.926611  0  0.126176  0  0.132287  0  0.984554  0  0  0.136859  0  0.981205  0  0  0.114956  0.128975  0  0.987096  0
H  H30  1  0.66782254  0.88126082  0.53648209  1  0  0.123899  0  0.9266  0  0.126184  0  0.132279  0  0.984546  0  0  0.136851  0  0.981198  0  0  0.114953  0.128967  0  0.987089  0
H  H31  1  0.83217750  0.61873907  0.03648208  1  0  0.123915  0  0.926603  0  0.126184  0  0.132296  0  0.984548  0  0  0.136868  0  0.981199  0  0  0.11496  0.128984  0  0.98709  0
H  H32  1  0.16782255  0.61873979  0.53648207  1  0  0.123918  0  0.926602  0  0.126183  0  0.132302  0  0.98454  0  0  0.136874  0  0.981192  0  0  0.11496  0.12899  0  0.987083  0
H  H33  1  0.33217762  0.88126069  0.03648265  1  0  0.123907  0  0.926623  0  0.126182  0  0.132292  0  0.984562  0  0  0.136864  0  0.981214  0  0  0.114965  0.12898  0  0.987105  0
H  H34  1  0.33217741  0.11873901  0.46351795  1  0  0.123926  0  0.926602  0  0.12619  0  0.132309  0  0.984541  0  0  0.136881  0  0.981193  0  0  0.114964  0.128997  0  0.987084  0
H  H35  1  0.16782352  0.38126076  0.96351795  1  0  0.123908  0  0.926603  0  0.12618  0  0.132292  0  0.984542  0  0  0.136864  0  0.981194  0  0  0.114961  0.12898  0  0.987085  0
C  C36  1  0.06628466  0.24210191  0.72218783  1  0  0.14379  0  3.600096  0  1.026258  0  0.071999  0  3.870708  0  0  0.082563  0  3.880881  0  0  0.167268  0.065364  0  3.863607  0
C  C37  1  0.43371526  0.25789776  0.22218785  1  0  0.143799  0  3.600093  0  1.026249  0  0.072002  0  3.87071  0  0  0.082567  0  3.88088  0  0  0.167272  0.065367  0  3.86361  0
C  C38  1  0.43371642  0.74210196  0.27781170  1  0  0.143791  0  3.600112  0  1.026225  0  0.072  0  3.870723  0  0  0.082561  0  3.880896  0  0  0.167281  0.065365  0  3.863623  0
C  C39  1  0.06628369  0.75789796  0.77781220  1  0  0.143774  0  3.600097  0  1.02626  0  0.071978  0  3.870716  0  0  0.082542  0  3.880886  0  0  0.16727  0.065343  0  3.863616  0
C  C40  1  0.93371636  0.75789792  0.27781221  1  0  0.143793  0  3.600092  0  1.026232  0  0.071999  0  3.870712  0  0  0.082565  0  3.88088  0  0  0.167277  0.065364  0  3.863612  0
C  C41  1  0.56628362  0.74210207  0.77781218  1  0  0.143792  0  3.600087  0  1.026232  0  0.071999  0  3.870708  0  0  0.082563  0  3.880879  0  0  0.167279  0.065364  0  3.863608  0
C  C42  1  0.56628674  0.25789788  0.72218782  1  0  0.143776  0  3.600054  0  1.026371  0  0.071991  0  3.870668  0  0  0.082556  0  3.880838  0  0  0.167254  0.065358  0  3.863566  0
C  C43  1  0.93371306  0.24210188  0.22218784  1  0  0.143772  0  3.600073  0  1.026369  0  0.071979  0  3.870684  0  0  0.082542  0  3.880856  0  0  0.167255  0.065344  0  3.863584  0
C  C44  1  0.97785224  0.14351719  0.64977937  1  0  0.158926  0  3.642616  0  1.065766  0  0.073228  0  3.913282  0  0  0.087409  0  3.924192  0  0  0.170826  0.064279  0  3.905543  0
C  C45  1  0.52214757  0.35648320  0.14977944  1  0  0.158897  0  3.642538  0  1.065763  0  0.073199  0  3.913206  0  0  0.08738  0  3.924117  0  0  0.170807  0.064251  0  3.905468  0
C  C46  1  0.52214761  0.64351653  0.35022010  1  0  0.158892  0  3.642602  0  1.065619  0  0.073189  0  3.913264  0  0  0.087365  0  3.924177  0  0  0.170799  0.064241  0  3.905525  0
C  C47  1  0.97785236  0.85648349  0.85022061  1  0  0.158906  0  3.6426  0  1.065759  0  0.073215  0  3.913265  0  0  0.087397  0  3.924174  0  0  0.170808  0.064267  0  3.905526  0
C  C48  1  0.02214771  0.85648331  0.35022067  1  0  0.1589  0  3.642544  0  1.06576  0  0.073207  0  3.913213  0  0  0.087387  0  3.924123  0  0  0.170807  0.064258  0  3.905475  0
C  C49  1  0.47785345  0.64351663  0.85022059  1  0  0.15889  0  3.642693  0  1.065784  0  0.073197  0  3.913353  0  0  0.087377  0  3.924264  0  0  0.170813  0.064249  0  3.905614  0
C  C50  1  0.47785235  0.35648263  0.64977993  1  0  0.15894  0  3.64256  0  1.065862  0  0.073243  0  3.913229  0  0  0.087423  0  3.92414  0  0  0.170813  0.064295  0  3.905491  0
C  C51  1  0.02214866  0.14351701  0.14977943  1  0  0.158937  0  3.642556  0  1.06584  0  0.073232  0  3.913223  0  0  0.08741  0  3.924135  0  0  0.170815  0.064283  0  3.905485  0
C  C52  1  0.98177585  0.42415208  0.54257723  1  0  -0.046421  0  3.715591  0  -0.016448  0  -0.034332  0  3.950542  0  0  -0.038046  0  3.971212  0  0  0.000222  -0.031823  0  3.936782  0
C  C53  1  0.51822399  0.07584826  0.04257723  1  0  -0.046474  0  3.715643  0  -0.016409  0  -0.034379  0  3.950596  0  0  -0.038089  0  3.971269  0  0  0.000218  -0.031865  0  3.93684  0
C  C54  1  0.51822411  0.92415214  0.45742232  1  0  -0.046344  0  3.71559  0  -0.0164  0  -0.034272  0  3.950551  0  0  -0.037975  0  3.971229  0  0  0.000253  -0.031757  0  3.936796  0
C  C55  1  0.98177583  0.57584793  0.95742223  1  0  -0.046308  0  3.715586  0  -0.016395  0  -0.034202  0  3.950514  0  0  -0.037905  0  3.971192  0  0  0.00028  -0.031687  0  3.936759  0
C  C56  1  0.01822517  0.57584775  0.45742229  1  0  -0.046294  0  3.715611  0  -0.016232  0  -0.034197  0  3.950541  0  0  -0.0379  0  3.971218  0  0  0.00028  -0.031681  0  3.936786  0
C  C57  1  0.48177596  0.92415224  0.95742281  1  0  -0.046418  0  3.71561  0  -0.016407  0  -0.034338  0  3.95055  0  0  -0.038042  0  3.971228  0  0  0.000226  -0.031822  0  3.936795  0
C  C58  1  0.48177477  0.07584770  0.54257772  1  0  -0.046249  0  3.715603  0  -0.016244  0  -0.034162  0  3.950521  0  0  -0.037867  0  3.971201  0  0  0.000277  -0.031647  0  3.936767  0
C  C59  1  0.01822519  0.42415257  0.04257781  1  0  -0.046427  0  3.715499  0  -0.016266  0  -0.034414  0  3.950527  0  0  -0.038125  0  3.971202  0  0  0.000184  -0.031898  0  3.936772  0
C  C60  1  0.94781705  0.34289655  0.58547165  1  0  0.556708  0  3.804704  0  1.418795  0  0.515304  0  4.101463  0  0  0.544451  0  4.096484  0  0  0.256579  0.4951  0  4.104771  0
C  C61  1  0.55218385  0.15710382  0.08547167  1  0  0.556757  0  3.804617  0  1.418805  0  0.515343  0  4.101372  0  0  0.544476  0  4.09641  0  0  0.25659  0.495126  0  4.104701  0
C  C62  1  0.55218394  0.84289659  0.41452787  1  0  0.556732  0  3.804512  0  1.418802  0  0.515333  0  4.101268  0  0  0.544445  0  4.096341  0  0  0.256588  0.495108  0  4.104607  0
C  C63  1  0.94781601  0.65710346  0.91452780  1  0  0.556732  0  3.804499  0  1.418799  0  0.515314  0  4.101267  0  0  0.544426  0  4.096338  0  0  0.256578  0.495089  0  4.104607  0
C  C64  1  0.05218397  0.65710329  0.41452786  1  0  0.556731  0  3.804489  0  1.418793  0  0.515316  0  4.101251  0  0  0.544428  0  4.096322  0  0  0.256597  0.495091  0  4.104591  0
C  C65  1  0.44781611  0.84289668  0.91452836  1  0  0.556731  0  3.804607  0  1.4188  0  0.51532  0  4.101367  0  0  0.544434  0  4.096436  0  0  0.256589  0.495096  0  4.104706  0
C  C66  1  0.44781601  0.15710325  0.58547216  1  0  0.556725  0  3.804508  0  1.418793  0  0.515298  0  4.101279  0  0  0.544408  0  4.096351  0  0  0.256574  0.495073  0  4.10462  0
C  C67  1  0.05218501  0.34289637  0.08547171  1  0  0.556696  0  3.8046  0  1.418806  0  0.515321  0  4.101336  0  0  0.544453  0  4.096377  0  0  0.256565  0.495103  0  4.104665  0
C  C68  1  0.07651540  0.49245187  0.56323617  1  0  -0.047027  0  3.70188  0  -0.039361  0  -0.034667  0  3.93689  0  0  -0.039603  0  3.957694  0  0  -0.003948  -0.03159  0  3.923007  0
C  C69  1  0.42348563  0.00754840  0.06323665  1  0  -0.046962  0  3.701895  0  -0.039323  0  -0.034602  0  3.93692  0  0  -0.039538  0  3.957725  0  0  -0.003924  -0.031528  0  3.923041  0
C  C70  1  0.42348471  0.99245198  0.43676395  1  0  -0.047113  0  3.701971  0  -0.038854  0  -0.034754  0  3.936977  0  0  -0.039691  0  3.957779  0  0  -0.003976  -0.031677  0  3.923093  0
C  C71  1  0.07651536  0.50754800  0.93676334  1  0  -0.047036  0  3.70193  0  -0.039355  0  -0.034685  0  3.936942  0  0  -0.039621  0  3.957746  0  0  -0.003944  -0.031608  0  3.923059  0
C  C72  1  0.92348562  0.50754796  0.43676335  1  0  -0.047024  0  3.701934  0  -0.03951  0  -0.034665  0  3.936943  0  0  -0.0396  0  3.957747  0  0  -0.003935  -0.031591  0  3.923065  0
C  C73  1  0.57651432  0.99245210  0.93676339  1  0  -0.047049  0  3.701946  0  -0.039347  0  -0.034642  0  3.936902  0  0  -0.039576  0  3.957704  0  0  -0.003939  -0.031568  0  3.923023  0
C  C74  1  0.57651417  0.00754785  0.56323661  1  0  -0.047176  0  3.702013  0  -0.039512  0  -0.034775  0  3.936972  0  0  -0.039712  0  3.957776  0  0  -0.00397  -0.031702  0  3.923096  0
C  C75  1  0.92348566  0.49245183  0.06323617  1  0  -0.047087  0  3.701845  0  -0.039533  0  -0.034686  0  3.936843  0  0  -0.039622  0  3.957646  0  0  -0.003971  -0.031616  0  3.922971  0
C  C76  1  0.15601559  0.49081640  0.63152147  1  0  0.608109  0  3.977444  0  1.626168  0  0.564181  0  4.266016  0  0  0.597262  0  4.262155  0  0  0.184437  0.541849  0  4.267588  0
C  C77  1  0.34398328  0.00918323  0.13152143  1  0  0.608162  0  3.977448  0  1.626166  0  0.56421  0  4.266061  0  0  0.597292  0  4.262199  0  0  0.184464  0.541879  0  4.267632  0
C  C78  1  0.34398452  0.99081580  0.36847917  1  0  0.608153  0  3.977413  0  1.625631  0  0.564244  0  4.265957  0  0  0.597327  0  4.262093  0  0  0.184476  0.541912  0  4.267529  0
C  C79  1  0.15601450  0.50918348  0.86847856  1  0  0.608125  0  3.977379  0  1.626152  0  0.564199  0  4.265955  0  0  0.59728  0  4.262094  0  0  0.184456  0.541867  0  4.267526  0
C  C80  1  0.84398436  0.50918343  0.36847857  1  0  0.608123  0  3.977466  0  1.626156  0  0.564194  0  4.266044  0  0  0.597275  0  4.262183  0  0  0.184453  0.541863  0  4.267615  0
C  C81  1  0.65601560  0.99081593  0.86847860  1  0  0.608118  0  3.977464  0  1.626158  0  0.564171  0  4.266048  0  0  0.597251  0  4.262187  0  0  0.184451  0.54184  0  4.267618  0
C  C82  1  0.65601650  0.00918403  0.63152087  1  0  0.608114  0  3.97749  0  1.626334  0  0.564165  0  4.266076  0  0  0.597246  0  4.262215  0  0  0.184433  0.541834  0  4.267646  0
C  C83  1  0.84398331  0.49081568  0.13152044  1  0  0.608123  0  3.977313  0  1.62615  0  0.56419  0  4.265882  0  0  0.597272  0  4.262019  0  0  0.184448  0.541861  0  4.267453  0
C  C84  1  0.90627501  0.43314158  0.48011323  1  0  -0.0664  0  3.680603  0  0.012562  0  -0.09981  0  3.928266  0  0  -0.100111  0  3.946532  0  0  -0.067761  -0.099554  0  3.91606  0
C  C85  1  0.59372579  0.06685895  0.98011316  1  0  -0.066388  0  3.680611  0  0.012585  0  -0.099816  0  3.928265  0  0  -0.100117  0  3.946529  0  0  -0.067768  -0.09956  0  3.916059  0
C  C86  1  0.59372495  0.93314100  0.51988684  1  0  -0.066343  0  3.680551  0  0.012589  0  -0.099755  0  3.928194  0  0  -0.100053  0  3.946458  0  0  -0.067733  -0.099498  0  3.915988  0
C  C87  1  0.90627402  0.56685888  0.01988629  1  0  -0.066397  0  3.680542  0  0.012588  0  -0.099814  0  3.928188  0  0  -0.100114  0  3.946451  0  0  -0.067734  -0.099557  0  3.915982  0
C  C88  1  0.09372601  0.56685826  0.51988628  1  0  -0.066474  0  3.680656  0  0.012586  0  -0.099884  0  3.928315  0  0  -0.100184  0  3.946579  0  0  -0.067781  -0.099628  0  3.916106  0
C  C89  1  0.40627416  0.93314155  0.01988687  1  0  -0.066408  0  3.680596  0  0.01252  0  -0.099819  0  3.928265  0  0  -0.100119  0  3.94653  0  0  -0.067761  -0.099563  0  3.916058  0
C  C90  1  0.40627393  0.06685817  0.48011372  1  0  -0.066478  0  3.680667  0  0.012529  0  -0.09989  0  3.928328  0  0  -0.100188  0  3.946592  0  0  -0.067792  -0.099634  0  3.916121  0
C  C91  1  0.09372593  0.43314162  0.98011322  1  0  -0.066405  0  3.680529  0  0.01257  0  -0.099791  0  3.928204  0  0  -0.100092  0  3.946471  0  0  -0.067759  -0.099536  0  3.915997  0
N  N92  1  0.02275197  0.17424550  0.75996631  1  0  -0.202708  0  2.878138  0  -0.702799  0  -0.192667  0  3.150106  0  0  -0.19928  0  3.164589  0  0  -0.227757  -0.188091  0  3.140006  0
N  N93  1  0.47724794  0.32575486  0.25996635  1  0  -0.202716  0  2.878112  0  -0.70279  0  -0.192673  0  3.150083  0  0  -0.199283  0  3.164563  0  0  -0.22776  -0.188096  0  3.139983  0
N  N94  1  0.47724908  0.67424553  0.24003372  1  0  -0.202723  0  2.878149  0  -0.702782  0  -0.192681  0  3.150118  0  0  -0.199295  0  3.164603  0  0  -0.227759  -0.188105  0  3.140018  0
N  N95  1  0.02275210  0.82575503  0.74003424  1  0  -0.202682  0  2.878139  0  -0.702788  0  -0.19264  0  3.150106  0  0  -0.199251  0  3.164588  0  0  -0.227745  -0.188063  0  3.140007  0
N  N96  1  0.97724798  0.82575500  0.24003372  1  0  -0.202713  0  2.878108  0  -0.702762  0  -0.19267  0  3.150079  0  0  -0.199283  0  3.164561  0  0  -0.227761  -0.188093  0  3.13998  0
N  N97  1  0.52275201  0.67424497  0.74003368  1  0  -0.202713  0  2.878141  0  -0.702771  0  -0.192672  0  3.150108  0  0  -0.199283  0  3.16459  0  0  -0.227764  -0.188095  0  3.140008  0
N  N98  1  0.52275194  0.32575430  0.75996632  1  0  -0.202652  0  2.878054  0  -0.70292  0  -0.192603  0  3.150017  0  0  -0.199215  0  3.164499  0  0  -0.2277  -0.188026  0  3.139916  0
N  N99  1  0.97724785  0.17424547  0.25996632  1  0  -0.202706  0  2.878173  0  -0.702922  0  -0.192671  0  3.15014  0  0  -0.199282  0  3.164623  0  0  -0.227754  -0.188094  0  3.14004  0
N  N100  1  0.96597696  0.11257982  0.71387737  1  0  -0.275459  0  3.211374  0  -0.802528  0  -0.205977  0  3.515458  0  0  -0.225041  0  3.532206  0  0  -0.244964  -0.192927  0  3.503528  0
N  N101  1  0.53402284  0.38742060  0.21387745  1  0  -0.275452  0  3.211286  0  -0.802539  0  -0.20598  0  3.51538  0  0  -0.225045  0  3.532127  0  0  -0.244966  -0.192929  0  3.503451  0
N  N102  1  0.53402287  0.61257980  0.28612209  1  0  -0.275443  0  3.211277  0  -0.802409  0  -0.205966  0  3.515364  0  0  -0.225028  0  3.532112  0  0  -0.244975  -0.192916  0  3.503435  0
N  N103  1  0.96597711  0.88742019  0.78612260  1  0  -0.275486  0  3.211389  0  -0.802544  0  -0.206007  0  3.515471  0  0  -0.225071  0  3.532219  0  0  -0.244981  -0.192956  0  3.503541  0
N  N104  1  0.03402299  0.88742068  0.28612266  1  0  -0.275451  0  3.211287  0  -0.802543  0  -0.205981  0  3.515382  0  0  -0.225044  0  3.532128  0  0  -0.244968  -0.19293  0  3.503453  0
N  N105  1  0.46597712  0.61257990  0.78612258  1  0  -0.275475  0  3.211395  0  -0.802557  0  -0.205992  0  3.515473  0  0  -0.225057  0  3.532223  0  0  -0.244977  -0.192941  0  3.503544  0
N  N106  1  0.46597708  0.38742003  0.71387795  1  0  -0.275505  0  3.211252  0  -0.802533  0  -0.206037  0  3.515359  0  0  -0.225099  0  3.532103  0  0  -0.244996  -0.192986  0  3.50343  0
N  N107  1  0.03402391  0.11258031  0.21387796  1  0  -0.275482  0  3.211344  0  -0.802521  0  -0.205989  0  3.515423  0  0  -0.225053  0  3.53217  0  0  -0.244965  -0.192939  0  3.503494  0
N  N108  1  0.04062576  0.22508720  0.65266032  1  0  0.057355  0  3.602472  0  -0.905016  0  0.16949  0  3.789621  0  0  0.160153  0  3.809665  0  0  -0.129308  0.17403  0  3.778579  0
N  N109  1  0.45937524  0.27491311  0.15266035  1  0  0.05738  0  3.602464  0  -0.905018  0  0.169511  0  3.789596  0  0  0.160172  0  3.809637  0  0  -0.129309  0.174052  0  3.778553  0
N  N110  1  0.45937531  0.72508661  0.34733920  1  0  0.057397  0  3.602383  0  -0.905002  0  0.169535  0  3.789538  0  0  0.160214  0  3.809552  0  0  -0.129285  0.174074  0  3.778497  0
N  N111  1  0.04062585  0.77491333  0.84733971  1  0  0.057372  0  3.602473  0  -0.905015  0  0.16951  0  3.789612  0  0  0.160175  0  3.809651  0  0  -0.129301  0.17405  0  3.778569  0
N  N112  1  0.95937419  0.77491330  0.34733972  1  0  0.05737  0  3.602467  0  -0.905016  0  0.169498  0  3.78962  0  0  0.160162  0  3.809662  0  0  -0.129303  0.174039  0  3.778577  0
N  N113  1  0.54062471  0.72508739  0.84733969  1  0  0.057412  0  3.602519  0  -0.90501  0  0.16954  0  3.78967  0  0  0.160208  0  3.809706  0  0  -0.129281  0.174081  0  3.778628  0
N  N114  1  0.54062464  0.27491255  0.65266031  1  0  0.057348  0  3.602462  0  -0.90502  0  0.169469  0  3.7896  0  0  0.160129  0  3.809644  0  0  -0.129312  0.17401  0  3.778558  0
N  N115  1  0.95937517  0.22508717  0.15266033  1  0  0.057395  0  3.602429  0  -0.905014  0  0.16954  0  3.78955  0  0  0.160209  0  3.809578  0  0  -0.129294  0.17408  0  3.778508  0
N  N116  1  0.05845470  0.28275203  0.59714297  1  0  -0.352543  0  3.229321  0  -0.787761  0  -0.342859  0  3.478536  0  0  -0.357754  0  3.483298  0  0  -0.306752  -0.332129  0  3.475064  0
N  N117  1  0.44154526  0.21724826  0.09714351  1  0  -0.35261  0  3.229316  0  -0.787765  0  -0.342871  0  3.478513  0  0  -0.357755  0  3.483272  0  0  -0.306734  -0.332138  0  3.475046  0
N  N118  1  0.44154533  0.78275213  0.40285656  1  0  -0.352577  0  3.229203  0  -0.787753  0  -0.342903  0  3.47842  0  0  -0.357792  0  3.483196  0  0  -0.306774  -0.332166  0  3.474955  0
N  N119  1  0.05845368  0.71724784  0.90285653  1  0  -0.35259  0  3.229239  0  -0.787787  0  -0.342875  0  3.478458  0  0  -0.357762  0  3.483233  0  0  -0.306771  -0.332139  0  3.474994  0
N  N120  1  0.94154632  0.71724780  0.40285654  1  0  -0.352567  0  3.229252  0  -0.787757  0  -0.342868  0  3.478454  0  0  -0.357752  0  3.483228  0  0  -0.306758  -0.332131  0  3.474989  0
N  N121  1  0.55845470  0.78275224  0.90285705  1  0  -0.352591  0  3.229219  0  -0.787771  0  -0.342882  0  3.478444  0  0  -0.357767  0  3.483218  0  0  -0.306778  -0.332146  0  3.474979  0
N  N122  1  0.55845355  0.21724771  0.59714347  1  0  -0.352613  0  3.229227  0  -0.787789  0  -0.342874  0  3.478424  0  0  -0.357752  0  3.483194  0  0  -0.306772  -0.332138  0  3.47496  0
N  N123  1  0.94154627  0.28275200  0.09714350  1  0  -0.352584  0  3.229328  0  -0.78778  0  -0.342862  0  3.478519  0  0  -0.357748  0  3.48328  0  0  -0.306737  -0.332128  0  3.475052  0
O  O124  1  0.82500309  0.32550854  0.60384649  1  0  -0.51115  0  1.913043  0  -1.147577  0  -0.488344  0  2.127973  0  0  -0.506296  0  2.121284  0  0  -0.284307  -0.475592  0  2.132344  0
O  O125  1  0.67499673  0.17449183  0.10384703  1  0  -0.511147  0  1.912986  0  -1.147595  0  -0.488344  0  2.127917  0  0  -0.506292  0  2.121238  0  0  -0.284313  -0.475587  0  2.132296  0
O  O126  1  0.67499683  0.82550859  0.39615303  1  0  -0.511144  0  1.912966  0  -1.147598  0  -0.488334  0  2.12789  0  0  -0.506275  0  2.12122  0  0  -0.284291  -0.475575  0  2.132273  0
O  O127  1  0.82500313  0.67449145  0.89615245  1  0  -0.511162  0  1.912928  0  -1.147606  0  -0.488348  0  2.127859  0  0  -0.506288  0  2.121187  0  0  -0.284291  -0.475589  0  2.132241  0
O  O128  1  0.17499793  0.67449196  0.39615303  1  0  -0.511159  0  1.912919  0  -1.147603  0  -0.488351  0  2.12785  0  0  -0.506292  0  2.12118  0  0  -0.284315  -0.475591  0  2.132233  0
O  O129  1  0.32500322  0.82550867  0.89615353  1  0  -0.511137  0  1.913026  0  -1.147588  0  -0.488328  0  2.12796  0  0  -0.506268  0  2.121288  0  0  -0.284294  -0.475569  0  2.132342  0
O  O130  1  0.32500313  0.17449058  0.60384805  1  0  -0.511155  0  1.912927  0  -1.147595  0  -0.488345  0  2.127865  0  0  -0.506284  0  2.121195  0  0  -0.284291  -0.475586  0  2.132248  0
O  O131  1  0.17499683  0.32550905  0.10384706  1  0  -0.511138  0  1.912996  0  -1.147611  0  -0.488337  0  2.127909  0  0  -0.506284  0  2.121228  0  0  -0.284297  -0.475581  0  2.132288  0
O  O132  1  0.12088209  0.43393559  0.67750393  1  0  -0.636596  0  1.958226  0  -1.200213  0  -0.587131  0  2.189622  0  0  -0.613989  0  2.18124  0  0  -0.329814  -0.568081  0  2.194486  0
O  O133  1  0.37911784  0.06606406  0.17750443  1  0  -0.636645  0  1.958216  0  -1.200216  0  -0.587177  0  2.189624  0  0  -0.614034  0  2.18124  0  0  -0.329833  -0.568126  0  2.194489  0
O  O134  1  0.37911586  0.93393765  0.32249616  1  0  -0.636607  0  1.958351  0  -1.200183  0  -0.587149  0  2.189734  0  0  -0.614008  0  2.181352  0  0  -0.329826  -0.568099  0  2.194598  0
O  O135  1  0.12088210  0.56606362  0.82249557  1  0  -0.636601  0  1.958222  0  -1.200217  0  -0.587137  0  2.189617  0  0  -0.613994  0  2.181233  0  0  -0.329815  -0.568086  0  2.19448  0
O  O136  1  0.87911786  0.56606357  0.32249558  1  0  -0.636623  0  1.958236  0  -1.200215  0  -0.587161  0  2.189636  0  0  -0.614019  0  2.181253  0  0  -0.329823  -0.56811  0  2.1945  0
O  O137  1  0.62088211  0.93393577  0.82249612  1  0  -0.636592  0  1.958238  0  -1.20022  0  -0.587126  0  2.189639  0  0  -0.613985  0  2.181258  0  0  -0.329812  -0.568076  0  2.194502  0
O  O138  1  0.62087982  0.06606352  0.67750387  1  0  -0.636563  0  1.95823  0  -1.200393  0  -0.587097  0  2.189636  0  0  -0.613952  0  2.181248  0  0  -0.3298  -0.568045  0  2.194497  0
O  O139  1  0.87911785  0.43393688  0.17750394  1  0  -0.636608  0  1.958261  0  -1.200183  0  -0.587143  0  2.189656  0  0  -0.614001  0  2.181272  0  0  -0.3298  -0.568093  0  2.194519  0
O  O140  1  0.25698526  0.54741675  0.63955642  1  0  -0.621619  0  1.927196  0  -1.180571  0  -0.560514  0  2.151363  0  0  -0.58844  0  2.140573  0  0  -0.338156  -0.540903  0  2.158017  0
O  O141  1  0.24301274  0.95258377  0.13955598  1  0  -0.621633  0  1.927214  0  -1.180636  0  -0.560525  0  2.151402  0  0  -0.588451  0  2.140611  0  0  -0.338165  -0.540914  0  2.158056  0
O  O142  1  0.24300933  0.04741524  0.36044567  1  0  -0.621629  0  1.927053  0  -1.180585  0  -0.560539  0  2.151222  0  0  -0.588466  0  2.140432  0  0  -0.338174  -0.540927  0  2.157875  0
O  O143  1  0.25698735  0.45258382  0.86044464  1  0  -0.621633  0  1.927109  0  -1.180565  0  -0.560532  0  2.151284  0  0  -0.588458  0  2.140494  0  0  -0.33817  -0.540921  0  2.157938  0
O  O144  1  0.74301362  0.45258375  0.36044414  1  0  -0.621615  0  1.927187  0  -1.180569  0  -0.560514  0  2.151361  0  0  -0.588439  0  2.140571  0  0  -0.33816  -0.540902  0  2.158015  0
O  O145  1  0.75698721  0.04741606  0.86044405  1  0  -0.62162  0  1.92716  0  -1.180613  0  -0.560516  0  2.151339  0  0  -0.588442  0  2.140549  0  0  -0.338168  -0.540904  0  2.157992  0
O  O146  1  0.75698528  0.95258325  0.63955645  1  0  -0.621621  0  1.927192  0  -1.180566  0  -0.560512  0  2.151366  0  0  -0.588439  0  2.140576  0  0  -0.338156  -0.540901  0  2.15802  0
O  O147  1  0.74301046  0.54741601  0.13955539  1  0  -0.621634  0  1.927056  0  -1.180587  0  -0.560537  0  2.151238  0  0  -0.588463  0  2.140448  0  0  -0.338185  -0.540926  0  2.157891  0
