# generated using pymatgen
data_FeH14C20(SN8)2
_symmetry_space_group_name_H-M   'P 1'
_cell_length_a   7.93557786
_cell_length_b   8.71491481
_cell_length_c   9.67699419
_cell_angle_alpha   70.70597745
_cell_angle_beta   85.94993664
_cell_angle_gamma   64.91051456
_symmetry_Int_Tables_number   1
_chemical_formula_structural   FeH14C20(SN8)2
_chemical_formula_sum   'Fe1 H14 C20 S2 N16'
_cell_volume   570.16137815
_cell_formula_units_Z   1
loop_
 _symmetry_equiv_pos_site_id
 _symmetry_equiv_pos_as_xyz
  1  'x, y, z'
loop_
 _atom_site_type_symbol
 _atom_site_label
 _atom_site_symmetry_multiplicity
 _atom_site_fract_x
 _atom_site_fract_y
 _atom_site_fract_z
 _atom_site_occupancy
 _atom_site_hle17_bader_spin_density
 _atom_site_hle17_ddec_charge
 _atom_site_hle17_ddec_spin_density
 _atom_site_hle17_ddec_sum_bond_order
 _atom_site_hle17_magmom
 _atom_site_hse06_10hf_bader_spin_density
 _atom_site_hse06_10hf_ddec_charge
 _atom_site_hse06_10hf_ddec_spin_density
 _atom_site_hse06_10hf_ddec_sum_bond_order
 _atom_site_hse06_10hf_magmom
 _atom_site_hse06_bader_spin_density
 _atom_site_hse06_ddec_charge
 _atom_site_hse06_ddec_spin_density
 _atom_site_hse06_ddec_sum_bond_order
 _atom_site_hse06_magmom
 _atom_site_pbe_bader_spin_density
 _atom_site_pbe_cm5_charge
 _atom_site_pbe_ddec_charge
 _atom_site_pbe_ddec_spin_density
 _atom_site_pbe_ddec_sum_bond_order
 _atom_site_pbe_magmom
Fe  Fe0  1  0.52207833  0.49868833  0.99267497  1  0  0.549851  0  3.091616  0  0  0.499574  0  3.598613  0  0  0.550255  0  3.534823  0  0  0.760517  0.472762  0  3.634795  0
H  H1  1  0.29379307  0.25892710  0.23013546  1  0  0.110661  0  0.964176  0  0  0.115941  0  1.0345  0  0  0.118511  0  1.030506  0  0  0.135694  0.114028  0  1.037542  0
H  H2  1  0.69706251  0.75167995  0.76868143  1  0  0.11483  0  0.967857  0  0  0.117176  0  1.041587  0  0  0.12044  0  1.035715  0  0  0.137813  0.114536  0  1.046425  0
H  H3  1  0.80127457  0.74187104  0.16046560  1  0  0.095271  0  0.990522  0  0  0.099956  0  1.062169  0  0  0.101518  0  1.06089  0  0  0.125525  0.0987  0  1.063465  0
H  H4  1  0.18493387  0.26288287  0.84976640  1  0  0.099893  0  0.977503  0  0  0.10353  0  1.050584  0  0  0.105287  0  1.04883  0  0  0.128212  0.102017  0  1.052302  0
H  H5  1  0.71103076  0.61112208  0.37649499  1  0  0.116235  0  0.984064  0  0  0.121094  0  1.054462  0  0  0.124661  0  1.053286  0  0  0.10019  0.118536  0  1.05529  0
H  H6  1  0.28252106  0.38613438  0.63651550  1  0  0.111734  0  1.006524  0  0  0.117018  0  1.076964  0  0  0.120585  0  1.075863  0  0  0.096325  0.114326  0  1.077971  0
H  H7  1  0.65468934  0.44949099  0.62674309  1  0  0.109544  0  0.97473  0  0  0.112758  0  1.04247  0  0  0.115944  0  1.040243  0  0  0.110806  0.110344  0  1.044142  0
H  H8  1  0.34576899  0.53907089  0.38455966  1  0  0.111006  0  0.960287  0  0  0.115029  0  1.026744  0  0  0.118662  0  1.023837  0  0  0.110786  0.112229  0  1.029069  0
H  H9  1  0.88267632  0.13267937  0.75921657  1  0  0.126828  0  0.95584  0  0  0.134403  0  1.018327  0  0  0.137597  0  1.01749  0  0  0.111398  0.131907  0  1.019494  0
H  H10  1  0.12212641  0.85405310  0.24598898  1  0  0.126232  0  0.958572  0  0  0.133725  0  1.021276  0  0  0.136978  0  1.020434  0  0  0.109946  0.131011  0  1.02281  0
H  H11  1  0.34821180  0.89620213  0.45675325  1  0  0.096139  0  1.002241  0  0  0.095345  0  1.083801  0  0  0.098588  0  1.080192  0  0  0.118801  0.093241  0  1.085863  0
H  H12  1  0.64283133  0.11173288  0.53273173  1  0  0.098346  0  0.992999  0  0  0.097271  0  1.074658  0  0  0.100396  0  1.071272  0  0  0.120411  0.095352  0  1.076394  0
H  H13  1  0.15986137  0.88886207  0.88102129  1  0  0.12261  0  0.93602  0  0  0.125649  0  1.006775  0  0  0.129681  0  1.000431  0  0  0.147604  0.122466  0  1.011572  0
H  H14  1  0.86379589  0.09761761  0.12104429  1  0  0.118153  0  0.945603  0  0  0.121357  0  1.016027  0  0  0.125274  0  1.009766  0  0  0.146806  0.118381  0  1.020663  0
C  C15  1  0.47529049  0.78346500  0.13234360  1  0  0.255828  0  4.032344  0  0  0.248268  0  4.336851  0  0  0.270364  0  4.348948  0  0  0.130705  0.233692  0  4.327898  0
C  C16  1  0.53318766  0.21848552  0.85941784  1  0  0.261396  0  4.020111  0  0  0.253897  0  4.324245  0  0  0.276168  0  4.335589  0  0  0.134455  0.239118  0  4.315848  0
C  C17  1  0.19389214  0.39732136  0.18450929  1  0  0.180212  0  3.624166  0  0  0.114677  0  3.905326  0  0  0.128745  0  3.915535  0  0  0.167961  0.105511  0  3.898618  0
C  C18  1  0.79230725  0.61172366  0.81416860  1  0  0.18749  0  3.571538  0  0  0.115456  0  3.854115  0  0  0.135303  0  3.859088  0  0  0.167286  0.101134  0  3.852706  0
C  C19  1  0.93961271  0.64573518  0.14879444  1  0  0.160403  0  3.646231  0  0  0.106516  0  3.917639  0  0  0.117009  0  3.932496  0  0  0.152861  0.099586  0  3.907862  0
C  C20  1  0.04483654  0.36016111  0.85666324  1  0  0.167516  0  3.640662  0  0  0.10856  0  3.919828  0  0  0.119862  0  3.933035  0  0  0.158805  0.100924  0  3.911655  0
C  C21  1  0.97146494  0.38228741  0.37559982  1  0  0.368909  0  3.769099  0  0  0.343766  0  4.030451  0  0  0.358788  0  4.046367  0  0  0.230508  0.333579  0  4.019791  0
C  C22  1  0.02357968  0.61966068  0.63101379  1  0  0.365703  0  3.762137  0  0  0.343076  0  4.022516  0  0  0.358064  0  4.03809  0  0  0.229937  0.332634  0  4.012655  0
C  C23  1  0.80941315  0.47337292  0.43539212  1  0  -0.187889  0  3.663952  0  0  -0.207904  0  3.915096  0  0  -0.217121  0  3.935093  0  0  -0.085261  -0.202044  0  3.902108  0
C  C24  1  0.18655939  0.52379076  0.57481482  1  0  -0.186503  0  3.665685  0  0  -0.208473  0  3.915841  0  0  -0.217554  0  3.935499  0  0  -0.086727  -0.202971  0  3.903865  0
C  C25  1  0.77840251  0.38169445  0.57559488  1  0  0.029406  0  3.6997  0  0  0.013364  0  3.948855  0  0  0.018109  0  3.966939  0  0  -0.064597  0.010568  0  3.937183  0
C  C26  1  0.22127049  0.60966037  0.43386113  1  0  0.034662  0  3.688579  0  0  0.018325  0  3.939416  0  0  0.023736  0  3.955951  0  0  -0.064071  0.014572  0  3.929564  0
C  C27  1  0.90651884  0.20652215  0.65059452  1  0  -0.215106  0  3.720573  0  0  -0.236457  0  3.976504  0  0  -0.246506  0  3.998327  0  0  -0.090733  -0.230845  0  3.963479  0
C  C28  1  0.09537704  0.78422782  0.35503465  1  0  -0.216014  0  3.721631  0  0  -0.239153  0  3.978538  0  0  -0.248576  0  3.999245  0  0  -0.091028  -0.234326  0  3.96705  0
C  C29  1  0.06287948  0.13090288  0.57892079  1  0  0.354888  0  3.80614  0  0  0.329593  0  4.071814  0  0  0.343654  0  4.088348  0  0  0.224339  0.320129  0  4.061033  0
C  C30  1  0.93786147  0.86518825  0.42366659  1  0  0.352182  0  3.803136  0  0  0.327787  0  4.068867  0  0  0.342177  0  4.084638  0  0  0.224873  0.317905  0  4.059023  0
C  C31  1  0.33800254  0.85320501  0.57491798  1  0  0.162464  0  3.647246  0  0  0.105016  0  3.921156  0  0  0.116049  0  3.93289  0  0  0.152983  0.098116  0  3.912426  0
C  C32  1  0.66332999  0.15071137  0.41595523  1  0  0.159257  0  3.638187  0  0  0.102933  0  3.912079  0  0  0.113705  0  3.924075  0  0  0.154025  0.096221  0  3.903248  0
C  C33  1  0.23993475  0.85245102  0.79236204  1  0  0.176755  0  3.556582  0  0  0.109872  0  3.832252  0  0  0.127647  0  3.838511  0  0  0.164404  0.098013  0  3.828376  0
C  C34  1  0.77889653  0.14028081  0.20538973  1  0  0.172215  0  3.576162  0  0  0.104637  0  3.852698  0  0  0.122564  0  3.858701  0  0  0.163131  0.092647  0  3.848947  0
S  S35  1  0.46268259  0.93148302  0.20489959  1  0  -0.38461  0  2.063492  0  0  -0.371842  0  2.367089  0  0  -0.384923  0  2.359265  0  0  -0.180458  -0.361307  0  2.371851  0
S  S36  1  0.52189549  0.07723005  0.78879995  1  0  -0.385508  0  2.07664  0  0  -0.371352  0  2.383596  0  0  -0.384446  0  2.3753  0  0  -0.177447  -0.360707  0  2.388693  0
N  N37  1  0.49110817  0.67176296  0.08194822  1  0  -0.455798  0  3.215229  0  0  -0.434612  0  3.534598  0  0  -0.454829  0  3.536986  0  0  -0.415972  -0.421834  0  3.531068  0
N  N38  1  0.53466662  0.32608836  0.90800799  1  0  -0.454428  0  3.210063  0  0  -0.432982  0  3.528291  0  0  -0.452746  0  3.529918  0  0  -0.413858  -0.420495  0  3.525403  0
N  N39  1  0.21226252  0.52259108  0.07229605  1  0  -0.186871  0  3.044749  0  0  -0.150841  0  3.340629  0  0  -0.169121  0  3.357415  0  0  -0.197584  -0.137973  0  3.328837  0
N  N40  1  0.76461866  0.48508221  0.92051517  1  0  -0.142536  0  3.265194  0  0  -0.100992  0  3.571139  0  0  -0.124484  0  3.586543  0  0  -0.236069  -0.086323  0  3.560651  0
N  N41  1  0.05143218  0.68062546  0.04871476  1  0  -0.24672  0  2.918786  0  0  -0.225868  0  3.206918  0  0  -0.235548  0  3.222759  0  0  -0.22517  -0.218707  0  3.196311  0
N  N42  1  0.92630297  0.32569033  0.94936555  1  0  -0.228016  0  2.894332  0  0  -0.210123  0  3.18027  0  0  -0.218488  0  3.195471  0  0  -0.216846  -0.204173  0  3.17082  0
N  N43  1  0.02363621  0.46831200  0.23851090  1  0  -0.154085  0  3.512865  0  0  -0.064248  0  3.728231  0  0  -0.082728  0  3.750189  0  0  -0.211869  -0.051552  0  3.713136  0
N  N44  1  0.96637941  0.53776297  0.76746721  1  0  -0.146565  0  3.509076  0  0  -0.059843  0  3.72895  0  0  -0.078122  0  3.74831  0  0  -0.211117  -0.047465  0  3.71662  0
N  N45  1  0.09565179  0.21466811  0.44453417  1  0  -0.434205  0  3.047041  0  0  -0.404315  0  3.318571  0  0  -0.418637  0  3.330258  0  0  -0.313174  -0.395029  0  3.310922  0
N  N46  1  0.90156089  0.78699962  0.55851375  1  0  -0.430081  0  3.044497  0  0  -0.402597  0  3.316871  0  0  -0.416542  0  3.32817  0  0  -0.313992  -0.393716  0  3.309725  0
N  N47  1  0.20332368  0.95434778  0.64637107  1  0  -0.149928  0  3.551511  0  0  -0.062383  0  3.771285  0  0  -0.079935  0  3.791869  0  0  -0.21489  -0.05051  0  3.757038  0
N  N48  1  0.80123090  0.04196896  0.35153875  1  0  -0.148208  0  3.557005  0  0  -0.061754  0  3.777397  0  0  -0.079352  0  3.797961  0  0  -0.217028  -0.0498  0  3.763209  0
N  N49  1  0.44809653  0.69832820  0.66937163  1  0  -0.222639  0  2.948893  0  0  -0.194661  0  3.225729  0  0  -0.20363  0  3.242248  0  0  -0.211034  -0.188453  0  3.214553  0
N  N50  1  0.56487842  0.30686611  0.31690097  1  0  -0.220703  0  2.928019  0  0  -0.196406  0  3.207838  0  0  -0.205045  0  3.224177  0  0  -0.211543  -0.190618  0  3.197197  0
N  N51  1  0.38748868  0.69861573  0.80707776  1  0  -0.15307  0  3.257317  0  0  -0.112327  0  3.559815  0  0  -0.132247  0  3.574371  0  0  -0.233793  -0.100287  0  3.549848  0
N  N52  1  0.63750583  0.29972565  0.18336892  1  0  -0.147134  0  3.243473  0  0  -0.106436  0  3.547978  0  0  -0.125743  0  3.560921  0  0  -0.232844  -0.09505  0  3.539573  0
