# generated using pymatgen
data_ZnH18C14(NO4)2
_symmetry_space_group_name_H-M   'P 1'
_cell_length_a   4.77453752
_cell_length_b   11.80482563
_cell_length_c   14.68898924
_cell_angle_alpha   91.09431758
_cell_angle_beta   90.00029306
_cell_angle_gamma   89.99964778
_symmetry_Int_Tables_number   1
_chemical_formula_structural   ZnH18C14(NO4)2
_chemical_formula_sum   'Zn2 H36 C28 N4 O16'
_cell_volume   827.75837264
_cell_formula_units_Z   2
loop_
 _symmetry_equiv_pos_site_id
 _symmetry_equiv_pos_as_xyz
  1  'x, y, z'
loop_
 _atom_site_type_symbol
 _atom_site_label
 _atom_site_symmetry_multiplicity
 _atom_site_fract_x
 _atom_site_fract_y
 _atom_site_fract_z
 _atom_site_occupancy
 _atom_site_hle17_bader_spin_density
 _atom_site_hle17_ddec_charge
 _atom_site_hle17_ddec_spin_density
 _atom_site_hle17_ddec_sum_bond_order
 _atom_site_hle17_magmom
 _atom_site_hse06_10hf_bader_charge
 _atom_site_hse06_10hf_bader_spin_density
 _atom_site_hse06_10hf_ddec_charge
 _atom_site_hse06_10hf_ddec_spin_density
 _atom_site_hse06_10hf_ddec_sum_bond_order
 _atom_site_hse06_10hf_magmom
 _atom_site_hse06_bader_spin_density
 _atom_site_hse06_ddec_charge
 _atom_site_hse06_ddec_spin_density
 _atom_site_hse06_ddec_sum_bond_order
 _atom_site_hse06_magmom
 _atom_site_pbe_bader_spin_density
 _atom_site_pbe_cm5_charge
 _atom_site_pbe_ddec_charge
 _atom_site_pbe_ddec_spin_density
 _atom_site_pbe_ddec_sum_bond_order
 _atom_site_pbe_magmom
Zn  Zn0  1  0.90229789  0.03152469  0.16700394  1  0  1.202133  0  1.6906  0  1.395395  0  1.037855  0  2.153042  0  0  1.086783  0  2.089153  0  0  0.691235  1.00309  0  2.197422  0
Zn  Zn1  1  0.40229575  0.96847531  0.83299700  1  0  1.202146  0  1.690482  0  1.395404  0  1.037882  0  2.152922  0  0  1.086809  0  2.089029  0  0  0.691227  1.003119  0  2.197297  0
H  H2  1  0.01360221  0.61611567  0.17417576  1  0  0.066062  0  0.909472  0  0.098776  0  0.079137  0  0.966625  0  0  0.079604  0  0.96707  0  0  0.116991  0.078681  0  0.966557  0
H  H3  1  0.51360305  0.38388359  0.82582450  1  0  0.066086  0  0.909463  0  0.098781  0  0.079174  0  0.966625  0  0  0.07963  0  0.967061  0  0  0.117013  0.078721  0  0.966553  0
H  H4  1  0.63544481  0.51198572  0.09648565  1  0  0.106241  0  0.971834  0  0.011614  0  0.12608  0  1.034809  0  0  0.127807  0  1.034377  0  0  0.089592  0.124777  0  1.035209  0
H  H5  1  0.13545106  0.48801834  0.90351426  1  0  0.106194  0  0.971831  0  0.011569  0  0.126069  0  1.034766  0  0  0.127796  0  1.034334  0  0  0.089611  0.124763  0  1.035166  0
H  H6  1  0.83349838  0.58831115  0.01533278  1  0  0.112077  0  0.965196  0  0.069703  0  0.132484  0  1.02753  0  0  0.133589  0  1.028407  0  0  0.093535  0.131652  0  1.026923  0
H  H7  1  0.33350287  0.41169158  0.98466674  1  0  0.112058  0  0.965169  0  0.069865  0  0.132465  0  1.027509  0  0  0.13357  0  1.028386  0  0  0.093552  0.131633  0  1.026904  0
H  H8  1  0.49776104  0.63999286  0.05110680  1  0  0.119368  0  0.964258  0  0.076021  0  0.13625  0  1.030073  0  0  0.138822  0  1.028956  0  0  0.089536  0.134335  0  1.030943  0
H  H9  1  0.99776418  0.36001115  0.94889371  1  0  0.119308  0  0.964159  0  0.075904  0  0.136185  0  1.029991  0  0  0.138757  0  1.028872  0  0  0.089516  0.13427  0  1.030858  0
H  H10  1  0.63321897  0.54215894  0.46296107  1  0  0.090122  0  0.99157  0  0.119722  0  0.0991  0  1.05728  0  0  0.101519  0  1.057355  0  0  0.09948  0.097309  0  1.05742  0
H  H11  1  0.13321365  0.45783832  0.53704071  1  0  0.090145  0  0.9916  0  0.119793  0  0.099152  0  1.057269  0  0  0.101573  0  1.057341  0  0  0.099513  0.097357  0  1.057417  0
H  H12  1  0.38148206  0.60977346  0.60056838  1  0  0.107613  0  0.961501  0  0.111639  0  0.115866  0  1.024414  0  0  0.119659  0  1.021824  0  0  0.108021  0.113145  0  1.026338  0
H  H13  1  0.88148660  0.39022321  0.39943176  1  0  0.107576  0  0.961501  0  0.111478  0  0.11585  0  1.024397  0  0  0.119644  0  1.021806  0  0  0.108025  0.113128  0  1.02632  0
H  H14  1  0.94755261  0.85601253  0.43899847  1  0  0.110277  0  0.948987  0  0.151062  0  0.116773  0  1.012988  0  0  0.121439  0  1.009189  0  0  0.105756  0.113403  0  1.015802  0
H  H15  1  0.44755870  0.14398487  0.56099840  1  0  0.11022  0  0.949112  0  0.151108  0  0.116711  0  1.013112  0  0  0.121375  0  1.009315  0  0  0.105727  0.113341  0  1.015929  0
H  H16  1  0.19616828  0.78816276  0.30219017  1  0  0.101993  0  0.94946  0  0.095439  0  0.111712  0  1.011027  0  0  0.115072  0  1.009411  0  0  0.107122  0.109255  0  1.012345  0
H  H17  1  0.69616553  0.21183609  0.69780767  1  0  0.102044  0  0.949359  0  0.095522  0  0.111741  0  1.010955  0  0  0.115115  0  1.009323  0  0  0.107137  0.109267  0  1.012293  0
H  H18  1  0.55891682  0.77566751  0.73126989  1  0  0.067453  0  0.96507  0  0.09966  0  0.074985  0  1.031088  0  0  0.076653  0  1.029852  0  0  0.114253  0.073779  0  1.032058  0
H  H19  1  0.05891292  0.22433421  0.26872847  1  0  0.067448  0  0.965114  0  0.099675  0  0.074982  0  1.031142  0  0  0.07665  0  1.029897  0  0  0.114244  0.073779  0  1.032114  0
H  H20  1  0.58185080  0.57918646  0.78572618  1  0  0.121927  0  0.955993  0  0.087792  0  0.138925  0  1.022858  0  0  0.141667  0  1.021082  0  0  0.092188  0.136925  0  1.024137  0
H  H21  1  0.08184726  0.42081690  0.21427225  1  0  0.121958  0  0.955905  0  0.08776  0  0.138931  0  1.022811  0  0  0.141674  0  1.021037  0  0  0.092222  0.136932  0  1.024091  0
H  H22  1  0.58690675  0.67897952  0.87760424  1  0  0.123304  0  0.934436  0  0.053755  0  0.14618  0  0.98917  0  0  0.147842  0  0.989197  0  0  0.099043  0.144924  0  0.989237  0
H  H23  1  0.08690119  0.32102383  0.12239352  1  0  0.123299  0  0.934452  0  0.053739  0  0.146161  0  0.989201  0  0  0.147821  0  0.989231  0  0  0.099023  0.144904  0  0.989271  0
H  H24  1  0.90482889  0.61058100  0.84332051  1  0  0.108013  0  0.967913  0  0.025707  0  0.126839  0  1.03201  0  0  0.128796  0  1.0313  0  0  0.090453  0.125302  0  1.032696  0
H  H25  1  0.40482492  0.38942071  0.15667844  1  0  0.108004  0  0.967938  0  0.025779  0  0.126846  0  1.032015  0  0  0.128803  0  1.031304  0  0  0.090455  0.125309  0  1.032701  0
H  H26  1  0.60493629  0.77075876  0.23698600  1  0  0.297066  0  0.904851  0  0.47062  0  0.280925  0  0.966118  0  0  0.288861  0  0.960031  0  0  0.313593  0.275298  0  0.970511  0
H  H27  1  0.10493169  0.22924194  0.76301718  1  0  0.29707  0  0.904919  0  0.47069  0  0.28093  0  0.96617  0  0  0.288861  0  0.960093  0  0  0.31359  0.275303  0  0.970563  0
H  H28  1  0.99801974  0.62172254  0.67296221  1  0  0.3069  0  0.918455  0  0.533695  0  0.286988  0  0.98521  0  0  0.295153  0  0.979238  0  0  0.306342  0.281233  0  0.989457  0
H  H29  1  0.49802071  0.37827641  0.32703682  1  0  0.306918  0  0.91843  0  0.533708  0  0.286979  0  0.985207  0  0  0.295148  0  0.979233  0  0  0.306349  0.281226  0  0.989453  0
H  H30  1  0.76951389  0.12144674  0.99741332  1  0  0.437252  0  0.861171  0  0.670822  0  0.4037  0  0.927215  0  0  0.41551  0  0.910343  0  0  0.293  0.395399  0  0.939045  0
H  H31  1  0.26951476  0.87855274  0.00258738  1  0  0.437222  0  0.861208  0  0.670824  0  0.403681  0  0.927235  0  0  0.415491  0  0.910363  0  0  0.292996  0.39538  0  0.939063  0
H  H32  1  0.67682248  0.99724698  0.01031239  1  0  0.429547  0  0.861172  0  0.643136  0  0.399842  0  0.928948  0  0  0.4101  0  0.913994  0  0  0.296288  0.39254  0  0.939602  0
H  H33  1  0.17682277  0.00275188  0.98968814  1  0  0.429549  0  0.86114  0  0.643136  0  0.399845  0  0.928938  0  0  0.410101  0  0.913988  0  0  0.296279  0.392543  0  0.939592  0
H  H34  1  0.74821101  0.04206786  0.34943518  1  0  0.4215  0  0.859109  0  0.640692  0  0.393774  0  0.924641  0  0  0.402926  0  0.911309  0  0  0.298392  0.387286  0  0.934087  0
H  H35  1  0.24820199  0.95793082  0.65056547  1  0  0.421472  0  0.859161  0  0.640655  0  0.393745  0  0.92468  0  0  0.402898  0  0.911346  0  0  0.298396  0.387258  0  0.934122  0
H  H36  1  0.07944456  0.05197535  0.34514149  1  0  0.425458  0  0.87051  0  0.668459  0  0.393676  0  0.935558  0  0  0.40383  0  0.920823  0  0  0.292694  0.386505  0  0.945935  0
H  H37  1  0.57943837  0.94802629  0.65485895  1  0  0.425535  0  0.870409  0  0.668493  0  0.39375  0  0.935457  0  0  0.403905  0  0.920721  0  0  0.292729  0.386579  0  0.945836  0
C  C38  1  0.94282141  0.77878096  0.11675309  1  0  0.662415  0  3.828407  0  1.627151  0  0.611121  0  4.132046  0  0  0.644326  0  4.124801  0  0  0.226321  0.588522  0  4.136322  0
C  C39  1  0.44281882  0.22121891  0.88324996  1  0  0.662421  0  3.828411  0  1.627195  0  0.611211  0  4.131926  0  0  0.6444  0  4.124673  0  0  0.226351  0.588614  0  4.136204  0
C  C40  1  0.83098763  0.66427033  0.15015987  1  0  0.088096  0  3.636518  0  0.317996  0  0.071919  0  3.881978  0  0  0.072894  0  3.894801  0  0  0.014862  0.071204  0  3.873204  0
C  C41  1  0.33098487  0.33573153  0.84984168  1  0  0.088038  0  3.636657  0  0.318106  0  0.071769  0  3.882204  0  0  0.072805  0  3.894935  0  0  0.01479  0.071051  0  3.873429  0
C  C42  1  0.68927119  0.59684585  0.07303987  1  0  -0.333198  0  3.665663  0  -0.071539  0  -0.414637  0  3.902217  0  0  -0.418052  0  3.911616  0  0  -0.244695  -0.411913  0  3.895767  0
C  C43  1  0.18927700  0.40315638  0.92696008  1  0  -0.332979  0  3.665556  0  -0.07157  0  -0.41441  0  3.902134  0  0  -0.417843  0  3.911519  0  0  -0.244649  -0.41169  0  3.895692  0
C  C44  1  0.59415992  0.61282292  0.29368152  1  0  0.540889  0  3.863225  0  1.448957  0  0.490227  0  4.158824  0  0  0.519483  0  4.157751  0  0  0.241311  0.470575  0  4.158838  0
C  C45  1  0.09415413  0.38717700  0.70631889  1  0  0.540881  0  3.863249  0  1.449435  0  0.490244  0  4.158795  0  0  0.519498  0  4.157726  0  0  0.241322  0.470591  0  4.158806  0
C  C46  1  0.43166907  0.65865913  0.37326259  1  0  -0.048283  0  3.770367  0  0.017566  0  -0.027213  0  4.005003  0  0  -0.032095  0  4.027139  0  0  -0.010793  -0.024027  0  3.990023  0
C  C47  1  0.93166534  0.34133827  0.62673766  1  0  -0.048302  0  3.770328  0  0.017409  0  -0.027195  0  4.004913  0  0  -0.032075  0  4.027052  0  0  -0.010778  -0.024006  0  3.989924  0
C  C48  1  0.48057326  0.61007384  0.45800277  1  0  -0.074399  0  3.739755  0  -0.120796  0  -0.096738  0  3.986189  0  0  -0.098528  0  4.006917  0  0  -0.086012  -0.095477  0  3.972227  0
C  C49  1  0.98057794  0.38992258  0.54199821  1  0  -0.074443  0  3.739828  0  -0.121089  0  -0.096812  0  3.986238  0  0  -0.098602  0  4.006964  0  0  -0.08605  -0.095547  0  3.972278  0
C  C50  1  0.33857030  0.64834869  0.53520379  1  0  -0.087203  0  3.735619  0  -0.024824  0  -0.109233  0  3.98704  0  0  -0.109539  0  4.005205  0  0  -0.08644  -0.108907  0  3.974737  0
C  C51  1  0.83857435  0.35164724  0.46479627  1  0  -0.087166  0  3.735591  0  -0.024542  0  -0.10919  0  3.987039  0  0  -0.109495  0  4.005203  0  0  -0.086443  -0.108858  0  3.974733  0
C  C52  1  0.14181754  0.73587093  0.52844547  1  0  -0.050224  0  3.767536  0  -0.082137  0  -0.02964  0  4.005632  0  0  -0.035424  0  4.027982  0  0  -0.01204  -0.025897  0  3.990549  0
C  C53  1  0.64182302  0.26412804  0.47155297  1  0  -0.05022  0  3.767534  0  -0.082308  0  -0.02974  0  4.005741  0  0  -0.035516  0  4.028095  0  0  -0.012056  -0.025998  0  3.99066  0
C  C54  1  0.09717343  0.78687250  0.44422658  1  0  -0.056024  0  3.704524  0  -0.067134  0  -0.079498  0  3.953616  0  0  -0.079968  0  3.972137  0  0  -0.077365  -0.07909  0  3.941146  0
C  C55  1  0.59717262  0.21312404  0.55577172  1  0  -0.055933  0  3.704523  0  -0.067249  0  -0.079356  0  3.953605  0  0  -0.079826  0  3.97213  0  0  -0.077293  -0.078948  0  3.941131  0
C  C56  1  0.24024666  0.74843658  0.36709598  1  0  -0.078133  0  3.711783  0  -0.040343  0  -0.101033  0  3.960851  0  0  -0.101989  0  3.980329  0  0  -0.08303  -0.100326  0  3.947703  0
C  C57  1  0.74024857  0.25155964  0.63290051  1  0  -0.078202  0  3.711725  0  -0.040368  0  -0.101103  0  3.960796  0  0  -0.102069  0  3.980269  0  0  -0.083101  -0.100381  0  3.947655  0
C  C58  1  0.97612275  0.77677867  0.60822910  1  0  0.54107  0  3.84186  0  1.418689  0  0.485088  0  4.139652  0  0  0.514529  0  4.138813  0  0  0.241564  0.465314  0  4.139582  0
C  C59  1  0.47612498  0.22321950  0.39176920  1  0  0.541127  0  3.841818  0  1.418833  0  0.485196  0  4.139564  0  0  0.51462  0  4.138764  0  0  0.241591  0.465424  0  4.139496  0
C  C60  1  0.76073156  0.74169803  0.75331794  1  0  0.073295  0  3.658285  0  0.358856  0  0.055937  0  3.898498  0  0  0.056386  0  3.911276  0  0  0.00691  0.055506  0  3.889967  0
C  C61  1  0.26073308  0.25830486  0.24668283  1  0  0.073243  0  3.658341  0  0.358836  0  0.055857  0  3.89856  0  0  0.056333  0  3.91131  0  0  0.006924  0.05541  0  3.890059  0
C  C62  1  0.92461932  0.83828334  0.80006805  1  0  0.665206  0  3.820092  0  1.621833  0  0.613812  0  4.116413  0  0  0.64811  0  4.108781  0  0  0.224109  0.590396  0  4.121022  0
C  C63  1  0.42461948  0.16171746  0.19993226  1  0  0.665152  0  3.82014  0  1.621828  0  0.613771  0  4.116458  0  0  0.648063  0  4.108824  0  0  0.22407  0.59036  0  4.121068  0
C  C64  1  0.70671710  0.64606067  0.81921319  1  0  -0.316544  0  3.639336  0  -0.057653  0  -0.398836  0  3.880373  0  0  -0.401137  0  3.887638  0  0  -0.239582  -0.396892  0  3.875514  0
C  C65  1  0.20671405  0.35394069  0.18078541  1  0  -0.316573  0  3.6393  0  -0.057673  0  -0.398822  0  3.880312  0  0  -0.401131  0  3.887571  0  0  -0.239618  -0.396874  0  3.875459  0
N  N66  1  0.64586228  0.68648591  0.22713465  1  0  -0.439073  0  3.335625  0  -1.244638  0  -0.389887  0  3.589115  0  0  -0.411774  0  3.599033  0  0  -0.41638  -0.374901  0  3.581931  0
N  N67  1  0.14586284  0.31351387  0.77286585  1  0  -0.439158  0  3.335742  0  -1.244817  0  -0.389931  0  3.589217  0  0  -0.411834  0  3.599119  0  0  -0.416403  -0.374945  0  3.582034  0
N  N68  1  0.91380784  0.70224429  0.67306358  1  0  -0.427461  0  3.296594  0  -1.299874  0  -0.371143  0  3.542302  0  0  -0.393622  0  3.552636  0  0  -0.405679  -0.355836  0  3.535001  0
N  N69  1  0.41380793  0.29775571  0.32693602  1  0  -0.42747  0  3.296687  0  -1.29999  0  -0.371127  0  3.542391  0  0  -0.393622  0  3.552746  0  0  -0.405714  -0.35582  0  3.535097  0
O  O70  1  0.83868001  0.04802733  0.02457040  1  0  -0.854834  0  1.947592  0  -1.285858  0  -0.787014  0  2.157108  0  0  -0.810564  0  2.120889  0  0  -0.562502  -0.77033  0  2.182173  0
O  O71  1  0.33868036  0.95197113  0.97543039  1  0  -0.854801  0  1.947553  0  -1.285857  0  -0.787002  0  2.157105  0  0  -0.810549  0  2.120876  0  0  -0.562484  -0.770319  0  2.182168  0
O  O72  1  0.91586286  0.01037089  0.31936028  1  0  -0.821362  0  1.851942  0  -1.28616  0  -0.762448  0  2.0368  0  0  -0.783518  0  2.005361  0  0  -0.567641  -0.747472  0  2.058666  0
O  O73  1  0.41585173  0.98962995  0.68063934  1  0  -0.821423  0  1.851894  0  -1.286169  0  -0.762508  0  2.036766  0  0  -0.78358  0  2.005325  0  0  -0.567672  -0.74753  0  2.05863  0
O  O74  1  0.84027502  0.86635800  0.15824842  1  0  -0.667739  0  2.085854  0  -1.219032  0  -0.593765  0  2.361716  0  0  -0.622347  0  2.34326  0  0  -0.326265  -0.573783  0  2.373909  0
O  O75  1  0.34027101  0.13364379  0.84175723  1  0  -0.667658  0  2.085869  0  -1.218975  0  -0.593765  0  2.361767  0  0  -0.622341  0  2.343314  0  0  -0.326227  -0.57378  0  2.373953  0
O  O76  1  0.11971295  0.77571292  0.05378814  1  0  -0.597669  0  1.96161  0  -1.201816  0  -0.544702  0  2.17411  0  0  -0.568804  0  2.164571  0  0  -0.305708  -0.528025  0  2.180232  0
O  O77  1  0.61972857  0.22428863  0.94621168  1  0  -0.597741  0  1.961549  0  -1.201902  0  -0.544761  0  2.173977  0  0  -0.568865  0  2.164443  0  0  -0.305732  -0.528085  0  2.180106  0
O  O78  1  0.18840154  0.82603268  0.80395673  1  0  -0.637544  0  2.116928  0  -1.210068  0  -0.564738  0  2.379049  0  0  -0.594889  0  2.367431  0  0  -0.308451  -0.543793  0  2.386342  0
O  O79  1  0.68839988  0.17396870  0.19604320  1  0  -0.637464  0  2.11698  0  -1.210076  0  -0.564661  0  2.379084  0  0  -0.594818  0  2.367482  0  0  -0.308408  -0.543717  0  2.386375  0
O  O80  1  0.80332131  0.92553823  0.83326749  1  0  -0.650765  0  2.087539  0  -1.215646  0  -0.582992  0  2.3654  0  0  -0.610868  0  2.347528  0  0  -0.318242  -0.563622  0  2.377222  0
O  O81  1  0.30332017  0.07446287  0.16673262  1  0  -0.650733  0  2.087547  0  -1.215626  0  -0.582971  0  2.365413  0  0  -0.610845  0  2.347539  0  0  -0.318233  -0.563599  0  2.377228  0
O  O82  1  0.68026743  0.51231457  0.29096631  1  0  -0.579776  0  1.955409  0  -1.199681  0  -0.53045  0  2.179501  0  0  -0.551332  0  2.17264  0  0  -0.300714  -0.515927  0  2.183746  0
O  O83  1  0.18026435  0.48768430  0.70903218  1  0  -0.579683  0  1.955377  0  -1.199706  0  -0.530431  0  2.179507  0  0  -0.551313  0  2.172647  0  0  -0.300715  -0.51591  0  2.183756  0
O  O84  1  0.89656038  0.87901518  0.61372127  1  0  -0.605094  0  1.947112  0  -1.207569  0  -0.545265  0  2.159355  0  0  -0.566945  0  2.149918  0  0  -0.301069  -0.530175  0  2.165462  0
O  O85  1  0.39655780  0.12098404  0.38627556  1  0  -0.605116  0  1.947083  0  -1.207603  0  -0.54531  0  2.159308  0  0  -0.56698  0  2.149881  0  0  -0.301059  -0.530218  0  2.165417  0
