# generated using pymatgen
data_ZnH7C4N3O7
_symmetry_space_group_name_H-M   'P 1'
_cell_length_a   6.61981371
_cell_length_b   10.58829281
_cell_length_c   12.43868494
_cell_angle_alpha   107.08853987
_cell_angle_beta   89.99991510
_cell_angle_gamma   89.99989533
_symmetry_Int_Tables_number   1
_chemical_formula_structural   ZnH7C4N3O7
_chemical_formula_sum   'Zn4 H28 C16 N12 O28'
_cell_volume   833.36785465
_cell_formula_units_Z   4
loop_
 _symmetry_equiv_pos_site_id
 _symmetry_equiv_pos_as_xyz
  1  'x, y, z'
loop_
 _atom_site_type_symbol
 _atom_site_label
 _atom_site_symmetry_multiplicity
 _atom_site_fract_x
 _atom_site_fract_y
 _atom_site_fract_z
 _atom_site_occupancy
 _atom_site_hle17_bader_spin_density
 _atom_site_hle17_ddec_charge
 _atom_site_hle17_ddec_spin_density
 _atom_site_hle17_ddec_sum_bond_order
 _atom_site_hle17_magmom
 _atom_site_hse06_10hf_bader_spin_density
 _atom_site_hse06_10hf_ddec_charge
 _atom_site_hse06_10hf_ddec_spin_density
 _atom_site_hse06_10hf_ddec_sum_bond_order
 _atom_site_hse06_10hf_magmom
 _atom_site_hse06_bader_spin_density
 _atom_site_hse06_ddec_charge
 _atom_site_hse06_ddec_spin_density
 _atom_site_hse06_ddec_sum_bond_order
 _atom_site_hse06_magmom
 _atom_site_pbe_bader_spin_density
 _atom_site_pbe_cm5_charge
 _atom_site_pbe_ddec_charge
 _atom_site_pbe_ddec_spin_density
 _atom_site_pbe_ddec_sum_bond_order
 _atom_site_pbe_magmom
Zn  Zn0  1  0.69348354  0.33164219  0.54551060  1  0  1.171708  0  1.732395  0  0  1.009903  0  2.180167  0  0  1.053289  0  2.124626  0  0  0.684538  0.9792  0  2.218727  0
Zn  Zn1  1  0.19348274  0.16835686  0.95449051  1  0  1.171668  0  1.73241  0  0  1.009829  0  2.180246  0  0  1.053217  0  2.124699  0  0  0.684516  0.979119  0  2.218807  0
Zn  Zn2  1  0.30651761  0.66835546  0.45449163  1  0  1.171692  0  1.73235  0  0  1.009897  0  2.18018  0  0  1.053284  0  2.124636  0  0  0.684556  0.979189  0  2.218746  0
Zn  Zn3  1  0.80652143  0.83164478  0.04550792  1  0  1.171661  0  1.732368  0  0  1.009861  0  2.180188  0  0  1.053249  0  2.124645  0  0  0.684533  0.979161  0  2.218756  0
H  H4  1  0.85783975  0.84010810  0.28928560  1  0  0.327896  0  0.905107  0  0  0.299509  0  0.976032  0  0  0.310103  0  0.966726  0  0  0.325673  0.291771  0  0.982939  0
H  H5  1  0.35784266  0.65989106  0.21071443  1  0  0.327926  0  0.90508  0  0  0.299529  0  0.976012  0  0  0.310124  0  0.966705  0  0  0.325648  0.291789  0  0.98292  0
H  H6  1  0.14216140  0.15989057  0.71071287  1  0  0.327908  0  0.905148  0  0  0.299501  0  0.976102  0  0  0.310097  0  0.966794  0  0  0.32566  0.291761  0  0.983007  0
H  H7  1  0.64215849  0.34010858  0.78928589  1  0  0.327928  0  0.905091  0  0  0.299518  0  0.976045  0  0  0.310113  0  0.966737  0  0  0.325656  0.291778  0  0.982951  0
H  H8  1  0.02474537  0.41157583  0.69030989  1  0  0.421637  0  0.884824  0  0  0.387302  0  0.953861  0  0  0.399409  0  0.936339  0  0  0.285274  0.378736  0  0.96625  0
H  H9  1  0.52474464  0.08842545  0.80969273  1  0  0.421628  0  0.884847  0  0  0.387319  0  0.953838  0  0  0.399426  0  0.936314  0  0  0.285289  0.378754  0  0.966223  0
H  H10  1  0.97525426  0.58842578  0.30969255  1  0  0.421625  0  0.884845  0  0  0.387308  0  0.953854  0  0  0.399417  0  0.936328  0  0  0.285286  0.378743  0  0.966239  0
H  H11  1  0.47525500  0.91157223  0.19030549  1  0  0.421639  0  0.884833  0  0  0.387337  0  0.953816  0  0  0.399445  0  0.93629  0  0  0.285289  0.378773  0  0.9662  0
H  H12  1  0.05704549  0.44208432  0.57648965  1  0  0.431047  0  0.856828  0  0  0.405743  0  0.914549  0  0  0.415972  0  0.899567  0  0  0.29673  0.398406  0  0.925315  0
H  H13  1  0.55704604  0.05791594  0.92351107  1  0  0.431039  0  0.856794  0  0  0.405733  0  0.914556  0  0  0.41596  0  0.899577  0  0  0.29672  0.398396  0  0.925322  0
H  H14  1  0.94295264  0.55791334  0.42351098  1  0  0.431044  0  0.856819  0  0  0.405741  0  0.91455  0  0  0.415969  0  0.899568  0  0  0.296716  0.398404  0  0.925316  0
H  H15  1  0.44295511  0.94208569  0.07648815  1  0  0.431111  0  0.856749  0  0  0.405804  0  0.914472  0  0  0.416033  0  0.899489  0  0  0.296753  0.398465  0  0.925241  0
H  H16  1  0.32497189  0.22138803  0.49515306  1  0  0.406481  0  0.89327  0  0  0.364535  0  0.980836  0  0  0.375533  0  0.96483  0  0  0.289429  0.356734  0  0.992183  0
H  H17  1  0.82497296  0.27861130  0.00484511  1  0  0.406505  0  0.893276  0  0  0.364555  0  0.980833  0  0  0.375553  0  0.964826  0  0  0.289429  0.356751  0  0.992183  0
H  H18  1  0.67502775  0.77861063  0.50484621  1  0  0.406501  0  0.893303  0  0  0.364552  0  0.980845  0  0  0.37555  0  0.964837  0  0  0.289433  0.35675  0  0.992193  0
H  H19  1  0.17502668  0.72139034  0.99515331  1  0  0.406513  0  0.89327  0  0  0.364571  0  0.980813  0  0  0.37557  0  0.964804  0  0  0.289442  0.356771  0  0.992158  0
H  H20  1  0.39144663  0.27649495  0.39352590  1  0  0.423632  0  0.867093  0  0  0.390282  0  0.93869  0  0  0.401585  0  0.922069  0  0  0.293443  0.382229  0  0.950528  0
H  H21  1  0.89144305  0.22350723  0.10647375  1  0  0.423654  0  0.867125  0  0  0.390307  0  0.938665  0  0  0.401613  0  0.922041  0  0  0.293473  0.382252  0  0.950507  0
H  H22  1  0.60855603  0.72350863  0.60647704  1  0  0.423704  0  0.866958  0  0  0.390347  0  0.938581  0  0  0.40165  0  0.92196  0  0  0.293489  0.382296  0  0.950418  0
H  H23  1  0.10855659  0.77649244  0.89352337  1  0  0.423706  0  0.866955  0  0  0.39036  0  0.938561  0  0  0.401663  0  0.92194  0  0  0.293498  0.382313  0  0.950392  0
H  H24  1  0.81570022  0.34242575  0.35506956  1  0  0.428607  0  0.872352  0  0  0.393411  0  0.9418  0  0  0.404933  0  0.925228  0  0  0.295902  0.385263  0  0.95355  0
H  H25  1  0.31570030  0.15757358  0.14492942  1  0  0.428612  0  0.872342  0  0  0.393415  0  0.941788  0  0  0.404933  0  0.92522  0  0  0.29591  0.385266  0  0.953538  0
H  H26  1  0.18430093  0.65757488  0.64493182  1  0  0.428609  0  0.872297  0  0  0.393395  0  0.941776  0  0  0.404917  0  0.925203  0  0  0.295907  0.38525  0  0.953524  0
H  H27  1  0.68430085  0.84242706  0.85506955  1  0  0.428565  0  0.872326  0  0  0.393338  0  0.941831  0  0  0.40486  0  0.925256  0  0  0.295889  0.385193  0  0.953578  0
H  H28  1  0.64977086  0.45737646  0.39513731  1  0  0.429903  0  0.872242  0  0  0.397926  0  0.938101  0  0  0.408675  0  0.922733  0  0  0.299326  0.390389  0  0.948852  0
H  H29  1  0.14976836  0.04262411  0.10486373  1  0  0.4299  0  0.872239  0  0  0.397926  0  0.938099  0  0  0.408674  0  0.922732  0  0  0.299321  0.390389  0  0.948851  0
H  H30  1  0.35023180  0.54262416  0.60486407  1  0  0.42986  0  0.872408  0  0  0.397852  0  0.938228  0  0  0.408603  0  0.922858  0  0  0.299293  0.390315  0  0.94898  0
H  H31  1  0.85023279  0.95737751  0.89513711  1  0  0.429893  0  0.872364  0  0  0.397881  0  0.938183  0  0  0.408635  0  0.922812  0  0  0.299308  0.390345  0  0.948934  0
C  C32  1  0.66382733  0.09970120  0.63175263  1  0  0.61248  0  3.942849  0  0  0.554942  0  4.254603  0  0  0.587811  0  4.246875  0  0  0.214169  0.532615  0  4.259093  0
C  C33  1  0.16382308  0.40031179  0.86824322  1  0  0.612763  0  3.942842  0  0  0.555126  0  4.254689  0  0  0.587992  0  4.246964  0  0  0.214317  0.532802  0  4.259177  0
C  C34  1  0.33616626  0.90029350  0.36824643  1  0  0.612453  0  3.942844  0  0  0.55488  0  4.254643  0  0  0.587746  0  4.246919  0  0  0.214114  0.532554  0  4.259135  0
C  C35  1  0.83616750  0.59969877  0.13175346  1  0  0.612556  0  3.942934  0  0  0.554963  0  4.254751  0  0  0.587829  0  4.247026  0  0  0.21418  0.532636  0  4.259243  0
C  C36  1  0.73944601  0.04929537  0.51363462  1  0  0.163872  0  3.774046  0  0  0.141441  0  4.060234  0  0  0.1451  0  4.076295  0  0  0.208809  0.138927  0  4.049402  0
C  C37  1  0.23944430  0.45070064  0.98636568  1  0  0.163756  0  3.774103  0  0  0.141356  0  4.060315  0  0  0.145012  0  4.076386  0  0  0.208782  0.13884  0  4.049485  0
C  C38  1  0.26054758  0.95070132  0.48636415  1  0  0.163849  0  3.77408  0  0  0.141513  0  4.060131  0  0  0.145168  0  4.076201  0  0  0.208822  0.138999  0  4.049299  0
C  C39  1  0.76055231  0.54929900  0.01363384  1  0  0.163911  0  3.774056  0  0  0.141548  0  4.060168  0  0  0.145206  0  4.076236  0  0  0.208838  0.139035  0  4.049331  0
C  C40  1  0.83274946  0.05340302  0.35076606  1  0  0.234083  0  3.657096  0  0  0.199601  0  3.935548  0  0  0.208822  0  3.946467  0  0  0.237187  0.193445  0  3.928098  0
C  C41  1  0.33274869  0.44659825  0.14923502  1  0  0.233982  0  3.657177  0  0  0.199484  0  3.93562  0  0  0.208701  0  3.946541  0  0  0.237157  0.193327  0  3.928168  0
C  C42  1  0.16725471  0.94659859  0.64923478  1  0  0.234051  0  3.656928  0  0  0.199446  0  3.935517  0  0  0.208707  0  3.946385  0  0  0.23716  0.193284  0  3.928072  0
C  C43  1  0.66725699  0.55339942  0.85076480  1  0  0.234072  0  3.656843  0  0  0.199522  0  3.935391  0  0  0.208762  0  3.946286  0  0  0.237177  0.193359  0  3.927952  0
C  C44  1  0.88955024  0.09157728  0.24812595  1  0  0.636286  0  3.900118  0  0  0.579646  0  4.202302  0  0  0.613727  0  4.191216  0  0  0.23739  0.556412  0  4.209359  0
C  C45  1  0.38955081  0.40842096  0.25187190  1  0  0.636378  0  3.900105  0  0  0.579764  0  4.202258  0  0  0.613838  0  4.191177  0  0  0.237456  0.556532  0  4.209315  0
C  C46  1  0.11045544  0.90840755  0.75186980  1  0  0.63663  0  3.899868  0  0  0.580015  0  4.201991  0  0  0.614073  0  4.190909  0  0  0.237545  0.556792  0  4.209052  0
C  C47  1  0.61045638  0.59159944  0.74813292  1  0  0.636707  0  3.899601  0  0  0.580022  0  4.201835  0  0  0.614085  0  4.190757  0  0  0.237498  0.556796  0  4.208898  0
N  N48  1  0.77107412  0.92235378  0.45720966  1  0  -0.189293  0  2.921112  0  0  -0.17176  0  3.188312  0  0  -0.176899  0  3.201308  0  0  -0.185144  -0.16823  0  3.179845  0
N  N49  1  0.27107320  0.57764453  0.04279022  1  0  -0.189327  0  2.921145  0  0  -0.171823  0  3.188363  0  0  -0.176964  0  3.201361  0  0  -0.185169  -0.168293  0  3.179897  0
N  N50  1  0.22892401  0.07764687  0.54278851  1  0  -0.189279  0  2.921035  0  0  -0.17178  0  3.188185  0  0  -0.176918  0  3.201182  0  0  -0.185127  -0.168249  0  3.179713  0
N  N51  1  0.72892493  0.42235313  0.95721040  1  0  -0.189307  0  2.921039  0  0  -0.171791  0  3.188204  0  0  -0.17693  0  3.201201  0  0  -0.18513  -0.168257  0  3.179728  0
N  N52  1  0.83120736  0.92710026  0.35538234  1  0  -0.165498  0  3.388219  0  0  -0.108169  0  3.630089  0  0  -0.120866  0  3.644753  0  0  -0.236256  -0.099556  0  3.620541  0
N  N53  1  0.33120467  0.57289797  0.14461587  1  0  -0.165511  0  3.388322  0  0  -0.108147  0  3.630172  0  0  -0.120842  0  3.644836  0  0  -0.236206  -0.099534  0  3.620624  0
N  N54  1  0.16879530  0.07290137  0.64461769  1  0  -0.165402  0  3.388176  0  0  -0.108028  0  3.630054  0  0  -0.120736  0  3.644707  0  0  -0.236166  -0.099411  0  3.620502  0
N  N55  1  0.66879648  0.42710070  0.85538260  1  0  -0.16552  0  3.388311  0  0  -0.108153  0  3.630195  0  0  -0.120853  0  3.64485  0  0  -0.236207  -0.099537  0  3.620644  0
N  N56  1  0.77625064  0.13256913  0.45112414  1  0  -0.428157  0  3.198706  0  0  -0.377613  0  3.482616  0  0  -0.394319  0  3.495109  0  0  -0.3221  -0.366154  0  3.474098  0
N  N57  1  0.27625038  0.36743224  0.04887540  1  0  -0.428067  0  3.198805  0  0  -0.377518  0  3.482708  0  0  -0.394222  0  3.495203  0  0  -0.322116  -0.366059  0  3.474187  0
N  N58  1  0.22374598  0.86743052  0.54887619  1  0  -0.428242  0  3.198744  0  0  -0.37768  0  3.482642  0  0  -0.394403  0  3.495129  0  0  -0.322155  -0.366221  0  3.474128  0
N  N59  1  0.72375077  0.63256742  0.95112252  1  0  -0.428223  0  3.198723  0  0  -0.377682  0  3.482639  0  0  -0.394401  0  3.495136  0  0  -0.322126  -0.366222  0  3.474128  0
O  O60  1  0.63751065  0.22561248  0.66605130  1  0  -0.630485  0  2.072141  0  0  -0.564278  0  2.323264  0  0  -0.591043  0  2.310665  0  0  -0.309385  -0.545252  0  2.331439  0
O  O61  1  0.13750837  0.27438272  0.83394646  1  0  -0.630569  0  2.071617  0  0  -0.564318  0  2.322778  0  0  -0.591088  0  2.310183  0  0  -0.30938  -0.545287  0  2.330948  0
O  O62  1  0.36248445  0.77438419  0.33394907  1  0  -0.63053  0  2.072259  0  0  -0.56429  0  2.323374  0  0  -0.591051  0  2.310772  0  0  -0.309339  -0.545267  0  2.331553  0
O  O63  1  0.86248523  0.72561495  0.16605256  1  0  -0.630559  0  2.072023  0  0  -0.564304  0  2.323132  0  0  -0.591068  0  2.310532  0  0  -0.309395  -0.54528  0  2.331312  0
O  O64  1  0.62850916  0.01941766  0.68580562  1  0  -0.560565  0  1.963716  0  0  -0.511099  0  2.179533  0  0  -0.534056  0  2.171953  0  0  -0.298264  -0.495226  0  2.184618  0
O  O65  1  0.12850784  0.48057551  0.81420128  1  0  -0.560624  0  1.96436  0  0  -0.511112  0  2.180246  0  0  -0.534058  0  2.172661  0  0  -0.298343  -0.495244  0  2.185337  0
O  O66  1  0.37148746  0.98058001  0.31419340  1  0  -0.560488  0  1.963484  0  0  -0.511074  0  2.17937  0  0  -0.534029  0  2.17179  0  0  -0.298277  -0.495201  0  2.184455  0
O  O67  1  0.87148726  0.51942014  0.18580365  1  0  -0.560528  0  1.963816  0  0  -0.51108  0  2.179702  0  0  -0.534032  0  2.17212  0  0  -0.298262  -0.495211  0  2.184787  0
O  O68  1  0.88355745  0.21145074  0.25116942  1  0  -0.567207  0  1.984386  0  0  -0.508457  0  2.193771  0  0  -0.532058  0  2.182623  0  0  -0.28088  -0.492398  0  2.201507  0
O  O69  1  0.38356290  0.28855342  0.24883155  1  0  -0.56724  0  1.984481  0  0  -0.508476  0  2.193842  0  0  -0.532058  0  2.182685  0  0  -0.280907  -0.492428  0  2.201582  0
O  O70  1  0.11643766  0.78856473  0.74883173  1  0  -0.567238  0  1.984889  0  0  -0.508481  0  2.194302  0  0  -0.532071  0  2.18315  0  0  -0.280927  -0.49244  0  2.202048  0
O  O71  1  0.61643976  0.71143038  0.75116876  1  0  -0.56708  0  1.985103  0  0  -0.508277  0  2.194537  0  0  -0.531864  0  2.183386  0  0  -0.280753  -0.492233  0  2.202278  0
O  O72  1  0.94643282  0.99695570  0.16350805  1  0  -0.644779  0  2.109471  0  0  -0.57644  0  2.364953  0  0  -0.60292  0  2.350715  0  0  -0.312533  -0.557952  0  2.374422  0
O  O73  1  0.44643433  0.50304826  0.33649394  1  0  -0.644813  0  2.109359  0  0  -0.576494  0  2.364849  0  0  -0.602977  0  2.350614  0  0  -0.312576  -0.558006  0  2.374316  0
O  O74  1  0.05357135  0.00305675  0.83650037  1  0  -0.645157  0  2.109084  0  0  -0.576662  0  2.364388  0  0  -0.603143  0  2.350145  0  0  -0.312613  -0.558166  0  2.373853  0
O  O75  1  0.55356833  0.49694154  0.66349825  1  0  -0.64537  0  2.108738  0  0  -0.576858  0  2.364076  0  0  -0.603339  0  2.349826  0  0  -0.312745  -0.55836  0  2.373545  0
O  O76  1  0.98130870  0.38177894  0.60920494  1  0  -0.846081  0  1.920421  0  0  -0.788401  0  2.134717  0  0  -0.809802  0  2.098804  0  0  -0.590435  -0.77325  0  2.15984  0
O  O77  1  0.48130822  0.11822066  0.89079368  1  0  -0.846072  0  1.920404  0  0  -0.788395  0  2.134705  0  0  -0.809793  0  2.098798  0  0  -0.590475  -0.773245  0  2.159824  0
O  O78  1  0.01869396  0.61821576  0.39079493  1  0  -0.846119  0  1.92046  0  0  -0.788434  0  2.134754  0  0  -0.809832  0  2.098839  0  0  -0.590469  -0.773263  0  2.159829  0
O  O79  1  0.51869444  0.88178393  0.10920631  1  0  -0.846171  0  1.920377  0  0  -0.788484  0  2.134634  0  0  -0.809882  0  2.09872  0  0  -0.590492  -0.773326  0  2.159748  0
O  O80  1  0.39699196  0.29419660  0.47630479  1  0  -0.823134  0  1.948359  0  0  -0.761475  0  2.167544  0  0  -0.782347  0  2.132061  0  0  -0.57416  -0.74657  0  2.192278  0
O  O81  1  0.89698866  0.20580260  0.02369490  1  0  -0.823187  0  1.948459  0  0  -0.76154  0  2.167571  0  0  -0.782411  0  2.132083  0  0  -0.574191  -0.746634  0  2.192313  0
O  O82  1  0.60300919  0.70580307  0.52369232  1  0  -0.823193  0  1.948322  0  0  -0.761553  0  2.167482  0  0  -0.782424  0  2.131996  0  0  -0.574165  -0.746649  0  2.192217  0
O  O83  1  0.10301098  0.79419802  0.97630729  1  0  -0.82321  0  1.948331  0  0  -0.761567  0  2.167458  0  0  -0.782436  0  2.131971  0  0  -0.574178  -0.74666  0  2.192189  0
O  O84  1  0.77310667  0.41906900  0.42061393  1  0  -0.832396  0  1.949628  0  0  -0.756552  0  2.148882  0  0  -0.780671  0  2.113774  0  0  -0.558745  -0.73955  0  2.173344  0
O  O85  1  0.27310716  0.08093039  0.07938671  1  0  -0.832391  0  1.949646  0  0  -0.756545  0  2.148909  0  0  -0.78067  0  2.113826  0  0  -0.558725  -0.73953  0  2.173363  0
O  O86  1  0.22689901  0.58092471  0.57938568  1  0  -0.832326  0  1.949681  0  0  -0.756503  0  2.148979  0  0  -0.780596  0  2.113814  0  0  -0.558727  -0.739493  0  2.173438  0
O  O87  1  0.72689852  0.91907815  0.92061589  1  0  -0.832296  0  1.949662  0  0  -0.756468  0  2.149005  0  0  -0.780561  0  2.113832  0  0  -0.558687  -0.739465  0  2.173472  0
