# generated using pymatgen
data_AgH8C14NO2
_symmetry_space_group_name_H-M   'P 1'
_cell_length_a   8.06898557
_cell_length_b   9.18382573
_cell_length_c   17.57986553
_cell_angle_alpha   89.99990158
_cell_angle_beta   90.00052793
_cell_angle_gamma   90.00027985
_symmetry_Int_Tables_number   1
_chemical_formula_structural   AgH8C14NO2
_chemical_formula_sum   'Ag4 H32 C56 N4 O8'
_cell_volume   1302.74112014
_cell_formula_units_Z   4
loop_
 _symmetry_equiv_pos_site_id
 _symmetry_equiv_pos_as_xyz
  1  'x, y, z'
loop_
 _atom_site_type_symbol
 _atom_site_label
 _atom_site_symmetry_multiplicity
 _atom_site_fract_x
 _atom_site_fract_y
 _atom_site_fract_z
 _atom_site_occupancy
 _atom_site_hle17_bader_spin_density
 _atom_site_hle17_ddec_charge
 _atom_site_hle17_ddec_spin_density
 _atom_site_hle17_ddec_sum_bond_order
 _atom_site_hle17_magmom
 _atom_site_hse06_10hf_bader_spin_density
 _atom_site_hse06_10hf_ddec_charge
 _atom_site_hse06_10hf_ddec_spin_density
 _atom_site_hse06_10hf_ddec_sum_bond_order
 _atom_site_hse06_10hf_magmom
 _atom_site_hse06_bader_spin_density
 _atom_site_hse06_ddec_charge
 _atom_site_hse06_ddec_spin_density
 _atom_site_hse06_ddec_sum_bond_order
 _atom_site_hse06_magmom
 _atom_site_pbe_bader_spin_density
 _atom_site_pbe_cm5_charge
 _atom_site_pbe_ddec_charge
 _atom_site_pbe_ddec_spin_density
 _atom_site_pbe_ddec_sum_bond_order
 _atom_site_pbe_magmom
Ag  Ag0  1  0.63600246  0.69819151  0.24097900  1  0  0.553926  0  1.35249  0  0  0.417667  0  1.766333  0  0  0.449154  0  1.723083  0  0  0.462368  0.396574  0  1.795509  0
Ag  Ag1  1  0.36400067  0.30180735  0.74097957  1  0  0.553929  0  1.352473  0  0  0.417668  0  1.766319  0  0  0.449155  0  1.723065  0  0  0.462371  0.396568  0  1.795507  0
Ag  Ag2  1  0.86399768  0.69819227  0.74098046  1  0  0.553955  0  1.352458  0  0  0.417696  0  1.766306  0  0  0.449185  0  1.723057  0  0  0.462381  0.396596  0  1.795498  0
Ag  Ag3  1  0.13600173  0.30180767  0.24097868  1  0  0.553952  0  1.352466  0  0  0.417712  0  1.766308  0  0  0.449197  0  1.723056  0  0  0.462392  0.39662  0  1.795487  0
H  H4  1  0.43591173  0.35084872  0.34524289  1  0  0.115092  0  0.941544  0  0  0.128727  0  0.992169  0  0  0.132197  0  0.989818  0  0  0.110716  0.12608  0  0.994082  0
H  H5  1  0.56409472  0.64914979  0.84524344  1  0  0.115171  0  0.941457  0  0  0.128764  0  0.992128  0  0  0.132233  0  0.989777  0  0  0.110724  0.126117  0  0.994033  0
H  H6  1  0.06409549  0.35085035  0.84524365  1  0  0.115052  0  0.941526  0  0  0.128654  0  0.99219  0  0  0.132124  0  0.98984  0  0  0.110684  0.12603  0  0.99407  0
H  H7  1  0.93590352  0.64915252  0.34524439  1  0  0.11512  0  0.941523  0  0  0.128674  0  0.992234  0  0  0.132143  0  0.989884  0  0  0.11068  0.126036  0  0.994133  0
H  H8  1  0.28405432  0.20873752  0.44336511  1  0  0.093968  0  0.937172  0  0  0.109629  0  0.987322  0  0  0.112377  0  0.986968  0  0  0.106459  0.10758  0  0.987833  0
H  H9  1  0.71595160  0.79125849  0.94336789  1  0  0.094031  0  0.937081  0  0  0.109651  0  0.987277  0  0  0.112398  0  0.986925  0  0  0.106476  0.1076  0  0.987782  0
H  H10  1  0.21595284  0.20874090  0.94336765  1  0  0.094026  0  0.937065  0  0  0.109637  0  0.987276  0  0  0.112384  0  0.986924  0  0  0.10648  0.107589  0  0.987783  0
H  H11  1  0.78405184  0.79126274  0.44336762  1  0  0.093991  0  0.937142  0  0  0.10963  0  0.987319  0  0  0.112377  0  0.986966  0  0  0.106475  0.10758  0  0.987827  0
H  H12  1  0.28557565  0.93717905  0.43875155  1  0  0.087814  0  0.964106  0  0  0.100235  0  1.023002  0  0  0.102136  0  1.0231  0  0  0.101094  0.098829  0  1.023029  0
H  H13  1  0.71442770  0.06281806  0.93875498  1  0  0.087781  0  0.96419  0  0  0.100288  0  1.022988  0  0  0.102192  0  1.023082  0  0  0.101139  0.098883  0  1.023016  0
H  H14  1  0.21442670  0.93718134  0.93875352  1  0  0.087723  0  0.964117  0  0  0.100224  0  1.022934  0  0  0.102127  0  1.023029  0  0  0.101119  0.098816  0  1.022958  0
H  H15  1  0.78557665  0.06282231  0.43875301  1  0  0.087809  0  0.964086  0  0  0.10022  0  1.022992  0  0  0.102121  0  1.023093  0  0  0.101114  0.098814  0  1.023018  0
H  H16  1  0.95596930  0.93296401  0.02498077  1  0  0.087017  0  0.947245  0  0  0.101325  0  1.002633  0  0  0.103199  0  1.002574  0  0  0.102986  0.099948  0  1.002718  0
H  H17  1  0.04402829  0.06704319  0.52498133  1  0  0.08704  0  0.947221  0  0  0.10133  0  1.002622  0  0  0.103205  0  1.00256  0  0  0.102998  0.099956  0  1.002706  0
H  H18  1  0.54402658  0.93296228  0.52498144  1  0  0.087044  0  0.947273  0  0  0.101337  0  1.002657  0  0  0.103208  0  1.002602  0  0  0.103013  0.099963  0  1.002739  0
H  H19  1  0.45596357  0.06703402  0.02498009  1  0  0.087002  0  0.94729  0  0  0.1013  0  1.002685  0  0  0.103168  0  1.002639  0  0  0.102966  0.099924  0  1.00277  0
H  H20  1  0.95558802  0.20410219  0.01860505  1  0  0.088941  0  0.96532  0  0  0.101433  0  1.022673  0  0  0.103708  0  1.023225  0  0  0.099548  0.099773  0  1.022476  0
H  H21  1  0.04440696  0.79590285  0.51860382  1  0  0.088988  0  0.965354  0  0  0.101485  0  1.022692  0  0  0.103761  0  1.023243  0  0  0.09958  0.099823  0  1.022495  0
H  H22  1  0.54440872  0.20410047  0.51860401  1  0  0.088969  0  0.965324  0  0  0.101462  0  1.022673  0  0  0.103738  0  1.023224  0  0  0.099565  0.099799  0  1.022476  0
H  H23  1  0.45558378  0.79589477  0.01860542  1  0  0.088999  0  0.965245  0  0  0.101496  0  1.022592  0  0  0.103772  0  1.023142  0  0  0.099563  0.099834  0  1.022391  0
H  H24  1  0.79658423  0.34800577  0.11277942  1  0  0.119475  0  0.93988  0  0  0.132495  0  0.992088  0  0  0.135885  0  0.989903  0  0  0.111733  0.129843  0  0.99397  0
H  H25  1  0.20341139  0.65199678  0.61277787  1  0  0.119477  0  0.939896  0  0  0.132522  0  0.992081  0  0  0.135891  0  0.989925  0  0  0.111739  0.129873  0  0.99396  0
H  H26  1  0.70341393  0.34800583  0.61277907  1  0  0.119478  0  0.939849  0  0  0.132507  0  0.992055  0  0  0.135893  0  0.989876  0  0  0.111731  0.129855  0  0.993936  0
H  H27  1  0.29658293  0.65199237  0.11278220  1  0  0.119458  0  0.93986  0  0  0.132483  0  0.992077  0  0  0.135886  0  0.989873  0  0  0.111719  0.129833  0  0.993955  0
H  H28  1  0.79918196  0.80365355  0.12549207  1  0  0.101483  0  0.966811  0  0  0.110278  0  1.03616  0  0  0.115228  0  1.031429  0  0  0.098416  0.106581  0  1.03977  0
H  H29  1  0.20082259  0.19634678  0.62549375  1  0  0.101436  0  0.966882  0  0  0.110241  0  1.036222  0  0  0.115193  0  1.031487  0  0  0.098413  0.106546  0  1.039835  0
H  H30  1  0.70081770  0.80365469  0.62549284  1  0  0.101444  0  0.966828  0  0  0.110251  0  1.036176  0  0  0.115204  0  1.031438  0  0  0.098405  0.106554  0  1.039792  0
H  H31  1  0.29917942  0.19634564  0.12549127  1  0  0.101427  0  0.966749  0  0  0.110213  0  1.036118  0  0  0.115164  0  1.031385  0  0  0.098361  0.106515  0  1.039736  0
H  H32  1  0.44224207  0.80676332  0.33858508  1  0  0.094142  0  0.966047  0  0  0.104017  0  1.034878  0  0  0.108963  0  1.029849  0  0  0.096728  0.100334  0  1.038712  0
H  H33  1  0.55776176  0.19323412  0.83858658  1  0  0.094134  0  0.966121  0  0  0.104019  0  1.034933  0  0  0.108965  0  1.029902  0  0  0.096735  0.100337  0  1.038764  0
H  H34  1  0.05775882  0.80676601  0.83858581  1  0  0.094077  0  0.966196  0  0  0.103979  0  1.034987  0  0  0.108923  0  1.029962  0  0  0.096722  0.1003  0  1.038814  0
H  H35  1  0.94224254  0.19323579  0.33858472  1  0  0.094138  0  0.96605  0  0  0.104015  0  1.034878  0  0  0.108961  0  1.029851  0  0  0.096725  0.100333  0  1.038706  0
C  C36  1  0.58962013  0.39821733  0.21898683  1  0  0.626113  0  3.979436  0  0  0.576965  0  4.273197  0  0  0.610225  0  4.267512  0  0  0.191117  0.554296  0  4.275961  0
C  C37  1  0.41038256  0.60178160  0.71898733  1  0  0.626097  0  3.979627  0  0  0.576953  0  4.273378  0  0  0.610217  0  4.267693  0  0  0.191168  0.554293  0  4.276123  0
C  C38  1  0.91038166  0.39821721  0.71898849  1  0  0.626142  0  3.979441  0  0  0.577005  0  4.273178  0  0  0.610267  0  4.267494  0  0  0.191193  0.554336  0  4.275933  0
C  C39  1  0.08961607  0.60178390  0.21898908  1  0  0.626155  0  3.979484  0  0  0.57702  0  4.273213  0  0  0.61028  0  4.267531  0  0  0.191174  0.554354  0  4.275964  0
C  C40  1  0.60921083  0.23607905  0.22696994  1  0  -0.029272  0  3.619277  0  0  -0.02418  0  3.85738  0  0  -0.019387  0  3.870159  0  0  0.025576  -0.027863  0  3.849139  0
C  C41  1  0.39079202  0.76392095  0.72696965  1  0  -0.029291  0  3.619299  0  0  -0.024182  0  3.857453  0  0  -0.01939  0  3.87023  0  0  0.02553  -0.027857  0  3.849206  0
C  C42  1  0.89078900  0.23607993  0.72697038  1  0  -0.029247  0  3.619386  0  0  -0.02414  0  3.857553  0  0  -0.019348  0  3.870332  0  0  0.025531  -0.027818  0  3.849308  0
C  C43  1  0.10920766  0.76392116  0.22697091  1  0  -0.029382  0  3.619329  0  0  -0.024267  0  3.857491  0  0  -0.019475  0  3.870269  0  0  0.025536  -0.027943  0  3.849243  0
C  C44  1  0.52645731  0.16002114  0.28521313  1  0  -0.012601  0  3.765588  0  0  -0.000933  0  3.996128  0  0  -0.007297  0  4.020516  0  0  -0.007362  0.003024  0  3.980114  0
C  C45  1  0.47354794  0.83997648  0.78521426  1  0  -0.012409  0  3.765406  0  0  -0.000833  0  3.996081  0  0  -0.007195  0  4.020465  0  0  -0.007275  0.003113  0  3.98008  0
C  C46  1  0.97354699  0.16002347  0.78521336  1  0  -0.012545  0  3.765481  0  0  -0.001015  0  3.996169  0  0  -0.007377  0  4.020554  0  0  -0.007298  0.002939  0  3.980171  0
C  C47  1  0.02645207  0.83997742  0.28521404  1  0  -0.012441  0  3.765439  0  0  -0.000875  0  3.996081  0  0  -0.007239  0  4.020467  0  0  -0.007266  0.003077  0  3.980078  0
C  C48  1  0.43520870  0.23213785  0.34383679  1  0  -0.106044  0  3.746791  0  0  -0.123585  0  3.99627  0  0  -0.122354  0  4.013442  0  0  -0.087345  -0.124376  0  3.985033  0
C  C49  1  0.56479524  0.76785849  0.84383780  1  0  -0.10619  0  3.746737  0  0  -0.123663  0  3.996233  0  0  -0.12243  0  4.0134  0  0  -0.087377  -0.124459  0  3.984997  0
C  C50  1  0.06479661  0.23213948  0.84383868  1  0  -0.10602  0  3.746706  0  0  -0.123475  0  3.996178  0  0  -0.122242  0  4.013347  0  0  -0.087319  -0.124287  0  3.984944  0
C  C51  1  0.93520361  0.76786231  0.34383818  1  0  -0.10608  0  3.746789  0  0  -0.123514  0  3.996292  0  0  -0.122281  0  4.013462  0  0  -0.087307  -0.124318  0  3.985056  0
C  C52  1  0.35305372  0.15315742  0.39864537  1  0  -0.08231  0  3.783861  0  0  -0.098564  0  4.041811  0  0  -0.103017  0  4.062881  0  0  -0.092931  -0.095787  0  4.027735  0
C  C53  1  0.64695255  0.84684092  0.89864781  1  0  -0.082282  0  3.783629  0  0  -0.098487  0  4.041569  0  0  -0.102939  0  4.062635  0  0  -0.092852  -0.095704  0  4.02748  0
C  C54  1  0.14695101  0.15315832  0.89864648  1  0  -0.082315  0  3.783813  0  0  -0.098533  0  4.041765  0  0  -0.102985  0  4.062832  0  0  -0.092909  -0.095757  0  4.027691  0
C  C55  1  0.85305154  0.84684328  0.39864613  1  0  -0.08232  0  3.783818  0  0  -0.098554  0  4.041742  0  0  -0.103008  0  4.062811  0  0  -0.092926  -0.095778  0  4.027667  0
C  C56  1  0.35507360  0.99871137  0.39641802  1  0  -0.03026  0  3.750498  0  0  -0.044483  0  4.000264  0  0  -0.042553  0  4.021025  0  0  -0.081756  -0.045505  0  3.986051  0
C  C57  1  0.64493138  0.00128916  0.89642120  1  0  -0.030378  0  3.75053  0  0  -0.044685  0  4.000337  0  0  -0.042756  0  4.021093  0  0  -0.081909  -0.045703  0  3.986122  0
C  C58  1  0.14493072  0.99871335  0.89642026  1  0  -0.030235  0  3.750452  0  0  -0.044526  0  4.000247  0  0  -0.042596  0  4.021003  0  0  -0.081839  -0.045534  0  3.986016  0
C  C59  1  0.85507178  0.00129044  0.39641953  1  0  -0.03027  0  3.750419  0  0  -0.044483  0  4.000192  0  0  -0.042553  0  4.020952  0  0  -0.081827  -0.045498  0  3.985973  0
C  C60  1  0.44185699  0.92581501  0.34098380  1  0  -0.158136  0  3.729709  0  0  -0.177618  0  3.981509  0  0  -0.184907  0  4.002402  0  0  -0.094147  -0.172859  0  3.967525  0
C  C61  1  0.55814937  0.07418134  0.84098654  1  0  -0.158064  0  3.72976  0  0  -0.177528  0  3.981568  0  0  -0.184822  0  4.002475  0  0  -0.094149  -0.172771  0  3.967582  0
C  C62  1  0.05814707  0.92581661  0.84098510  1  0  -0.158082  0  3.729771  0  0  -0.177584  0  3.981563  0  0  -0.184876  0  4.002471  0  0  -0.094172  -0.172829  0  3.967574  0
C  C63  1  0.94185557  0.07418518  0.34098467  1  0  -0.158162  0  3.729694  0  0  -0.177644  0  3.981482  0  0  -0.184936  0  4.00238  0  0  -0.094169  -0.172888  0  3.967494  0
C  C64  1  0.53174007  0.00340560  0.28444301  1  0  0.216202  0  3.788098  0  0  0.20976  0  4.023694  0  0  0.219644  0  4.046511  0  0  0.111486  0.2033  0  4.008162  0
C  C65  1  0.46826269  0.99659203  0.78444341  1  0  0.216067  0  3.788072  0  0  0.209608  0  4.023777  0  0  0.219489  0  4.046599  0  0  0.111432  0.203149  0  4.008246  0
C  C66  1  0.96826212  0.00340682  0.78444379  1  0  0.216108  0  3.788046  0  0  0.209729  0  4.023661  0  0  0.219611  0  4.046474  0  0  0.11146  0.203259  0  4.008143  0
C  C67  1  0.03173816  0.99659408  0.28444378  1  0  0.216103  0  3.788103  0  0  0.209708  0  4.023722  0  0  0.219592  0  4.046542  0  0  0.111454  0.203242  0  4.008195  0
C  C68  1  0.70430219  0.00170316  0.17689819  1  0  0.219425  0  3.78462  0  0  0.212489  0  4.021671  0  0  0.222794  0  4.043909  0  0  0.112878  0.205741  0  4.006543  0
C  C69  1  0.29570214  0.99829265  0.67689899  1  0  0.219345  0  3.78458  0  0  0.212398  0  4.021657  0  0  0.222701  0  4.043901  0  0  0.112861  0.205647  0  4.006533  0
C  C70  1  0.79569908  0.00170798  0.67689936  1  0  0.219426  0  3.784547  0  0  0.212467  0  4.021657  0  0  0.222768  0  4.043899  0  0  0.112892  0.205713  0  4.006534  0
C  C71  1  0.20429905  0.99829001  0.17690009  1  0  0.21936  0  3.784642  0  0  0.212475  0  4.021631  0  0  0.222779  0  4.043875  0  0  0.112853  0.205722  0  4.00651  0
C  C72  1  0.79678790  0.92254083  0.12188220  1  0  -0.164434  0  3.725529  0  0  -0.183752  0  3.978609  0  0  -0.191577  0  3.999706  0  0  -0.094621  -0.178619  0  3.964494  0
C  C73  1  0.20321410  0.07746169  0.62188286  1  0  -0.16426  0  3.725501  0  0  -0.183579  0  3.978578  0  0  -0.191403  0  3.999676  0  0  -0.094586  -0.178451  0  3.964472  0
C  C74  1  0.70320986  0.92253871  0.62188127  1  0  -0.164314  0  3.725395  0  0  -0.183642  0  3.978482  0  0  -0.191465  0  3.99958  0  0  -0.094597  -0.178511  0  3.964376  0
C  C75  1  0.29678594  0.07745837  0.12188094  1  0  -0.164312  0  3.725226  0  0  -0.183623  0  3.978277  0  0  -0.191446  0  3.999373  0  0  -0.094514  -0.178494  0  3.964179  0
C  C76  1  0.88392117  0.99488787  0.06632390  1  0  -0.027667  0  3.751218  0  0  -0.042736  0  4.001888  0  0  -0.040449  0  4.022604  0  0  -0.080768  -0.043967  0  3.987653  0
C  C77  1  0.11607724  0.00511919  0.56632369  1  0  -0.027776  0  3.751171  0  0  -0.042834  0  4.001857  0  0  -0.040547  0  4.022575  0  0  -0.080821  -0.044063  0  3.987619  0
C  C78  1  0.61607463  0.99488428  0.56632318  1  0  -0.027777  0  3.751199  0  0  -0.042817  0  4.001855  0  0  -0.04053  0  4.022571  0  0  -0.080816  -0.044042  0  3.987613  0
C  C79  1  0.38391882  0.00511407  0.06632271  1  0  -0.027619  0  3.750897  0  0  -0.042669  0  4.001555  0  0  -0.040384  0  4.022266  0  0  -0.080741  -0.043896  0  3.987322  0
C  C80  1  0.88381845  0.14932522  0.06258193  1  0  -0.08456  0  3.777905  0  0  -0.099221  0  4.033247  0  0  -0.104371  0  4.055177  0  0  -0.09394  -0.095984  0  4.018598  0
C  C81  1  0.11617865  0.85067749  0.56258096  1  0  -0.084624  0  3.777927  0  0  -0.09928  0  4.033266  0  0  -0.104425  0  4.055183  0  0  -0.093944  -0.096038  0  4.01861  0
C  C82  1  0.61618012  0.14932490  0.56258234  1  0  -0.084531  0  3.7779  0  0  -0.099189  0  4.03322  0  0  -0.104335  0  4.055143  0  0  -0.093901  -0.095949  0  4.018561  0
C  C83  1  0.38381203  0.85067019  0.06258340  1  0  -0.084667  0  3.777774  0  0  -0.099336  0  4.033133  0  0  -0.104483  0  4.055061  0  0  -0.09396  -0.096098  0  4.018481  0
C  C84  1  0.79526778  0.22936022  0.11459633  1  0  -0.084891  0  3.709857  0  0  -0.106697  0  3.960718  0  0  -0.104933  0  3.978052  0  0  -0.079667  -0.107864  0  3.949481  0
C  C85  1  0.20473159  0.77064233  0.61459581  1  0  -0.084847  0  3.70993  0  0  -0.106674  0  3.960786  0  0  -0.104897  0  3.978133  0  0  -0.079662  -0.107842  0  3.949547  0
C  C86  1  0.70473102  0.22935811  0.61459711  1  0  -0.084903  0  3.70985  0  0  -0.106724  0  3.960711  0  0  -0.104959  0  3.97805  0  0  -0.079692  -0.107887  0  3.949466  0
C  C87  1  0.29526712  0.77064008  0.11459729  1  0  -0.084838  0  3.709848  0  0  -0.106649  0  3.960714  0  0  -0.104895  0  3.97805  0  0  -0.079637  -0.10782  0  3.949473  0
C  C88  1  0.70259233  0.15823814  0.17288102  1  0  -0.008499  0  3.755628  0  0  0.001499  0  3.989917  0  0  -0.004677  0  4.013904  0  0  -0.003839  0.005279  0  3.974246  0
C  C89  1  0.29740945  0.84176203  0.67288083  1  0  -0.008534  0  3.755705  0  0  0.001482  0  3.989992  0  0  -0.004692  0  4.013971  0  0  -0.003854  0.005258  0  3.974323  0
C  C90  1  0.79740848  0.15823753  0.67288220  1  0  -0.008546  0  3.755732  0  0  0.001487  0  3.989995  0  0  -0.004688  0  4.01398  0  0  -0.003828  0.005265  0  3.974325  0
C  C91  1  0.20258834  0.84176374  0.17288420  1  0  -0.008486  0  3.755635  0  0  0.001498  0  3.989922  0  0  -0.004681  0  4.013914  0  0  -0.003874  0.005279  0  3.974251  0
N  N92  1  0.61871333  0.92841363  0.23125068  1  0  -0.401631  0  3.332585  0  0  -0.319785  0  3.608389  0  0  -0.343957  0  3.627717  0  0  -0.353629  -0.303631  0  3.594861  0
N  N93  1  0.38129084  0.07158635  0.73125097  1  0  -0.401566  0  3.332536  0  0  -0.319704  0  3.608376  0  0  -0.343871  0  3.627691  0  0  -0.353594  -0.303543  0  3.594842  0
N  N94  1  0.88128911  0.92841338  0.73125108  1  0  -0.401613  0  3.332562  0  0  -0.319775  0  3.608364  0  0  -0.343953  0  3.627713  0  0  -0.353632  -0.303608  0  3.594833  0
N  N95  1  0.11871259  0.07158769  0.23125000  1  0  -0.401602  0  3.33255  0  0  -0.319801  0  3.60838  0  0  -0.343968  0  3.627692  0  0  -0.353641  -0.303635  0  3.594846  0
O  O96  1  0.49869504  0.44307434  0.16647370  1  0  -0.605252  0  1.872911  0  0  -0.556144  0  2.087193  0  0  -0.583896  0  2.07943  0  0  -0.319542  -0.535591  0  2.091248  0
O  O97  1  0.50130537  0.55692368  0.66647463  1  0  -0.605258  0  1.873076  0  0  -0.556149  0  2.087357  0  0  -0.583899  0  2.079589  0  0  -0.319566  -0.535599  0  2.091409  0
O  O98  1  0.00130416  0.44307787  0.66647589  1  0  -0.605261  0  1.872949  0  0  -0.556155  0  2.087229  0  0  -0.583904  0  2.07946  0  0  -0.319553  -0.535599  0  2.09128  0
O  O99  1  0.99868757  0.55692341  0.16647471  1  0  -0.605253  0  1.872838  0  0  -0.556153  0  2.087124  0  0  -0.583902  0  2.079353  0  0  -0.319543  -0.535601  0  2.091169  0
O  O100  1  0.66924298  0.47517881  0.26799644  1  0  -0.608029  0  2.041743  0  0  -0.528824  0  2.297773  0  0  -0.562139  0  2.287031  0  0  -0.341559  -0.505144  0  2.303968  0
O  O101  1  0.33075945  0.52481996  0.76799667  1  0  -0.608038  0  2.041721  0  0  -0.528827  0  2.297743  0  0  -0.562144  0  2.287004  0  0  -0.34158  -0.505149  0  2.303937  0
O  O102  1  0.83075773  0.47517943  0.76799719  1  0  -0.608062  0  2.041693  0  0  -0.528855  0  2.297717  0  0  -0.562172  0  2.286977  0  0  -0.341607  -0.505173  0  2.303914  0
O  O103  1  0.16923974  0.52482043  0.26799649  1  0  -0.608066  0  2.041838  0  0  -0.528859  0  2.297859  0  0  -0.562174  0  2.287116  0  0  -0.341614  -0.505183  0  2.304062  0
