# generated using pymatgen
data_CuH30C26(NO2)4
_symmetry_space_group_name_H-M   'P 1'
_cell_length_a   7.57368204
_cell_length_b   8.88033414
_cell_length_c   10.58117348
_cell_angle_alpha   69.75736234
_cell_angle_beta   75.40364414
_cell_angle_gamma   68.55438505
_symmetry_Int_Tables_number   1
_chemical_formula_structural   CuH30C26(NO2)4
_chemical_formula_sum   'Cu1 H30 C26 N4 O8'
_cell_volume   615.02133450
_cell_formula_units_Z   1
loop_
 _symmetry_equiv_pos_site_id
 _symmetry_equiv_pos_as_xyz
  1  'x, y, z'
loop_
 _atom_site_type_symbol
 _atom_site_label
 _atom_site_symmetry_multiplicity
 _atom_site_fract_x
 _atom_site_fract_y
 _atom_site_fract_z
 _atom_site_occupancy
 _atom_site_hle17_ddec_charge
 _atom_site_hle17_ddec_spin_density
 _atom_site_hle17_ddec_sum_bond_order
 _atom_site_hle17_magmom
 _atom_site_hse06_10hf_ddec_charge
 _atom_site_hse06_10hf_ddec_spin_density
 _atom_site_hse06_10hf_ddec_sum_bond_order
 _atom_site_hse06_10hf_magmom
 _atom_site_hse06_ddec_charge
 _atom_site_hse06_ddec_spin_density
 _atom_site_hse06_ddec_sum_bond_order
 _atom_site_hse06_magmom
 _atom_site_pbe_cm5_charge
 _atom_site_pbe_ddec_charge
 _atom_site_pbe_ddec_spin_density
 _atom_site_pbe_ddec_sum_bond_order
 _atom_site_pbe_magmom
Cu  Cu0  1  0.00000034  0.99999982  0.00000001  1  0.872326  -0.709972  1.773313  -0.53  0.855074  -0.794745  2.144425  -0.649  0.943478  -0.859836  2.083922  -0.735  0.736885  0.801094  -0.74801  2.187624  -0.591
H  H1  1  0.80571421  0.32624771  0.29958533  1  0.30261  -4.6e-05  0.91031  0.0  0.283433  -3.4e-05  0.976128  0.0  0.290707  -2e-05  0.971131  0.0  0.310462  0.278399  -0.000133  0.979397  0.0
H  H2  1  0.19428662  0.67375133  0.70041575  1  0.302587  -4.5e-05  0.910342  0.0  0.283405  -3.4e-05  0.97616  0.0  0.290679  -2e-05  0.971165  0.0  0.310455  0.278372  -0.000133  0.979428  0.0
H  H3  1  0.32578401  0.69752236  0.97514742  1  0.082515  -0.00075  0.961847  -0.002  0.08977  -0.000682  1.028277  -0.001  0.091955  -0.000473  1.026122  -0.001  0.116547  0.088024  -0.000809  1.030143  -0.001
H  H4  1  0.67421819  0.30247668  0.02485341  1  0.082498  -0.000748  0.961865  -0.002  0.089746  -0.000681  1.028298  -0.001  0.091932  -0.000473  1.026142  -0.001  0.116537  0.088003  -0.000809  1.030163  -0.001
H  H5  1  0.38398621  0.38032474  0.05746656  1  0.103925  -0.00077  0.952781  -0.001  0.117682  -0.000631  1.005368  -0.001  0.119926  -0.000441  1.005312  0.0  0.110571  0.115794  -0.000771  1.006026  -0.001
H  H6  1  0.61601143  0.61967556  0.94253380  1  0.103923  -0.000769  0.952757  -0.001  0.117665  -0.000631  1.005371  -0.001  0.119909  -0.000441  1.005316  0.0  0.110548  0.115777  -0.000771  1.006029  -0.001
H  H7  1  0.11552146  0.27153430  0.19556618  1  0.126022  -0.000252  0.957356  -0.001  0.137465  9e-06  1.014989  0.0  0.140455  4.4e-05  1.012582  0.0  0.117918  0.135118  -4e-05  1.017098  0.0
H  H8  1  0.88447758  0.72846601  0.80443580  1  0.126018  -0.000254  0.957364  -0.001  0.137459  9e-06  1.014998  0.0  0.140449  4.3e-05  1.012589  0.0  0.117915  0.13511  -4e-05  1.017105  0.0
H  H9  1  0.75754975  0.78889498  0.14824551  1  0.126357  -0.001127  0.972294  -0.003  0.127348  -0.00083  1.038579  -0.002  0.131064  -0.000547  1.034487  -0.001  0.126938  0.124481  -0.001094  1.041742  -0.002
H  H10  1  0.24245245  0.21110406  0.85175531  1  0.126334  -0.00113  0.97231  -0.003  0.12734  -0.00083  1.038579  -0.002  0.131057  -0.000547  1.034484  -0.001  0.126925  0.124474  -0.001094  1.041741  -0.002
H  H11  1  0.50049200  0.36374173  0.46586738  1  0.101242  -1e-05  0.939654  0.0  0.118765  -2e-06  0.999539  0.0  0.12005  -3e-06  1.000525  0.0  0.101196  0.118404  1e-06  0.997905  0.0
H  H12  1  0.49950700  0.63625856  0.53413178  1  0.101207  -1.1e-05  0.93964  0.0  0.118737  -2e-06  0.999537  0.0  0.120023  -3e-06  1.000523  0.0  0.101197  0.118388  1e-06  0.99789  0.0
H  H13  1  0.44672736  0.35086462  0.31984741  1  0.094354  -2.5e-05  0.950868  0.0  0.110232  -2e-06  1.014202  0.0  0.110923  -7e-06  1.016291  0.0  0.09787  0.110151  -5e-06  1.012144  0.0
H  H14  1  0.55327121  0.64913694  0.68015240  1  0.094322  -2.5e-05  0.950865  0.0  0.110211  -2e-06  1.014196  0.0  0.110902  -7e-06  1.016285  0.0  0.097863  0.110131  -5e-06  1.012137  0.0
H  H15  1  0.18208740  0.62780709  0.30183420  1  0.062285  9.7e-05  0.963384  0.0  0.078368  6.1e-05  1.028496  0.0  0.078273  5.6e-05  1.030809  0.0  0.086373  0.078372  6.5e-05  1.026934  0.0
H  H16  1  0.81791392  0.37219448  0.69816604  1  0.06228  0.000102  0.963356  0.0  0.078363  6.1e-05  1.028478  0.0  0.078268  5.7e-05  1.030791  0.0  0.086364  0.078367  6.5e-05  1.026913  0.0
H  H17  1  0.23137783  0.64210701  0.44937650  1  0.059366  -6e-06  0.940064  0.0  0.077245  -1e-06  1.003638  0.0  0.078008  -3e-06  1.003799  0.0  0.085999  0.076828  2e-06  1.003176  0.0
H  H18  1  0.76862392  0.35789328  0.55062309  1  0.059375  -5e-06  0.940048  0.0  0.077255  -1e-06  1.003623  0.0  0.078018  -3e-06  1.003788  0.0  0.086006  0.076838  2e-06  1.003159  0.0
H  H19  1  0.10778551  0.35619306  0.43354624  1  0.054988  7.6e-05  0.949732  0.0  0.07606  4.3e-05  1.010004  0.0  0.075755  4.2e-05  1.012166  0.0  0.081624  0.076127  4.4e-05  1.008732  0.0
H  H20  1  0.89221446  0.64380852  0.56645520  1  0.055047  8e-05  0.949649  0.0  0.076082  4.3e-05  1.009962  0.0  0.075781  4.3e-05  1.012117  0.0  0.081632  0.07615  4.4e-05  1.008692  0.0
H  H21  1  0.15840661  0.36760413  0.58206264  1  0.059396  6.2e-05  0.948295  0.0  0.078217  4.4e-05  1.010673  0.0  0.078129  3.9e-05  1.012689  0.0  0.083023  0.07816  5e-05  1.009419  0.0
H  H22  1  0.84159384  0.63239996  0.41793701  1  0.059388  6.6e-05  0.948293  0.0  0.078201  4.4e-05  1.010678  0.0  0.078113  3.9e-05  1.012697  0.0  0.083008  0.078145  5e-05  1.009427  0.0
H  H23  1  0.20041143  0.98258395  0.45720260  1  0.10697  3.5e-05  0.95743  0.0  0.112513  2.5e-05  1.025906  0.0  0.116813  1.9e-05  1.022455  0.0  0.102525  0.109269  3e-05  1.028574  0.0
H  H24  1  0.79958572  0.01741383  0.54279766  1  0.107008  3.6e-05  0.957406  0.0  0.112553  2.5e-05  1.025874  0.0  0.116853  1.9e-05  1.022425  0.0  0.102544  0.109308  3e-05  1.028542  0.0
H  H25  1  0.47004967  0.01386395  0.26695608  1  0.110771  -0.000366  0.952919  0.0  0.118781  -0.00024  1.015601  0.0  0.122653  -0.000145  1.012501  0.0  0.105628  0.115605  -0.000321  1.018338  0.0
H  H26  1  0.52994789  0.98613254  0.73304260  1  0.110801  -0.000367  0.952887  0.0  0.118815  -0.000239  1.015565  0.0  0.122689  -0.000145  1.01246  0.0  0.105628  0.115638  -0.000321  1.018302  0.0
H  H27  1  0.14536315  0.02427423  0.18818273  1  0.389608  0.000183  0.932766  0.0  0.359222  0.000185  0.999528  0.0  0.370311  0.000193  0.983212  0.0  0.271894  0.351605  0.000147  1.010702  0.0
H  H28  1  0.85463946  0.97572354  0.81181650  1  0.389667  0.000183  0.932705  0.0  0.359288  0.000185  0.999452  0.0  0.370377  0.000193  0.983136  0.0  0.271911  0.35167  0.000147  1.010627  0.0
H  H29  1  0.33706951  0.88664023  0.15357767  1  0.419507  -1.2e-05  0.881383  0.0  0.395172  1e-06  0.935417  0.0  0.405861  -1e-06  0.919713  0.0  0.285475  0.387869  1e-05  0.946152  0.0
H  H30  1  0.66293034  0.11335752  0.84642020  1  0.419549  -1.2e-05  0.88132  0.0  0.395219  2e-06  0.935347  0.0  0.405906  -1e-06  0.919644  0.0  0.285504  0.387917  1e-05  0.946081  0.0
C  C31  1  0.21471967  0.64106596  0.03544978  1  0.096802  0.010677  3.71524  0.007  0.059186  0.002348  3.987078  0.001  0.06822  0.004005  4.004582  0.003  0.034649  0.052955  0.001232  3.976055  0.0
C  C32  1  0.78527896  0.35893563  0.96455379  1  0.096832  0.010667  3.715157  0.007  0.059232  0.002347  3.986973  0.001  0.068267  0.004002  4.004476  0.003  0.034685  0.053009  0.001232  3.975961  0.0
C  C33  1  0.24517586  0.46789258  0.08235109  1  -0.096516  -0.008989  3.760472  -0.01  -0.108489  -0.003384  4.015348  -0.004  -0.114656  -0.003078  4.037  -0.004  -0.081555  -0.104193  -0.00355  4.001294  -0.004
C  C34  1  0.75482499  0.53210647  0.91765093  1  -0.096466  -0.008993  3.760483  -0.01  -0.108436  -0.003384  4.015356  -0.004  -0.114605  -0.003078  4.037009  -0.004  -0.081507  -0.104139  -0.003549  4.0013  -0.004
C  C35  1  0.09520343  0.40647790  0.15893666  1  -0.104286  0.01324  3.662139  0.008  -0.130559  0.004755  3.910622  0.003  -0.128982  0.005259  3.927797  0.003  -0.070135  -0.131626  0.004491  3.899733  0.002
C  C36  1  0.90479738  0.59352113  0.84106348  1  -0.10428  0.013255  3.662149  0.008  -0.130548  0.004757  3.910636  0.003  -0.128972  0.005259  3.927815  0.003  -0.07013  -0.131612  0.004491  3.899745  0.002
C  C37  1  0.91420089  0.52051635  0.18501131  1  0.215463  -0.00907  3.769973  -0.01  0.214351  -0.003549  4.015071  -0.005  0.217958  -0.003131  4.036299  -0.004  0.10944  0.211237  -0.003884  4.001669  -0.005
C  C38  1  0.08579991  0.47948268  0.81498789  1  0.215434  -0.009077  3.770033  -0.01  0.214312  -0.00355  4.015132  -0.005  0.217919  -0.003131  4.036359  -0.004  0.109405  0.211192  -0.003884  4.001732  -0.005
C  C39  1  0.89334349  0.69385711  0.13316030  1  0.036422  0.01144  3.608673  0.008  0.002253  0.002718  3.864308  0.002  0.009972  0.004347  3.878669  0.003  0.046299  -0.002841  0.00148  3.85548  0.001
C  C40  1  0.10665731  0.30614192  0.86683890  1  0.036421  0.011453  3.608702  0.008  0.002245  0.002723  3.864314  0.002  0.009965  0.004345  3.878674  0.003  0.046296  -0.002837  0.00148  3.855491  0.001
C  C41  1  0.57366165  0.54417072  0.28144838  1  0.597854  -0.000409  3.746607  0.0  0.552746  -0.000105  4.041043  0.0  0.581004  -0.000131  4.041061  0.0  0.249542  0.534072  -8.5e-05  4.040424  0.0
C  C42  1  0.42634008  0.45582957  0.71855027  1  0.597823  -0.000417  3.746547  0.0  0.55272  -0.000107  4.040992  0.0  0.58098  -0.00013  4.041008  0.0  0.249535  0.534042  -8.5e-05  4.040366  0.0
C  C43  1  0.44200085  0.44226635  0.37038666  1  -0.264396  4.6e-05  3.696969  0.0  -0.304552  1.3e-05  3.947043  0.0  -0.309775  1.4e-05  3.957637  0.0  -0.164358  -0.301447  -9e-06  3.939789  0.0
C  C44  1  0.55799908  0.55773520  0.62961195  1  -0.264293  5.4e-05  3.696853  0.0  -0.30447  1.5e-05  3.946971  0.0  -0.309696  1.3e-05  3.957564  0.0  -0.164352  -0.301376  -9e-06  3.939718  0.0
C  C45  1  0.23553195  0.55099099  0.39887043  1  -0.087168  7.6e-05  3.704693  0.0  -0.127196  6.9e-05  3.965323  0.0  -0.127043  6.6e-05  3.978685  0.0  -0.171631  -0.127246  5.9e-05  3.956423  0.0
C  C46  1  0.76446756  0.44901183  0.60112883  1  -0.087159  6.4e-05  3.704614  0.0  -0.127181  6.8e-05  3.965258  0.0  -0.127025  6.6e-05  3.978621  0.0  -0.171617  -0.127234  5.9e-05  3.95636  0.0
C  C47  1  0.10353027  0.44619132  0.48534830  1  -0.10507  8.2e-05  3.686389  0.0  -0.143026  7.6e-05  3.944317  0.0  -0.143949  6.8e-05  3.959251  0.0  -0.170239  -0.142343  7.9e-05  3.934458  0.0
C  C48  1  0.89646880  0.55381276  0.51465067  1  -0.10508  6.3e-05  3.686267  0.0  -0.143006  7.5e-05  3.94419  0.0  -0.143938  6.9e-05  3.959133  0.0  -0.170202  -0.142321  7.9e-05  3.934333  0.0
C  C49  1  0.18920245  0.95729470  0.72078366  1  0.631918  0.006153  3.895466  0.006  0.585422  0.000666  4.198655  0.001  0.622754  0.001121  4.19084  0.001  0.209547  0.560383  1.7e-05  4.20225  0.001
C  C50  1  0.81079701  0.04270434  0.27921767  1  0.631921  0.006143  3.895423  0.006  0.585418  0.000664  4.198619  0.001  0.62275  0.001121  4.190805  0.001  0.209571  0.560381  1.6e-05  4.20222  0.001
C  C51  1  0.34974076  0.98138226  0.60658214  1  -0.067668  -0.008597  3.764929  -0.01  -0.046034  -0.004927  3.998418  -0.006  -0.052917  -0.003322  4.020304  -0.004  -0.019514  -0.04156  -0.006245  3.983745  -0.007
C  C52  1  0.65025862  0.01861299  0.39341845  1  -0.06769  -0.008581  3.764977  -0.01  -0.046035  -0.004925  3.998437  -0.006  -0.052916  -0.003328  4.020322  -0.004  -0.019545  -0.041563  -0.006245  3.983769  -0.007
C  C53  1  0.33232509  0.98974034  0.47519978  1  -0.079086  -0.000147  3.730809  -0.001  -0.105051  -0.000364  3.988414  -0.001  -0.106071  -0.000169  4.00776  0.0  -0.086156  -0.104171  -0.000578  3.974951  -0.001
C  C54  1  0.66767385  0.01025616  0.52479958  1  -0.079129  -0.000163  3.730874  -0.001  -0.105097  -0.000366  3.988473  -0.001  -0.106118  -0.00016  4.007818  0.0  -0.086155  -0.104215  -0.000578  3.975005  -0.001
C  C55  1  0.48208182  0.00785021  0.36922452  1  -0.071638  0.000486  3.716948  0.0  -0.095076  7.6e-05  3.969693  0.0  -0.095194  0.000209  3.988498  0.0  -0.084794  -0.095403  -9.8e-05  3.956671  0.0
C  C56  1  0.51791804  0.99214755  0.63077429  1  -0.071644  0.000505  3.716919  0.0  -0.095088  7.8e-05  3.969673  0.0  -0.095205  0.000199  3.988477  0.0  -0.084793  -0.095414  -9.8e-05  3.956643  0.0
N  N57  1  0.04196328  0.74997994  0.06206867  1  -0.27258  -0.074942  3.368721  -0.096  -0.224614  -0.049558  3.663118  -0.068  -0.254922  -0.039807  3.687727  -0.059  -0.34678  -0.206173  -0.055475  3.648604  -0.073
N  N58  1  0.95803849  0.25002037  0.93793280  1  -0.272614  -0.074942  3.368567  -0.096  -0.224646  -0.049562  3.662942  -0.068  -0.254955  -0.039805  3.687548  -0.059  -0.346804  -0.206234  -0.055477  3.648466  -0.073
N  N59  1  0.76496963  0.45560712  0.26235668  1  -0.457512  -0.000816  3.336414  -0.001  -0.402859  -0.000535  3.577901  -0.001  -0.425668  -0.000405  3.589034  0.0  -0.396506  -0.387212  -0.000552  3.570304  -0.001
N  N60  1  0.23503076  0.54439318  0.73764411  1  -0.457494  -0.000817  3.336488  -0.001  -0.402812  -0.000535  3.577941  -0.001  -0.425619  -0.000405  3.589069  0.0  -0.396507  -0.387171  -0.000552  3.57036  -0.001
O  O61  1  0.51327924  0.69842983  0.22890154  1  -0.550392  -0.000576  1.989145  -0.001  -0.492047  -0.000236  2.20467  0.0  -0.51482  -0.000184  2.199229  0.0  -0.271912  -0.476607  -0.000261  2.207374  0.0
O  O62  1  0.48672156  0.30156920  0.77109765  1  -0.550352  -0.000572  1.989093  -0.001  -0.492029  -0.000236  2.204637  0.0  -0.514805  -0.000185  2.199199  0.0  -0.271897  -0.476589  -0.000261  2.207336  0.0
O  O63  1  0.05957862  0.91179856  0.70159065  1  -0.62962  -0.000576  1.975842  -0.002  -0.575825  -3e-06  2.197871  -0.001  -0.600762  0.000827  2.187303  0.0  -0.316762  -0.558673  -0.000551  2.20448  -0.002
O  O64  1  0.94041860  0.08820301  0.29841036  1  -0.629577  -0.000576  1.975861  -0.002  -0.575793  -2e-06  2.197893  -0.001  -0.600732  0.000826  2.187328  0.0  -0.316762  -0.558639  -0.000551  2.204504  -0.002
O  O65  1  0.19808739  0.98250000  0.83079557  1  -0.589324  -0.080955  2.101091  -0.112  -0.564084  -0.04929  2.382971  -0.075  -0.606746  -0.035631  2.377273  -0.059  -0.311059  -0.535157  -0.059218  2.386227  -0.085
O  O66  1  0.80191437  0.01750030  0.16920496  1  -0.589397  -0.080941  2.101018  -0.112  -0.564085  -0.04929  2.382906  -0.075  -0.606749  -0.03563  2.377215  -0.059  -0.31107  -0.535159  -0.059216  2.386166  -0.085
O  O67  1  0.24824973  0.99647829  0.11281836  1  -0.8393  0.000767  1.806276  -0.001  -0.80241  0.000656  1.970284  -0.001  -0.821076  0.001112  1.936498  0.0  -0.610571  -0.788796  -2.4e-05  1.993896  -0.001
O  O68  1  0.75174833  0.00352074  0.88718041  1  -0.839402  0.000768  1.806171  -0.001  -0.802522  0.000657  1.970185  -0.001  -0.821191  0.001111  1.936414  0.0  -0.610618  -0.788911  -2.4e-05  1.9938  -0.001
