# generated using pymatgen
data_Cu2H15C22N3O4
_symmetry_space_group_name_H-M   'P 1'
_cell_length_a   7.21796053
_cell_length_b   11.57450888
_cell_length_c   25.54173610
_cell_angle_alpha   89.99929320
_cell_angle_beta   90.00070458
_cell_angle_gamma   103.23754293
_symmetry_Int_Tables_number   1
_chemical_formula_structural   Cu2H15C22N3O4
_chemical_formula_sum   'Cu8 H60 C88 N12 O16'
_cell_volume   2077.16884045
_cell_formula_units_Z   4
loop_
 _symmetry_equiv_pos_site_id
 _symmetry_equiv_pos_as_xyz
  1  'x, y, z'
loop_
 _atom_site_type_symbol
 _atom_site_label
 _atom_site_symmetry_multiplicity
 _atom_site_fract_x
 _atom_site_fract_y
 _atom_site_fract_z
 _atom_site_occupancy
 _atom_site_pbe_bader_charge
 _atom_site_pbe_bader_spin_density
 _atom_site_pbe_cm5_charge
 _atom_site_pbe_ddec_charge
 _atom_site_pbe_ddec_spin_density
 _atom_site_pbe_ddec_sum_bond_order
 _atom_site_pbe_magmom
Cu  Cu0  1  0.13706930  0.30820027  0.90790403  1  0.631578  0  0.491889  0.378689  0  2.040729  0
Cu  Cu1  1  0.86293694  0.19179559  0.40790276  1  0.631588  0  0.491873  0.378702  0  2.040743  0
Cu  Cu2  1  0.86292564  0.69179466  0.09209596  1  0.63169  0  0.491886  0.378772  0  2.040586  0
Cu  Cu3  1  0.13707932  0.80821625  0.59209409  1  0.631833  0  0.491866  0.378823  0  2.040472  0
Cu  Cu4  1  0.87433718  0.82659674  0.83306796  1  0.601351  0  0.46811  0.363409  0  1.995819  0
Cu  Cu5  1  0.12565665  0.67339605  0.33306858  1  0.601439  0  0.468104  0.363384  0  1.995638  0
Cu  Cu6  1  0.12566245  0.17340352  0.16693202  1  0.601324  0  0.468132  0.363427  0  1.995854  0
Cu  Cu7  1  0.87433637  0.32659355  0.66693414  1  0.60158  0  0.468104  0.363347  0  1.995755  0
H  H8  1  0.74304787  0.37369155  0.81174971  1  0.106245  0  0.104428  0.115009  0  1.013274  0
H  H9  1  0.25694960  0.12631097  0.31174320  1  0.106243  0  0.104414  0.115068  0  1.013223  0
H  H10  1  0.25694685  0.62631047  0.18824870  1  0.10623  0  0.104421  0.115004  0  1.013376  0
H  H11  1  0.74305066  0.87369106  0.68824660  1  0.106257  0  0.104409  0.114949  0  1.013356  0
H  H12  1  0.41858552  0.04298553  0.87206975  1  0.122823  0  0.105728  0.115963  0  1.011677  0
H  H13  1  0.58142883  0.45701031  0.37206376  1  0.123048  0  0.105742  0.115832  0  1.011644  0
H  H14  1  0.58142531  0.95701123  0.12793063  1  0.122848  0  0.105739  0.115918  0  1.011733  0
H  H15  1  0.41858776  0.54299089  0.62792370  1  0.123144  0  0.105696  0.115869  0  1.011726  0
H  H16  1  0.16027695  0.24174800  0.76297752  1  0.066444  0  0.103289  0.108565  0  1.015743  0
H  H17  1  0.83972711  0.25824417  0.26297739  1  0.066816  0  0.1033  0.108538  0  1.015773  0
H  H18  1  0.83971297  0.75825223  0.23702442  1  0.066544  0  0.103287  0.108565  0  1.01571  0
H  H19  1  0.16026666  0.74174367  0.73701241  1  0.067072  0  0.103273  0.108572  0  1.015812  0
H  H20  1  0.59041130  0.43773411  0.72222091  1  0.116017  0  0.117281  0.10895  0  0.995932  0
H  H21  1  0.40958437  0.06225899  0.22221879  1  0.115963  0  0.117254  0.108982  0  0.995808  0
H  H22  1  0.40957894  0.56226701  0.27777946  1  0.115763  0  0.117225  0.108855  0  0.995983  0
H  H23  1  0.59040375  0.93772085  0.77777845  1  0.115766  0  0.1173  0.108997  0  0.995911  0
H  H24  1  0.34019949  0.42284367  0.72613999  1  0.097456  0  0.113059  0.106338  0  0.99999  0
H  H25  1  0.65980636  0.07715026  0.22614256  1  0.097462  0  0.113048  0.106401  0  0.999971  0
H  H26  1  0.65979043  0.57715657  0.27386077  1  0.097527  0  0.113062  0.106322  0  1.000136  0
H  H27  1  0.34019596  0.92283050  0.77385508  1  0.097542  0  0.113067  0.106367  0  1.000151  0
H  H28  1  0.80002051  0.60744955  0.76156701  1  0.256872  0  0.139575  0.130738  0  1.053964  0
H  H29  1  0.19997045  0.89254403  0.26156672  1  0.256758  0  0.139557  0.130717  0  1.054054  0
H  H30  1  0.19996472  0.39254535  0.23843219  1  0.256734  0  0.139568  0.13072  0  1.054098  0
H  H31  1  0.80002290  0.10744646  0.73843522  1  0.256927  0  0.13962  0.130723  0  1.053968  0
H  H32  1  0.10858744  0.44391093  0.80853723  1  0.131421  0  0.108897  0.12835  0  1.009968  0
H  H33  1  0.89141589  0.05608903  0.30853404  1  0.13138  0  0.108874  0.128336  0  1.009991  0
H  H34  1  0.89139713  0.55610525  0.19146902  1  0.131011  0  0.108999  0.128687  0  1.009711  0
H  H35  1  0.10859379  0.94388910  0.69146046  1  0.1311  0  0.108956  0.128568  0  1.009772  0
H  H36  1  0.95463399  0.55461706  0.87178193  1  0.080977  0  0.095334  0.097273  0  1.028151  0
H  H37  1  0.04536901  0.94538105  0.37178357  1  0.080947  0  0.095324  0.097346  0  1.028108  0
H  H38  1  0.04537170  0.44540006  0.12822667  1  0.081183  0  0.095397  0.097432  0  1.027926  0
H  H39  1  0.95463395  0.05460149  0.62821563  1  0.081088  0  0.09536  0.097391  0  1.028022  0
H  H40  1  0.13015713  0.74624981  0.90964157  1  0.070738  0  0.097082  0.095345  0  1.014794  0
H  H41  1  0.86984326  0.75375184  0.40964861  1  0.070149  0  0.097095  0.095366  0  1.01482  0
H  H42  1  0.86986979  0.25376473  0.09036546  1  0.070201  0  0.097044  0.095294  0  1.014869  0
H  H43  1  0.13013567  0.24624481  0.59035842  1  0.070258  0  0.097084  0.095332  0  1.014819  0
H  H44  1  0.47364087  0.82815530  0.88901139  1  0.124202  0  0.110441  0.1261  0  0.988863  0
H  H45  1  0.52636925  0.67184509  0.38901809  1  0.123939  0  0.110468  0.126148  0  0.988781  0
H  H46  1  0.52638500  0.17184859  0.11098976  1  0.124042  0  0.110453  0.126107  0  0.988828  0
H  H47  1  0.47361235  0.32815512  0.61099168  1  0.12382  0  0.110492  0.12612  0  0.988838  0
H  H48  1  0.41312388  0.52435748  0.91327905  1  0.099621  0  0.109577  0.076792  0  1.068043  0
H  H49  1  0.58686491  0.97564227  0.41327572  1  0.099558  0  0.10955  0.076719  0  1.068071  0
H  H50  1  0.58688110  0.47562684  0.08672054  1  0.099881  0  0.109562  0.076728  0  1.067934  0
H  H51  1  0.41314300  0.02439259  0.58671487  1  0.100007  0  0.109547  0.076662  0  1.068056  0
H  H52  1  0.74349796  0.58848528  0.94399387  1  0.089035  0  0.110239  0.119171  0  0.993469  0
H  H53  1  0.25649022  0.91152439  0.44398663  1  0.08903  0  0.11022  0.119211  0  0.993498  0
H  H54  1  0.25648964  0.41148924  0.05601120  1  0.089044  0  0.110228  0.119276  0  0.993553  0
H  H55  1  0.74352783  0.08851937  0.55600552  1  0.088782  0  0.110223  0.119204  0  0.993542  0
H  H56  1  0.69926879  0.23039646  0.00056475  1  0.111208  0  0.11786  0.133179  0  0.973828  0
H  H57  1  0.30074362  0.26960103  0.50056287  1  0.111194  0  0.117879  0.133245  0  0.973811  0
H  H58  1  0.30067932  0.76958769  0.99944736  1  0.110975  0  0.117844  0.133083  0  0.973954  0
H  H59  1  0.69930848  0.73041801  0.49944416  1  0.111066  0  0.117867  0.133192  0  0.973924  0
H  H60  1  0.36925661  0.17985499  0.96676451  1  0.089784  0  0.129955  0.106797  0  0.95929  0
H  H61  1  0.63074896  0.32013947  0.46676372  1  0.08982  0  0.12994  0.106746  0  0.959391  0
H  H62  1  0.63069769  0.82013095  0.03323978  1  0.088864  0  0.129834  0.106545  0  0.959398  0
H  H63  1  0.36928927  0.67987953  0.53323979  1  0.089063  0  0.12985  0.106567  0  0.959468  0
H  H64  1  0.99553072  0.36896679  0.01258678  1  0.056229  0  0.101504  0.093242  0  1.032933  0
H  H65  1  0.00447294  0.13103571  0.51258110  1  0.05656  0  0.101525  0.093257  0  1.033048  0
H  H66  1  0.00442488  0.63099965  0.98742455  1  0.056058  0  0.101544  0.093352  0  1.033013  0
H  H67  1  0.99556997  0.86900015  0.48741809  1  0.055965  0  0.101537  0.093282  0  1.033157  0
C  C68  1  0.45285810  0.32088519  0.78382683  1  -0.058777  0  -0.018976  0.07773  0  3.998555  0
C  C69  1  0.54714308  0.17911180  0.28382141  1  -0.058795  0  -0.018934  0.07783  0  3.998366  0
C  C70  1  0.54712596  0.67911414  0.21617276  1  -0.058392  0  -0.018968  0.077776  0  3.998153  0
C  C71  1  0.45286434  0.82088317  0.71616760  1  -0.05878  0  -0.018924  0.077836  0  3.998048  0
C  C72  1  0.60927805  0.30704776  0.81343397  1  -0.044348  0  -0.082863  -0.135442  0  3.918977  0
C  C73  1  0.39072664  0.19294765  0.31343030  1  -0.044414  0  -0.082858  -0.1355  0  3.918977  0
C  C74  1  0.39071678  0.69295071  0.18656288  1  -0.044478  0  -0.082895  -0.135459  0  3.918923  0
C  C75  1  0.60927822  0.80705174  0.68655794  1  -0.044325  0  -0.082891  -0.13555  0  3.918634  0
C  C76  1  0.59800894  0.20768198  0.84549233  1  -0.024323  0  -0.020555  -0.024662  0  3.966258  0
C  C77  1  0.40199209  0.29231090  0.34548778  1  -0.024202  0  -0.020581  -0.024855  0  3.96637  0
C  C78  1  0.40199164  0.79232095  0.15450726  1  -0.024494  0  -0.020573  -0.024802  0  3.966069  0
C  C79  1  0.59801224  0.70768317  0.65450242  1  -0.024279  0  -0.020549  -0.024521  0  3.96566  0
C  C80  1  0.42750971  0.12101186  0.84756809  1  -0.061703  0  -0.07826  -0.114866  0  3.942585  0
C  C81  1  0.57249429  0.37897743  0.34756444  1  -0.061776  0  -0.078248  -0.114692  0  3.942383  0
C  C82  1  0.57249835  0.87898488  0.15243111  1  -0.061687  0  -0.078266  -0.114809  0  3.942685  0
C  C83  1  0.42750588  0.62101663  0.65242497  1  -0.061989  0  -0.078241  -0.114869  0  3.942435  0
C  C84  1  0.27014217  0.13356262  0.81797857  1  -0.042014  0  -0.025147  -0.048471  0  4.0181  0
C  C85  1  0.72986236  0.36643180  0.31797474  1  -0.04181  0  -0.025214  -0.048441  0  4.017781  0
C  C86  1  0.72985671  0.86643941  0.18202298  1  -0.041966  0  -0.02525  -0.048635  0  4.018123  0
C  C87  1  0.27013781  0.63356226  0.68201310  1  -0.042429  0  -0.025218  -0.048519  0  4.018381  0
C  C88  1  0.28358126  0.23420470  0.78632621  1  0.012202  0  -0.08177  -0.143589  0  3.956798  0
C  C89  1  0.71642032  0.26579312  0.28632248  1  0.011391  0  -0.081697  -0.143471  0  3.956579  0
C  C90  1  0.71640545  0.76579818  0.21367691  1  0.012097  0  -0.0817  -0.143475  0  3.95643  0
C  C91  1  0.28358230  0.73420006  0.71366850  1  0.011519  0  -0.081794  -0.143681  0  3.956912  0
C  C92  1  0.46981568  0.42877691  0.74940565  1  0.265701  0  -0.04513  -0.103233  0  3.865835  0
C  C93  1  0.53018374  0.07121556  0.24940389  1  0.265949  0  -0.04515  -0.103449  0  3.865773  0
C  C94  1  0.53017456  0.57122421  0.25059512  1  0.265483  0  -0.045081  -0.103156  0  3.865824  0
C  C95  1  0.46981697  0.92877229  0.75059061  1  0.265718  0  -0.045153  -0.103333  0  3.866057  0
C  C96  1  0.67640670  0.61649492  0.78443405  1  0.947774  0  0.158879  0.124773  0  3.857737  0
C  C97  1  0.32358881  0.88350080  0.28443423  1  0.94786  0  0.158929  0.124789  0  3.857519  0
C  C98  1  0.32358643  0.38350266  0.21556710  1  0.947859  0  0.158932  0.124874  0  3.857791  0
C  C99  1  0.67640367  0.11649501  0.71556927  1  0.947674  0  0.158806  0.124755  0  3.857585  0
C  C100  1  0.48302503  0.68102846  0.83714571  1  0.324632  0  0.081179  0.135519  0  4.054251  0
C  C101  1  0.51697236  0.81896602  0.33714728  1  0.324655  0  0.081208  0.135571  0  4.054222  0
C  C102  1  0.51697321  0.31897180  0.16285623  1  0.324673  0  0.081176  0.13553  0  4.054309  0
C  C103  1  0.48301980  0.18102890  0.66285505  1  0.324723  0  0.081143  0.135515  0  4.054148  0
C  C104  1  0.37892161  0.57477089  0.81377505  1  0.325788  0  0.092334  0.087713  0  4.000366  0
C  C105  1  0.62108082  0.92522504  0.31377523  1  0.32611  0  0.092294  0.087634  0  4.000291  0
C  C106  1  0.62106884  0.42523466  0.18622572  1  0.325662  0  0.092315  0.087791  0  4.000362  0
C  C107  1  0.37892533  0.07476637  0.68622357  1  0.326174  0  0.092381  0.087836  0  4.000149  0
C  C108  1  0.18831940  0.52633140  0.82577756  1  -0.035187  0  -0.094454  -0.158793  0  3.996147  0
C  C109  1  0.81168398  0.97366957  0.32577853  1  -0.035145  0  -0.094369  -0.158663  0  3.996057  0
C  C110  1  0.81167467  0.47368037  0.17422830  1  -0.035512  0  -0.094683  -0.159466  0  3.996401  0
C  C111  1  0.18832516  0.02631476  0.67422145  1  -0.035076  0  -0.094634  -0.159201  0  3.996182  0
C  C112  1  0.10303362  0.58986527  0.86120357  1  -0.020805  0  -0.101208  -0.101713  0  4.041751  0
C  C113  1  0.89696707  0.91013929  0.36120792  1  -0.020893  0  -0.101201  -0.101819  0  4.041845  0
C  C114  1  0.89697591  0.41015098  0.13880541  1  -0.020498  0  -0.101158  -0.101626  0  4.042092  0
C  C115  1  0.10302905  0.08985121  0.63879833  1  -0.021042  0  -0.101089  -0.101693  0  4.041789  0
C  C116  1  0.20379303  0.69758055  0.88334722  1  -0.024815  0  -0.101564  -0.099008  0  4.058092  0
C  C117  1  0.79621091  0.80242261  0.38335179  1  -0.024567  0  -0.101549  -0.098971  0  4.058283  0
C  C118  1  0.79622942  0.30243308  0.11665981  1  -0.024655  0  -0.101438  -0.098903  0  4.058264  0
C  C119  1  0.20377336  0.19756962  0.61665250  1  -0.024454  0  -0.101528  -0.098974  0  4.058133  0
C  C120  1  0.39521154  0.74470694  0.87204122  1  -0.093933  0  -0.092488  -0.155478  0  3.964792  0
C  C121  1  0.60479104  0.75529382  0.37204578  1  -0.093506  0  -0.092577  -0.155653  0  3.96495  0
C  C122  1  0.60480879  0.25529693  0.12796425  1  -0.093371  0  -0.092568  -0.155559  0  3.964802  0
C  C123  1  0.39518821  0.24470372  0.62796164  1  -0.09322  0  -0.092635  -0.155592  0  3.964744  0
C  C124  1  0.76613822  0.19483317  0.87816545  1  1.568466  0  0.191609  0.562473  0  4.22303  0
C  C125  1  0.23386567  0.30517136  0.37816143  1  1.5684  0  0.191574  0.562462  0  4.223368  0
C  C126  1  0.23386619  0.80518041  0.12183140  1  1.569069  0  0.191751  0.562728  0  4.223287  0
C  C127  1  0.76613791  0.69482449  0.62182916  1  1.568804  0  0.191696  0.562577  0  4.223162  0
C  C128  1  0.09079419  0.03797380  0.81643046  1  1.548359  0  0.192852  0.55741  0  4.203017  0
C  C129  1  0.90921733  0.46201713  0.31642948  1  1.548852  0  0.192838  0.557161  0  4.202987  0
C  C130  1  0.90920191  0.96202822  0.18357344  1  1.548251  0  0.192853  0.557425  0  4.203091  0
C  C131  1  0.09079127  0.53797341  0.68356385  1  1.548339  0  0.192973  0.557495  0  4.203191  0
C  C132  1  0.48221871  0.46193208  0.93270792  1  0.441661  0  0.032083  0.077134  0  3.947182  0
C  C133  1  0.51777710  0.03807025  0.43270277  1  0.441815  0  0.032089  0.077271  0  3.947241  0
C  C134  1  0.51777251  0.53804865  0.06729245  1  0.442529  0  0.032091  0.077452  0  3.946935  0
C  C135  1  0.48223977  0.96196642  0.56728703  1  0.441488  0  0.032222  0.077524  0  3.947035  0
C  C136  1  0.66744795  0.49687278  0.95044069  1  0.006458  0  -0.079902  -0.154428  0  3.903199  0
C  C137  1  0.33254913  0.00313091  0.45043666  1  0.006263  0  -0.079871  -0.154475  0  3.903541  0
C  C138  1  0.33253794  0.50310084  0.04956555  1  0.004965  0  -0.079935  -0.154622  0  3.903641  0
C  C139  1  0.66747393  0.99690755  0.54955823  1  0.00594  0  -0.07987  -0.154395  0  3.903347  0
C  C140  1  0.75266441  0.41511504  0.97656731  1  0.033074  0  0.009491  0.148447  0  4.006281  0
C  C141  1  0.24733745  0.08488717  0.47656490  1  0.033284  0  0.009451  0.148306  0  4.006376  0
C  C142  1  0.24730900  0.58485855  0.02344128  1  0.032851  0  0.009486  0.14815  0  4.006675  0
C  C143  1  0.75269170  0.91514510  0.52343469  1  0.033032  0  0.009473  0.148158  0  4.006532  0
C  C144  1  0.64067396  0.29908586  0.98224206  1  -0.021273  0  -0.071266  -0.148904  0  3.909669  0
C  C145  1  0.35933472  0.20091535  0.48223981  1  -0.021185  0  -0.071246  -0.148895  0  3.909565  0
C  C146  1  0.35929230  0.70089480  0.01776183  1  -0.020645  0  -0.071268  -0.148764  0  3.909446  0
C  C147  1  0.64070084  0.79911163  0.51775821  1  -0.020831  0  -0.071266  -0.148906  0  3.909404  0
C  C148  1  0.45622082  0.26973637  0.96325526  1  0.460896  0  0.045194  0.08448  0  3.932563  0
C  C149  1  0.54378590  0.23026172  0.46325191  1  0.460519  0  0.045215  0.084596  0  3.932501  0
C  C150  1  0.54374191  0.73024604  0.03675060  1  0.462868  0  0.045266  0.084788  0  3.932384  0
C  C151  1  0.45625104  0.76976525  0.53674807  1  0.462331  0  0.045243  0.084804  0  3.932472  0
C  C152  1  0.94397432  0.44447257  0.99789227  1  -0.006821  0  -0.083135  -0.135034  0  4.00445  0
C  C153  1  0.05603044  0.05552736  0.49789210  1  -0.007102  0  -0.083141  -0.135008  0  4.004451  0
C  C154  1  0.05599302  0.55549567  0.00211829  1  -0.087328  0  -0.082964  -0.134513  0  4.004351  0
C  C155  1  0.94400992  0.94450140  0.50211649  1  -0.087276  0  -0.082931  -0.134397  0  4.0043  0
N  N156  1  0.37532319  0.34966887  0.93865086  1  -1.236063  0  -0.393343  -0.22792  0  3.797692  0
N  N157  1  0.62467988  0.15032979  0.43864900  1  -1.235939  0  -0.393359  -0.228036  0  3.797632  0
N  N158  1  0.62465373  0.65031448  0.06134951  1  -1.236876  0  -0.393269  -0.228101  0  3.797804  0
N  N159  1  0.37535066  0.84970248  0.56134628  1  -1.236439  0  -0.393451  -0.228397  0  3.798051  0
N  N160  1  0.66946978  0.70351654  0.81835829  1  -1.221569  0  -0.419213  -0.342671  0  3.807812  0
N  N161  1  0.33052662  0.79647750  0.31835973  1  -1.221688  0  -0.419229  -0.342651  0  3.807615  0
N  N162  1  0.33052719  0.29648017  0.18164326  1  -1.221624  0  -0.41926  -0.342741  0  3.807924  0
N  N163  1  0.66946309  0.20351830  0.68164456  1  -1.22149  0  -0.419144  -0.342563  0  3.807679  0
N  N164  1  0.50589310  0.53786846  0.78041897  1  -1.221404  0  -0.235229  -0.001263  0  3.714602  0
N  N165  1  0.49410611  0.96212648  0.28041971  1  -1.221435  0  -0.235237  -0.001218  0  3.714557  0
N  N166  1  0.49409682  0.46213178  0.21958179  1  -1.220972  0  -0.235232  -0.001332  0  3.714703  0
N  N167  1  0.50589694  0.03786404  0.71957910  1  -1.221445  0  -0.235236  -0.001261  0  3.714522  0
O  O168  1  0.91195352  0.28541581  0.87275040  1  -1.148487  0  -0.373123  -0.534356  0  2.537248  0
O  O169  1  0.08805136  0.21458441  0.37275145  1  -1.14846  0  -0.373177  -0.534445  0  2.537472  0
O  O170  1  0.08805080  0.71458979  0.12724606  1  -1.148602  0  -0.373248  -0.534591  0  2.537435  0
O  O171  1  0.91194859  0.78541674  0.62724226  1  -1.14857  0  -0.373247  -0.534545  0  2.537213  0
O  O172  1  0.75736853  0.10819359  0.90745185  1  -1.16075  0  -0.342177  -0.559985  0  2.081849  0
O  O173  1  0.24264495  0.39181471  0.40744035  1  -1.16077  0  -0.342097  -0.55983  0  2.08209  0
O  O174  1  0.24264732  0.89180939  0.09254696  1  -1.161058  0  -0.342121  -0.559902  0  2.082289  0
O  O175  1  0.75736108  0.60819178  0.59254554  1  -1.161028  0  -0.342089  -0.559888  0  2.082297  0
O  O176  1  0.09235027  0.94419038  0.84448605  1  -1.134916  0  -0.364096  -0.517167  0  2.462589  0
O  O177  1  0.90764578  0.55579949  0.34448409  1  -1.135322  0  -0.364038  -0.516983  0  2.462436  0
O  O178  1  0.90765074  0.05580989  0.15551589  1  -1.134815  0  -0.364065  -0.517104  0  2.462526  0
O  O179  1  0.09235173  0.44417949  0.65551589  1  -1.135186  0  -0.36414  -0.517171  0  2.462552  0
O  O180  1  0.95498365  0.04855978  0.78773065  1  -1.189561  0  -0.324042  -0.552809  0  2.214838  0
O  O181  1  0.04502994  0.45143272  0.28773304  1  -1.189763  0  -0.324106  -0.552748  0  2.21482  0
O  O182  1  0.04499688  0.95144131  0.21227638  1  -1.189503  0  -0.324056  -0.552863  0  2.215034  0
O  O183  1  0.95498900  0.54857115  0.71226029  1  -1.18939  0  -0.324069  -0.552791  0  2.214911  0
