# generated using pymatgen
data_CoH7C12(NO2)2
_symmetry_space_group_name_H-M   'P 1'
_cell_length_a   6.95779288
_cell_length_b   13.17711932
_cell_length_c   17.55123640
_cell_angle_alpha   90.05019443
_cell_angle_beta   89.99692492
_cell_angle_gamma   90.00043883
_symmetry_Int_Tables_number   1
_chemical_formula_structural   CoH7C12(NO2)2
_chemical_formula_sum   'Co4 H28 C48 N8 O16'
_cell_volume   1609.16109369
_cell_formula_units_Z   4
loop_
 _symmetry_equiv_pos_site_id
 _symmetry_equiv_pos_as_xyz
  1  'x, y, z'
loop_
 _atom_site_type_symbol
 _atom_site_label
 _atom_site_symmetry_multiplicity
 _atom_site_fract_x
 _atom_site_fract_y
 _atom_site_fract_z
 _atom_site_occupancy
 _atom_site_pbe_bader_charge
 _atom_site_pbe_bader_spin_density
 _atom_site_pbe_cm5_charge
 _atom_site_pbe_ddec_charge
 _atom_site_pbe_ddec_spin_density
 _atom_site_pbe_ddec_sum_bond_order
 _atom_site_pbe_magmom
Co  Co0  1  0.49967991  0.04021989  0.88257664  1  1.336542  2.606883  0.696458  0.885769  2.867317  2.618567  2.585
Co  Co1  1  0.49969919  0.95975917  0.11741815  1  1.336408  -2.606589  0.696428  0.885755  -3.018354  2.617459  -2.585
Co  Co2  1  0.50013110  0.54135714  0.61733161  1  1.337387  2.610842  0.695213  0.885917  2.868619  2.609827  2.59
Co  Co3  1  0.50012472  0.45862571  0.38266773  1  1.337264  2.61114  0.695018  0.885942  2.86892  2.608777  2.591
H  H4  1  0.49770085  0.23425897  0.17613905  1  0.133794  0.000383  0.110275  0.126978  0.000279  1.004389  0.0
H  H5  1  0.49768130  0.76574737  0.82381306  1  0.133211  0.000891  0.110289  0.127063  0.000499  1.004264  0.0
H  H6  1  0.50048859  0.73482082  0.32313944  1  0.126705  -0.000433  0.11054  0.127235  -0.000354  1.003632  0.0
H  H7  1  0.50052177  0.26515752  0.67692598  1  0.125409  0.000838  0.110641  0.12737  0.000457  1.003586  0.0
H  H8  1  0.50552770  0.55300766  0.13015202  1  0.11161  0.000703  0.107022  0.116073  0.000455  1.014711  0.0
H  H9  1  0.50551028  0.44701084  0.86976232  1  0.110612  0.000753  0.107047  0.116254  0.000474  1.014559  0.0
H  H10  1  0.49942557  0.05343341  0.36999372  1  0.107738  -0.000868  0.10734  0.116679  -0.00057  1.013871  0.0
H  H11  1  0.49942463  0.94657527  0.63004496  1  0.10758  0.000669  0.107302  0.116634  0.000424  1.014036  0.0
H  H12  1  0.49981590  0.33626784  0.94397918  1  0.078539  0.000336  0.10725  0.115688  0.000108  1.020508  0.0
H  H13  1  0.49980753  0.66372105  0.05597174  1  0.079993  -0.000385  0.107122  0.115564  -0.000176  1.020553  0.0
H  H14  1  0.49703727  0.83617111  0.55557834  1  0.08821  0.000284  0.107103  0.115438  0.000103  1.020236  0.0
H  H15  1  0.49704130  0.16386489  0.44447293  1  0.089247  0.00023  0.107112  0.115581  0.000116  1.02033  0.0
H  H16  1  0.18215601  0.88631986  0.85738278  1  0.120075  0.00247  0.128693  0.10963  0.000874  0.984722  0.002
H  H17  1  0.18216395  0.11367839  0.14257951  1  0.120407  -0.002478  0.128709  0.109441  -0.000948  0.984981  -0.002
H  H18  1  0.81547538  0.38839627  0.64327689  1  0.130811  0.002427  0.129641  0.112139  0.000811  0.984976  0.002
H  H19  1  0.81548619  0.61161446  0.35678578  1  0.130292  0.002434  0.129625  0.112087  0.000829  0.985236  0.002
H  H20  1  0.81719292  0.11367506  0.14248040  1  0.125149  -0.002481  0.128463  0.109033  -0.000947  0.985319  -0.002
H  H21  1  0.81716340  0.88632499  0.85748081  1  0.125471  0.002473  0.128432  0.109036  0.000874  0.985365  0.002
H  H22  1  0.18065697  0.61329757  0.35749736  1  0.123782  0.002423  0.128913  0.109898  0.00089  0.984451  0.002
H  H23  1  0.18065341  0.38671059  0.64255783  1  0.124452  0.002416  0.128886  0.109703  0.000871  0.984463  0.002
H  H24  1  0.18280907  0.19510634  0.90293758  1  0.1323  0.002434  0.129333  0.112094  0.00085  0.982263  0.002
H  H25  1  0.18281447  0.80489495  0.09702697  1  0.132073  -0.002446  0.129342  0.112112  -0.00091  0.982041  -0.002
H  H26  1  0.81938435  0.69650663  0.59566769  1  0.133154  0.002391  0.129264  0.111225  0.000869  0.980504  0.002
H  H27  1  0.81937567  0.30350487  0.40439375  1  0.132091  0.002374  0.129248  0.111133  0.00086  0.980666  0.002
H  H28  1  0.81677845  0.80488702  0.09685779  1  0.131124  -0.002446  0.129372  0.112093  -0.000915  0.981485  -0.002
H  H29  1  0.81676153  0.19512138  0.90310856  1  0.131262  0.002434  0.129276  0.112046  0.000853  0.981552  0.002
H  H30  1  0.18532843  0.30466706  0.40322551  1  0.124715  0.002353  0.129735  0.11281  0.000792  0.98398  0.002
H  H31  1  0.18533693  0.69534567  0.59682844  1  0.124383  0.002369  0.129749  0.112784  0.000801  0.983574  0.002
C  C32  1  0.49931431  0.16908970  0.02772504  1  1.539121  -9.9e-05  0.218065  0.580075  -0.000673  4.197545  -0.002
C  C33  1  0.49930593  0.83088024  0.97225437  1  1.54209  0.000187  0.217983  0.579971  0.000393  4.196866  0.002
C  C34  1  0.49964600  0.66915627  0.47120017  1  1.530592  -0.007798  0.217987  0.583296  -0.00261  4.1943  -0.002
C  C35  1  0.49964686  0.33085547  0.52887497  1  1.529559  -0.00775  0.218352  0.584629  -0.002591  4.194194  -0.002
C  C36  1  0.49971989  0.27597950  0.05647294  1  -0.002417  0.001071  -0.026952  -0.049575  0.000498  4.030407  0.001
C  C37  1  0.49970952  0.72400105  0.94347741  1  -0.001603  0.000362  -0.02669  -0.049108  6.4e-05  4.029696  0.0
C  C38  1  0.49864980  0.77622323  0.44291967  1  -0.047272  0.01111  -0.026752  -0.049905  0.0059  4.030633  0.009
C  C39  1  0.49866399  0.22378470  0.55714295  1  -0.047345  0.012717  -0.026699  -0.050188  0.006616  4.030921  0.011
C  C40  1  0.49924623  0.29594501  0.13477148  1  -0.131384  -0.000469  -0.078531  -0.11431  -0.000145  3.92385  0.0
C  C41  1  0.49922597  0.70405299  0.86517375  1  -0.1321  -0.000175  -0.078789  -0.114396  -6.7e-05  3.924467  0.0
C  C42  1  0.49956497  0.79639629  0.36468683  1  -0.054143  -0.002798  -0.078572  -0.112801  -0.001537  3.921727  -0.002
C  C43  1  0.49959710  0.20360482  0.63537349  1  -0.050557  -0.003752  -0.078742  -0.113077  -0.001879  3.92205  -0.002
C  C44  1  0.50120137  0.39675997  0.15972275  1  0.016585  0.004204  -0.019108  -0.018957  0.002294  3.998695  0.003
C  C45  1  0.50118875  0.60324867  0.84022530  1  0.017413  0.003218  -0.019241  -0.019718  0.001746  3.999177  0.002
C  C46  1  0.49951850  0.89724775  0.34001085  1  0.022255  -0.002048  -0.018941  -0.019368  -0.001217  3.998794  -0.001
C  C47  1  0.49954010  0.10273816  0.66001129  1  0.018772  0.005123  -0.019022  -0.019525  0.002745  3.999051  0.004
C  C48  1  0.50326074  0.47631586  0.10698811  1  -0.080904  -0.000229  -0.074102  -0.12633  -5e-05  3.892577  0.0
C  C49  1  0.50324707  0.52368139  0.89294109  1  -0.08079  -0.000478  -0.07426  -0.12673  -0.000193  3.893407  0.0
C  C50  1  0.49909297  0.97667059  0.39294055  1  -0.085706  -0.004828  -0.074505  -0.127361  -0.002721  3.893478  -0.003
C  C51  1  0.49910760  0.02332062  0.60707533  1  -0.085849  -0.005822  -0.074451  -0.127335  -0.003095  3.893813  -0.003
C  C52  1  0.50220954  0.45780705  0.02804680  1  -0.007773  0.000254  -0.008498  0.064572  7.9e-05  4.004288  0.0
C  C53  1  0.50220852  0.54216894  0.97187329  1  0.030179  0.001222  -0.008021  0.064981  0.000575  4.004673  0.001
C  C54  1  0.49833442  0.95793145  0.47180858  1  -0.005639  0.000628  -0.008095  0.06484  0.000373  4.004487  0.001
C  C55  1  0.49833837  0.04208936  0.52821759  1  0.031691  0.002241  -0.008159  0.065262  0.001104  4.004687  0.002
C  C56  1  0.50061364  0.35613440  0.00415728  1  -0.030057  -0.001176  -0.081371  -0.137398  -0.000776  3.923673  -0.001
C  C57  1  0.50060369  0.64384008  0.99578791  1  -0.029763  -0.003099  -0.081083  -0.137133  -0.001614  3.923073  -0.001
C  C58  1  0.49780750  0.85620135  0.49544902  1  -0.022063  -0.001436  -0.081326  -0.137329  -0.000731  3.923685  -0.001
C  C59  1  0.49781753  0.14382175  0.50460679  1  -0.021078  -0.00609  -0.081237  -0.137426  -0.003268  3.923684  -0.004
C  C60  1  0.50115857  0.41993693  0.24297072  1  1.531432  -0.005566  0.189306  0.540092  -0.002557  4.218408  -0.007
C  C61  1  0.50113238  0.58008308  0.75696536  1  1.530127  -0.005806  0.189556  0.540901  -0.002699  4.219124  -0.007
C  C62  1  0.49993674  0.92035408  0.25683119  1  1.509286  0.005665  0.189368  0.539281  0.002183  4.219368  0.007
C  C63  1  0.49995258  0.07962043  0.74317328  1  1.50908  -0.005411  0.18919  0.539252  -0.002438  4.219859  -0.007
C  C64  1  0.09950313  0.95508453  0.86817377  1  0.414482  -0.009686  0.056145  0.050277  -0.00473  3.908999  -0.004
C  C65  1  0.09951297  0.04490960  0.13180339  1  0.414161  0.009675  0.055922  0.050339  0.004344  3.909461  0.004
C  C66  1  0.89931500  0.45658845  0.63203783  1  0.555605  -0.008985  0.057063  0.05152  -0.004687  3.90745  -0.003
C  C67  1  0.89930750  0.54342109  0.36800310  1  0.556248  -0.008977  0.056883  0.051538  -0.004683  3.907996  -0.003
C  C68  1  0.89986304  0.04491268  0.13172189  1  0.568586  0.009328  0.05617  0.050451  0.00436  3.909313  0.004
C  C69  1  0.89984313  0.95508620  0.86825578  1  0.567588  -0.009337  0.055946  0.050327  -0.004745  3.909451  -0.004
C  C70  1  0.09894736  0.54422173  0.36819655  1  0.421667  -0.009582  0.055856  0.047872  -0.004596  3.909784  -0.004
C  C71  1  0.09894194  0.45578761  0.63184045  1  0.420883  -0.009588  0.055864  0.048265  -0.004601  3.90996  -0.004
C  C72  1  0.09959029  0.12623805  0.89332261  1  0.401284  -0.009871  0.055807  0.04844  -0.004853  3.912449  -0.004
C  C73  1  0.09960115  0.87376291  0.10665512  1  0.402034  0.009868  0.055673  0.04822  0.004468  3.912782  0.004
C  C74  1  0.90149971  0.62743088  0.60595547  1  0.416226  -0.009454  0.056183  0.046848  -0.004564  3.911996  -0.004
C  C75  1  0.90148623  0.37257259  0.39408712  1  0.416537  -0.009454  0.056065  0.047079  -0.004561  3.912053  -0.004
C  C76  1  0.89989948  0.87376295  0.10655025  1  0.562769  0.009478  0.055836  0.048032  0.00446  3.912676  0.004
C  C77  1  0.89987999  0.12623517  0.89343084  1  0.562666  -0.009487  0.055807  0.048065  -0.004847  3.912187  -0.004
C  C78  1  0.10117357  0.37313535  0.39366913  1  0.556568  -0.009494  0.056392  0.050453  -0.004978  3.909104  -0.004
C  C79  1  0.10117836  0.62686868  0.60636611  1  0.556561  -0.009498  0.0564  0.050966  -0.004981  3.908314  -0.004
N  N80  1  0.20055925  0.04038424  0.88174748  1  -1.195216  0.027121  -0.311704  -0.207656  0.016782  3.587312  0.03
N  N81  1  0.20055973  0.95960954  0.11823891  1  -1.196288  -0.027094  -0.311525  -0.207448  -0.0181  3.587326  -0.03
N  N82  1  0.79949612  0.54206155  0.61787332  1  -1.19219  0.028797  -0.310552  -0.204257  0.017638  3.583143  0.031
N  N83  1  0.79947973  0.45794226  0.38215550  1  -1.191623  0.028788  -0.310373  -0.204088  0.017634  3.583197  0.031
N  N84  1  0.79886586  0.95961595  0.11804790  1  -1.19422  -0.026945  -0.311149  -0.20695  -0.018059  3.586968  -0.03
N  N85  1  0.79882798  0.04037949  0.88194048  1  -1.194085  0.026959  -0.311008  -0.207072  0.016737  3.58702  0.03
N  N86  1  0.20103423  0.45931680  0.38194871  1  -1.199887  0.028745  -0.310668  -0.206232  0.017664  3.58362  0.031
N  N87  1  0.20103189  0.54068459  0.61807243  1  -1.19968  0.028735  -0.310808  -0.20666  0.017659  3.583897  0.031
O  O88  1  0.49926047  0.15633854  0.95581051  1  -1.134467  0.08408  -0.307491  -0.555633  0.046618  2.470616  0.07
O  O89  1  0.49930085  0.84365113  0.04416549  1  -1.137761  -0.08388  -0.307531  -0.555806  -0.049047  2.470499  -0.07
O  O90  1  0.49641735  0.65595527  0.54309334  1  -1.175998  0.08609  -0.308491  -0.560033  0.047188  2.472969  0.073
O  O91  1  0.49633896  0.34408073  0.45696479  1  -1.175132  0.086319  -0.308862  -0.560992  0.047311  2.472073  0.073
O  O92  1  0.49923577  0.09801371  0.07660747  1  -1.184352  -0.099047  -0.312907  -0.572604  -0.057881  2.531215  -0.083
O  O93  1  0.49918325  0.90196534  0.92336966  1  -1.18391  0.099123  -0.312992  -0.572666  0.054819  2.531284  0.083
O  O94  1  0.50447505  0.59869267  0.42179336  1  -1.171737  0.088442  -0.312404  -0.575159  0.049046  2.526826  0.075
O  O95  1  0.50452347  0.40130010  0.57827141  1  -1.172452  0.088589  -0.312349  -0.575359  0.049067  2.528539  0.075
O  O96  1  0.49006650  0.34784610  0.29153557  1  -1.130731  0.095357  -0.31989  -0.539911  0.050116  2.167209  0.083
O  O97  1  0.49011111  0.65215567  0.70842239  1  -1.130693  0.095279  -0.320058  -0.540096  0.050073  2.168366  0.083
O  O98  1  0.49941058  0.84811208  0.20819930  1  -1.120367  -0.095078  -0.318347  -0.53704  -0.052746  2.167061  -0.082
O  O99  1  0.49943530  0.15185636  0.79180974  1  -1.119769  0.095286  -0.318305  -0.537082  0.050099  2.167591  0.083
O  O100  1  0.51199446  0.51196815  0.26601484  1  -1.133145  0.095409  -0.319401  -0.543839  0.050323  2.172891  0.083
O  O101  1  0.51191110  0.48808150  0.73393242  1  -1.133095  0.095512  -0.319259  -0.543798  0.050373  2.174715  0.083
O  O102  1  0.50061009  0.01256030  0.23381482  1  -1.125209  -0.098163  -0.318764  -0.542399  -0.05458  2.173676  -0.085
O  O103  1  0.50059718  0.98741041  0.76617424  1  -1.125389  0.098645  -0.318677  -0.542298  0.05198  2.173695  0.086
