# generated using pymatgen
data_H12PbC14(N2O3)2
_symmetry_space_group_name_H-M   'P 1'
_cell_length_a   8.76883617
_cell_length_b   10.06083171
_cell_length_c   10.06515354
_cell_angle_alpha   68.04929969
_cell_angle_beta   75.85915101
_cell_angle_gamma   75.88185339
_symmetry_Int_Tables_number   1
_chemical_formula_structural   H12PbC14(N2O3)2
_chemical_formula_sum   'H24 Pb2 C28 N8 O12'
_cell_volume   787.05798000
_cell_formula_units_Z   2
loop_
 _symmetry_equiv_pos_site_id
 _symmetry_equiv_pos_as_xyz
  1  'x, y, z'
loop_
 _atom_site_type_symbol
 _atom_site_label
 _atom_site_symmetry_multiplicity
 _atom_site_fract_x
 _atom_site_fract_y
 _atom_site_fract_z
 _atom_site_occupancy
 _atom_site_pbe_bader_charge
 _atom_site_pbe_bader_spin_density
 _atom_site_pbe_cm5_charge
 _atom_site_pbe_ddec_charge
 _atom_site_pbe_ddec_spin_density
 _atom_site_pbe_ddec_sum_bond_order
 _atom_site_pbe_magmom
H  H0  1  0.20570061  0.67957157  0.87947768  1  0.135866  0  0.108139  0.127898  0  1.028846  0
H  H1  1  0.70583784  0.87954688  0.67949595  1  0.135229  0  0.108052  0.127503  0  1.029087  0
H  H2  1  0.79428554  0.32044416  0.12049081  1  0.135766  0  0.108096  0.127844  0  1.028874  0
H  H3  1  0.29418557  0.12047707  0.32054411  1  0.134728  0  0.10804  0.127441  0  1.029169  0
H  H4  1  0.08424938  0.93115219  0.73850945  1  0.136971  0  0.113877  0.122075  0  0.982983  0
H  H5  1  0.58431451  0.73856387  0.93106945  1  0.13437  0  0.114025  0.122334  0  0.983143  0
H  H6  1  0.91578439  0.06887482  0.26143072  1  0.137224  0  0.113978  0.122106  0  0.983465  0
H  H7  1  0.41568431  0.26147042  0.06898905  1  0.134648  0  0.114063  0.122319  0  0.98303  0
H  H8  1  0.03004097  0.47436040  0.26090550  1  0.028695  0  0.091663  0.120979  0  1.065347  0
H  H9  1  0.53024563  0.26109855  0.47449354  1  0.028128  0  0.091756  0.121273  0  1.065344  0
H  H10  1  0.96985787  0.52546493  0.73894327  1  0.027575  0  0.0917  0.120952  0  1.065221  0
H  H11  1  0.46969943  0.73883995  0.52543619  1  0.027616  0  0.091804  0.121366  0  1.065342  0
H  H12  1  0.22148458  0.51920082  0.16979370  1  0.114488  0  0.100727  0.15701  0  1.012367  0
H  H13  1  0.72166263  0.16966662  0.51901499  1  0.114629  0  0.100911  0.157244  0  1.012076  0
H  H14  1  0.77845466  0.48080990  0.83035723  1  0.1149  0  0.100748  0.156951  0  1.012519  0
H  H15  1  0.27830411  0.83032012  0.48101333  1  0.114442  0  0.100919  0.157289  0  1.012023  0
H  H16  1  0.11662112  0.44604095  0.09262088  1  0.061976  0  0.101534  0.156236  0  0.988867  0
H  H17  1  0.61634535  0.09272075  0.44602685  1  0.06467  0  0.101539  0.156501  0  0.98884  0
H  H18  1  0.88361587  0.55397524  0.90726375  1  0.06506  0  0.101411  0.156175  0  0.988882  0
H  H19  1  0.38369341  0.90723142  0.55398088  1  0.064847  0  0.101435  0.15645  0  0.988805  0
H  H20  1  0.87132396  0.14833670  0.73189400  1  0.089506  0  0.106173  0.112514  0  1.027653  0
H  H21  1  0.37145580  0.73189185  0.14823510  1  0.08957  0  0.106071  0.11235  0  1.027998  0
H  H22  1  0.12866247  0.85169200  0.26809832  1  0.089268  0  0.10616  0.112492  0  1.027821  0
H  H23  1  0.62856501  0.26815323  0.85174953  1  0.089842  0  0.106051  0.112385  0  1.027968  0
Pb  Pb24  1  0.75005686  0.61521117  0.38475221  1  1.382728  0  0.624845  0.97098  0  1.862936  0
Pb  Pb25  1  0.24995490  0.38470052  0.61526764  1  1.382663  0  0.624689  0.970734  0  1.863766  0
C  C26  1  0.02675216  0.66935151  0.07160705  1  0.593105  0  0.139703  0.332365  0  3.938205  0
C  C27  1  0.52682500  0.07164809  0.66928511  1  0.590797  0  0.139729  0.332487  0  3.938207  0
C  C28  1  0.97324668  0.33064021  0.92836260  1  0.592963  0  0.13968  0.332494  0  3.938438  0
C  C29  1  0.47315588  0.92833582  0.33070521  1  0.59167  0  0.139701  0.332769  0  3.93827  0
C  C30  1  0.09830306  0.73833087  0.92695933  1  -0.043318  0  -0.081554  -0.172499  0  3.914103  0
C  C31  1  0.59835549  0.92696990  0.73822756  1  -0.041689  0  -0.081684  -0.172002  0  3.913885  0
C  C32  1  0.90168681  0.26167651  0.07300810  1  -0.043593  0  -0.081509  -0.17248  0  3.914158  0
C  C33  1  0.40158470  0.07299118  0.26177265  1  -0.043226  0  -0.081634  -0.17205  0  3.914084  0
C  C34  1  0.03132784  0.87614630  0.85015406  1  -0.104724  0  -0.057964  -0.051599  0  3.919201  0
C  C35  1  0.53137701  0.85016248  0.87603547  1  -0.102243  0  -0.058152  -0.052229  0  3.92086  0
C  C36  1  0.96866464  0.12387330  0.14980572  1  -0.104387  0  -0.058113  -0.051655  0  3.91987  0
C  C37  1  0.46858159  0.14981633  0.12397334  1  -0.095164  0  -0.058291  -0.052321  0  3.920458  0
C  C38  1  0.89086965  0.94776276  0.91587230  1  0.022671  0  -0.002636  0.035086  0  4.026943  0
C  C39  1  0.39094795  0.91585353  0.94767517  1  0.020923  0  -0.00256  0.034939  0  4.02812  0
C  C40  1  0.10913831  0.05225575  0.08412438  1  0.022313  0  -0.002574  0.035167  0  4.027071  0
C  C41  1  0.60905695  0.08415361  0.05233784  1  0.015869  0  -0.002369  0.035164  0  4.027662  0
C  C42  1  0.82320246  0.87159769  0.06033972  1  0.449678  0  0.116671  0.117823  0  3.98781  0
C  C43  1  0.32328671  0.06033730  0.87154413  1  0.482361  0  0.116829  0.118356  0  3.987597  0
C  C44  1  0.17681117  0.12841921  0.93965804  1  0.449348  0  0.116558  0.117871  0  3.987498  0
C  C45  1  0.67674762  0.93968247  0.12846880  1  0.48258  0  0.116602  0.118281  0  3.987749  0
C  C46  1  0.10141663  0.51975120  0.15421057  1  -0.073122  0  -0.233885  -0.448562  0  3.889202  0
C  C47  1  0.60146923  0.15427803  0.51969399  1  -0.074643  0  -0.234314  -0.449758  0  3.88964  0
C  C48  1  0.89860617  0.48023466  0.84575039  1  -0.07526  0  -0.233723  -0.448405  0  3.889123  0
C  C49  1  0.39851771  0.84569205  0.48029528  1  -0.074207  0  -0.234275  -0.449892  0  3.889588  0
C  C50  1  0.81744091  0.09139947  0.84209627  1  -0.049686  0  -0.085423  -0.112299  0  3.97932  0
C  C51  1  0.31755445  0.84207154  0.09131948  1  0.018213  0  -0.08521  -0.111957  0  3.98013  0
C  C52  1  0.18256208  0.90863177  0.15791448  1  -0.048949  0  -0.085313  -0.112213  0  3.979857  0
C  C53  1  0.68244893  0.15796497  0.90869559  1  0.017524  0  -0.085239  -0.112062  0  3.979698  0
N  N54  1  0.89385050  0.73581233  0.13499205  1  -1.261827  0  -0.295793  -0.322634  0  3.413126  0
N  N55  1  0.39394611  0.13505537  0.73577409  1  -1.261155  0  -0.295422  -0.32231  0  3.412675  0
N  N56  1  0.10614234  0.26418908  0.86496562  1  -1.261708  0  -0.295749  -0.322656  0  3.412979  0
N  N57  1  0.60608768  0.86498265  0.26423552  1  -1.261727  0  -0.295369  -0.322494  0  3.412423  0
N  N58  1  0.95153456  0.75557772  0.50556314  1  0.810339  0  0.098988  0.704019  0  4.440154  0
N  N59  1  0.45165330  0.50553174  0.75538838  1  0.810078  0  0.09823  0.704115  0  4.441581  0
N  N60  1  0.04847116  0.24446800  0.49442042  1  0.812738  0  0.099163  0.704341  0  4.439782  0
N  N61  1  0.54831967  0.49444690  0.24468230  1  0.809646  0  0.098184  0.703928  0  4.441623  0
O  O62  1  0.81220770  0.81350608  0.47266080  1  -0.56844  0  -0.18169  -0.456047  0  1.983626  0
O  O63  1  0.31215099  0.47295125  0.81324765  1  -0.567211  0  -0.181431  -0.455877  0  1.983341  0
O  O64  1  0.18778869  0.18650833  0.52733482  1  -0.56855  0  -0.1816  -0.455976  0  1.983675  0
O  O65  1  0.68781096  0.52703839  0.18676220  1  -0.566188  0  -0.181344  -0.455693  0  1.98347  0
O  O66  1  0.02750281  0.64886852  0.46210381  1  -0.582851  0  -0.186134  -0.498269  0  2.017701  0
O  O67  1  0.52749583  0.46193603  0.64875350  1  -0.583766  0  -0.185839  -0.498104  0  2.018804  0
O  O68  1  0.97252722  0.35118016  0.53788188  1  -0.583028  0  -0.186228  -0.498479  0  2.018199  0
O  O69  1  0.47252790  0.53805464  0.35132250  1  -0.583889  0  -0.185806  -0.497966  0  2.018512  0
O  O70  1  0.01057697  0.80181606  0.57705541  1  -0.500348  0  -0.165031  -0.409857  0  1.953009  0
O  O71  1  0.51099138  0.57686115  0.80159802  1  -0.500269  0  -0.164832  -0.410231  0  1.953659  0
O  O72  1  0.98941926  0.19825503  0.42291613  1  -0.502379  0  -0.164971  -0.40985  0  1.952689  0
O  O73  1  0.48894402  0.42310296  0.19852268  1  -0.500671  0  -0.164782  -0.410178  0  1.953801  0
