# generated using pymatgen
data_ZnH8C11Br2NO4
_symmetry_space_group_name_H-M   'P 1'
_cell_length_a   9.65209418
_cell_length_b   10.99125285
_cell_length_c   11.05957718
_cell_angle_alpha   90.32911204
_cell_angle_beta   90.87797197
_cell_angle_gamma   110.19404167
_symmetry_Int_Tables_number   1
_chemical_formula_structural   ZnH8C11Br2NO4
_chemical_formula_sum   'Zn2 H16 C22 Br4 N2 O8'
_cell_volume   1100.96604500
_cell_formula_units_Z   2
loop_
 _symmetry_equiv_pos_site_id
 _symmetry_equiv_pos_as_xyz
  1  'x, y, z'
loop_
 _atom_site_type_symbol
 _atom_site_label
 _atom_site_symmetry_multiplicity
 _atom_site_fract_x
 _atom_site_fract_y
 _atom_site_fract_z
 _atom_site_occupancy
 _atom_site_pbe_bader_charge
 _atom_site_pbe_bader_spin_density
 _atom_site_pbe_cm5_charge
 _atom_site_pbe_ddec_charge
 _atom_site_pbe_ddec_spin_density
 _atom_site_pbe_ddec_sum_bond_order
 _atom_site_pbe_magmom
Zn  Zn0  1  0.65337872  0.53528903  0.51156986  1  1.284687  0  0.666016  0.835014  0  2.402774  0
Zn  Zn1  1  0.34429722  0.46547074  0.50119375  1  1.290392  0  0.665004  0.837702  0  2.387819  0
H  H2  1  0.21201082  0.61996054  0.63138060  1  0.157145  0  0.135415  0.130657  0  1.005723  0
H  H3  1  0.61951756  0.25808742  0.70824944  1  0.0574  0  0.089508  0.140541  0  1.018847  0
H  H4  1  0.76793776  0.95044108  0.41592627  1  0.068466  0  0.085888  0.127429  0  1.011727  0
H  H5  1  0.60867569  0.95226804  0.33621009  1  0.049324  0  0.086975  0.122443  0  0.999479  0
H  H6  1  0.69462230  0.07666962  0.44464320  1  0.031406  0  0.082769  0.113027  0  1.047052  0
H  H7  1  0.21952207  0.04995577  0.44165931  1  0.065379  0  0.086813  0.127291  0  1.016644  0
H  H8  1  0.35667355  0.01431123  0.35859639  1  0.042826  0  0.089861  0.125831  0  0.987342  0
H  H9  1  0.27983448  0.91975653  0.48613269  1  0.036868  0  0.084583  0.117956  0  1.031776  0
H  H10  1  0.78451578  0.38000350  0.37981785  1  0.180856  0  0.138255  0.134304  0  0.978746  0
H  H11  1  0.31818930  0.32559443  0.12589535  1  0.075765  0  0.104163  0.118573  0  1.005165  0
H  H12  1  0.67606745  0.66969141  0.88795543  1  0.112946  0  0.105124  0.120294  0  1.005981  0
H  H13  1  0.46281938  0.91268598  0.79953161  1  0.055252  0  0.091911  0.129661  0  0.996887  0
H  H14  1  0.30567079  0.84759081  0.70543044  1  0.01914  0  0.078084  0.104045  0  1.057396  0
H  H15  1  0.43389372  0.76389915  0.72070488  1  0.029828  0  0.089556  0.135597  0  1.014255  0
H  H16  1  0.62027794  0.11549180  0.78475602  1  0.034735  0  0.089532  0.122882  0  1.007416  0
H  H17  1  0.74371949  0.17830523  0.66628157  1  0.04728  0  0.089766  0.128051  0  0.990568  0
C  C18  1  0.50286901  0.50232477  0.27065893  1  1.538839  0  0.214312  0.610472  0  4.163551  0
C  C19  1  0.57229582  0.89074690  0.52186022  1  -0.032913  0  -0.023411  -0.046843  0  3.887132  0
C  C20  1  0.51995066  0.07615572  0.60790081  1  0.003498  0  -0.003616  0.096008  0  3.911776  0
C  C21  1  0.50743523  0.93703357  0.60974690  1  0.003264  0  -0.010067  0.082151  0  3.922844  0
C  C22  1  0.39679794  0.40104239  0.07331159  1  0.104689  0  -0.090155  -0.146228  0  3.968746  0
C  C23  1  0.59760155  0.59449655  0.94086387  1  0.036151  0  -0.090194  -0.142834  0  3.970865  0
C  C24  1  0.39088087  0.39424353  0.94746708  1  -0.104562  0  -0.012633  0.093939  0  3.943217  0
C  C25  1  0.60405346  0.60075192  0.06656302  1  -0.101223  0  -0.013616  0.089063  0  3.949257  0
C  C26  1  0.49073514  0.49196955  0.87920721  1  -0.01135  0  -0.015006  -0.051996  0  3.935705  0
C  C27  1  0.50324815  0.50382894  0.13475651  1  0.096337  0  -0.013545  -0.04377  0  3.932808  0
C  C28  1  0.42371334  0.85985528  0.71375771  1  -0.048858  0  -0.241288  -0.404691  0  3.983345  0
C  C29  1  0.49067204  0.49621590  0.74339089  1  1.57551  0  0.213395  0.602998  0  4.170072  0
C  C30  1  0.63054630  0.16302004  0.69639374  1  -0.055027  0  -0.24101  -0.408764  0  3.985228  0
C  C31  1  0.66617620  0.97301767  0.42488449  1  -0.081098  0  -0.246483  -0.393144  0  4.017513  0
C  C32  1  0.31534930  0.01838232  0.45039677  1  -0.076773  0  -0.243336  -0.38184  0  3.997977  0
C  C33  1  0.44697293  0.25169876  0.51656872  1  1.549244  0  0.215305  0.606231  0  4.135856  0
C  C34  1  0.55631985  0.75045563  0.51510860  1  1.540002  0  0.216635  0.611918  0  4.131371  0
C  C35  1  0.11590596  0.56668203  0.57601250  1  0.576747  0  0.073617  0.044613  0  3.835533  0
C  C36  1  0.88085656  0.43343147  0.43503349  1  0.555466  0  0.074063  0.043139  0  3.840353  0
C  C37  1  0.98524788  0.59465267  0.57712872  1  0.511593  0  0.129351  0.186297  0  3.956666  0
C  C38  1  0.01199094  0.40615569  0.43315261  1  0.523121  0  0.129224  0.185439  0  3.959627  0
C  C39  1  0.43234674  0.11265628  0.52981664  1  -0.038294  0  -0.025827  -0.057871  0  3.887266  0
Br  Br40  1  0.97356324  0.72948232  0.67673711  1  0.061105  0  0.128975  0.041772  0  1.428501  0
Br  Br41  1  0.02376661  0.27252687  0.33200772  1  0.059802  0  0.124527  0.03842  0  1.413854  0
Br  Br42  1  0.24898263  0.24466925  0.87424747  1  -0.056771  0  0.00855  -0.071228  0  1.363275  0
Br  Br43  1  0.74872000  0.74772368  0.14112576  1  -0.060822  0  0.010531  -0.071363  0  1.366903  0
N  N44  1  0.86914036  0.52768355  0.50736535  1  -1.204607  0  -0.289667  -0.171695  0  3.46739  0
N  N45  1  0.12800874  0.47283788  0.50331049  1  -1.19874  0  -0.289443  -0.174211  0  3.462977  0
O  O46  1  0.62394416  0.51482964  0.32479711  1  -1.159561  0  -0.314841  -0.549588  0  2.34662  0
O  O47  1  0.36665636  0.46842726  0.68906532  1  -1.163174  0  -0.315524  -0.548295  0  2.354819  0
O  O48  1  0.37884682  0.48538402  0.31874253  1  -1.155075  0  -0.318295  -0.548581  0  2.329081  0
O  O49  1  0.61729502  0.53130423  0.69544732  1  -1.162519  0  -0.320015  -0.556925  0  2.345917  0
O  O50  1  0.57724499  0.33562874  0.51917448  1  -1.179581  0  -0.31626  -0.564697  0  2.385449  0
O  O51  1  0.42615935  0.66713556  0.51818462  1  -1.185939  0  -0.316207  -0.56597  0  2.360123  0
O  O52  1  0.32889480  0.27778672  0.50003156  1  -1.149825  0  -0.324328  -0.552938  0  2.337517  0
O  O53  1  0.67403158  0.72353780  0.50306766  1  -1.148354  0  -0.322942  -0.550285  0  2.333986  0
