# generated using pymatgen
data_CdH10C12N2(ClO3)2
_symmetry_space_group_name_H-M   'P 1'
_cell_length_a   8.14549769
_cell_length_b   10.48774909
_cell_length_c   19.66100000
_cell_angle_alpha   105.73618265
_cell_angle_beta   90.00000000
_cell_angle_gamma   90.00000000
_symmetry_Int_Tables_number   1
_chemical_formula_structural   CdH10C12N2(ClO3)2
_chemical_formula_sum   'Cd4 H40 C48 N8 Cl8 O24'
_cell_volume   1616.64841598
_cell_formula_units_Z   4
loop_
 _symmetry_equiv_pos_site_id
 _symmetry_equiv_pos_as_xyz
  1  'x, y, z'
loop_
 _atom_site_type_symbol
 _atom_site_label
 _atom_site_symmetry_multiplicity
 _atom_site_fract_x
 _atom_site_fract_y
 _atom_site_fract_z
 _atom_site_occupancy
 _atom_site_hle17_bader_spin_density
 _atom_site_hle17_ddec_charge
 _atom_site_hle17_ddec_spin_density
 _atom_site_hle17_ddec_sum_bond_order
 _atom_site_hle17_magmom
 _atom_site_hse06_10hf_bader_spin_density
 _atom_site_hse06_10hf_ddec_charge
 _atom_site_hse06_10hf_ddec_spin_density
 _atom_site_hse06_10hf_ddec_sum_bond_order
 _atom_site_hse06_10hf_magmom
 _atom_site_hse06_bader_spin_density
 _atom_site_hse06_ddec_charge
 _atom_site_hse06_ddec_spin_density
 _atom_site_hse06_ddec_sum_bond_order
 _atom_site_hse06_magmom
 _atom_site_pbe_bader_charge
 _atom_site_pbe_bader_spin_density
 _atom_site_pbe_cm5_charge
 _atom_site_pbe_ddec_charge
 _atom_site_pbe_ddec_spin_density
 _atom_site_pbe_ddec_sum_bond_order
 _atom_site_pbe_magmom
Cd  Cd0  1  0.43233945  0.34105901  0.35789870  1  0  1.199237  0  1.616356  0  0  1.021103  0  2.056743  0  0  1.079146  0  2.000148  0  1.304393  0  0.759078  0.979808  0  2.095017  0
Cd  Cd1  1  0.06766069  0.84105925  0.85789733  1  0  1.199235  0  1.616333  0  0  1.021108  0  2.056728  0  0  1.079152  0  2.000132  0  1.304403  0  0.759068  0.979813  0  2.095004  0
Cd  Cd2  1  0.56766083  0.65894145  0.64210213  1  0  1.199222  0  1.616379  0  0  1.021092  0  2.056769  0  0  1.079135  0  2.000175  0  1.304434  0  0.759074  0.979798  0  2.095043  0
Cd  Cd3  1  0.93233959  0.15894122  0.14210197  1  0  1.199263  0  1.616325  0  0  1.021126  0  2.056713  0  0  1.07917  0  2.000117  0  1.304426  0  0.759093  0.979833  0  2.094987  0
H  H4  1  0.40910330  0.59650061  0.44803853  1  0  0.421775  0  0.88469  0  0  0.387495  0  0.955533  0  0  0.39906  0  0.9387  0  0.655035  0  0.281785  0.379312  0  0.967401  0
H  H5  1  0.09089684  0.09650038  0.94803837  1  0  0.421794  0  0.884666  0  0  0.38751  0  0.955511  0  0  0.399077  0  0.938677  0  0.654965  0  0.281791  0.379328  0  0.967379  0
H  H6  1  0.59089698  0.40349985  0.55196180  1  0  0.421789  0  0.884677  0  0  0.387503  0  0.955527  0  0  0.39907  0  0.938691  0  0.654957  0  0.281796  0.379321  0  0.967396  0
H  H7  1  0.90910467  0.90350009  0.05196145  1  0  0.42177  0  0.884696  0  0  0.387488  0  0.955542  0  0  0.399054  0  0.938709  0  0.655038  0  0.28178  0.379306  0  0.96741  0
H  H8  1  0.38357509  0.61906598  0.37112912  1  0  0.381478  0  0.945143  0  0  0.337698  0  1.031518  0  0  0.348846  0  1.015865  0  0.624136  0  0.270308  0.329884  0  1.042414  0
H  H9  1  0.11642628  0.11906574  0.87112896  1  0  0.381462  0  0.945179  0  0  0.337683  0  1.031552  0  0  0.348831  0  1.015899  0  0.624171  0  0.270305  0.329869  0  1.042447  0
H  H10  1  0.61642519  0.38093449  0.62887070  1  0  0.38146  0  0.945185  0  0  0.337677  0  1.031562  0  0  0.348825  0  1.01591  0  0.624133  0  0.270306  0.329864  0  1.042457  0
H  H11  1  0.88357523  0.88093572  0.12887100  1  0  0.381489  0  0.945129  0  0  0.337709  0  1.031502  0  0  0.348857  0  1.01585  0  0.624137  0  0.270319  0.329896  0  1.042397  0
H  H12  1  0.51843364  0.36436932  0.22642538  1  0  0.427471  0  0.878759  0  0  0.393296  0  0.947316  0  0  0.405377  0  0.929968  0  0.657473  0  0.281729  0.384768  0  0.959523  0
H  H13  1  0.98156679  0.86436560  0.72642446  1  0  0.427486  0  0.878747  0  0  0.393329  0  0.947271  0  0  0.405409  0  0.929923  0  0.657506  0  0.281745  0.3848  0  0.959478  0
H  H14  1  0.48156665  0.63563015  0.77357378  1  0  0.427502  0  0.87871  0  0  0.393319  0  0.947277  0  0  0.405401  0  0.929928  0  0.657424  0  0.281738  0.384791  0  0.959484  0
H  H15  1  0.01843227  0.13562992  0.27357362  1  0  0.427485  0  0.878738  0  0  0.393299  0  0.947312  0  0  0.405381  0  0.929962  0  0.657512  0  0.281729  0.384771  0  0.959519  0
H  H16  1  0.34372117  0.28993701  0.21335622  1  0  0.430238  0  0.867199  0  0  0.396086  0  0.936068  0  0  0.407565  0  0.919488  0  0.653956  0  0.286108  0.387968  0  0.947751  0
H  H17  1  0.15627897  0.78993229  0.71335465  1  0  0.430238  0  0.867205  0  0  0.396086  0  0.936071  0  0  0.407565  0  0.91949  0  0.65392  0  0.286094  0.387969  0  0.947753  0
H  H18  1  0.65628034  0.71006246  0.78664345  1  0  0.430247  0  0.8672  0  0  0.396097  0  0.936064  0  0  0.407576  0  0.919482  0  0.653967  0  0.286112  0.387981  0  0.947743  0
H  H19  1  0.84372008  0.21006421  0.28664408  1  0  0.430235  0  0.867211  0  0  0.396082  0  0.936081  0  0  0.407561  0  0.919499  0  0.653943  0  0.2861  0.387964  0  0.947762  0
H  H20  1  0.20405629  0.92248931  0.18869723  1  0  0.119675  0  0.928241  0  0  0.129935  0  0.987926  0  0  0.133092  0  0.98552  0  0.113874  0  0.113719  0.127553  0  0.989715  0
H  H21  1  0.29594386  0.42249205  0.68869699  1  0  0.119699  0  0.928222  0  0  0.129921  0  0.987947  0  0  0.133078  0  0.985542  0  0.113852  0  0.113709  0.127538  0  0.989736  0
H  H22  1  0.79594277  0.07750819  0.81130215  1  0  0.119634  0  0.928262  0  0  0.129898  0  0.987952  0  0  0.133056  0  0.985545  0  0.113872  0  0.11371  0.127514  0  0.989742  0
H  H23  1  0.70405888  0.57751040  0.31130260  1  0  0.119598  0  0.928309  0  0  0.129927  0  0.987938  0  0  0.133086  0  0.985528  0  0.113888  0  0.113709  0.127543  0  0.989727  0
H  H24  1  0.16783505  0.67411480  0.15157818  1  0  0.10274  0  0.959364  0  0  0.110598  0  1.022856  0  0  0.11405  0  1.021223  0  0.078933  0  0.102562  0.108024  0  1.024307  0
H  H25  1  0.33216387  0.17411655  0.65157678  1  0  0.102744  0  0.959386  0  0  0.110602  0  1.022875  0  0  0.114054  0  1.021244  0  0.07895  0  0.102566  0.108029  0  1.024327  0
H  H26  1  0.83216401  0.32588270  0.84842273  1  0  0.102793  0  0.959361  0  0  0.110648  0  1.022845  0  0  0.1141  0  1.021213  0  0.078931  0  0.102581  0.108075  0  1.024297  0
H  H27  1  0.66783519  0.82588392  0.34842253  1  0  0.102779  0  0.959378  0  0  0.110635  0  1.022854  0  0  0.114087  0  1.021223  0  0.078921  0  0.10258  0.108062  0  1.024305  0
H  H28  1  0.23519987  0.54617012  0.23921760  1  0  0.096898  0  0.94556  0  0  0.102621  0  1.010634  0  0  0.106498  0  1.006379  0  0.111515  0  0.113408  0.099772  0  1.013729  0
H  H29  1  0.26480027  0.04617088  0.73921656  1  0  0.096905  0  0.94557  0  0  0.102641  0  1.01063  0  0  0.10652  0  1.006373  0  0.111521  0  0.113402  0.099786  0  1.013733  0
H  H30  1  0.76480164  0.45383035  0.76078323  1  0  0.096865  0  0.945558  0  0  0.102619  0  1.010599  0  0  0.106498  0  1.006341  0  0.111564  0  0.113394  0.099748  0  1.013721  0
H  H31  1  0.73520001  0.95383157  0.26078354  1  0  0.096867  0  0.94554  0  0  0.1026  0  1.0106  0  0  0.106479  0  1.006343  0  0.111544  0  0.113382  0.099734  0  1.013721  0
H  H32  1  0.83071658  0.23954708  0.52635620  1  0  0.093339  0  0.980434  0  0  0.098358  0  1.053012  0  0  0.1017  0  1.049612  0  0.130176  0  0.099145  0.09588  0  1.05549  0
H  H33  1  0.66928016  0.73954732  0.02635637  1  0  0.093413  0  0.980426  0  0  0.098432  0  1.052989  0  0  0.101773  0  1.04959  0  0.130214  0  0.09917  0.095954  0  1.055467  0
H  H34  1  0.16928370  0.76045339  0.47364361  1  0  0.093378  0  0.980398  0  0  0.098435  0  1.052937  0  0  0.101779  0  1.04953  0  0.130179  0  0.09916  0.095945  0  1.055425  0
H  H35  1  0.33071644  0.26045216  0.97364330  1  0  0.093397  0  0.980361  0  0  0.09841  0  1.052949  0  0  0.101753  0  1.049548  0  0.130191  0  0.099163  0.095932  0  1.055427  0
H  H36  1  0.11463265  0.20668025  0.56916149  1  0  0.106893  0  0.947007  0  0  0.118819  0  1.002074  0  0  0.121814  0  1.001796  0  0.086925  0  0.108073  0.116677  0  1.002524  0
H  H37  1  0.38536258  0.70668246  0.06916092  1  0  0.106933  0  0.946962  0  0  0.118853  0  1.002031  0  0  0.121848  0  1.001754  0  0.086959  0  0.108101  0.116711  0  1.002481  0
H  H38  1  0.88536640  0.79331923  0.43083920  1  0  0.10692  0  0.947013  0  0  0.118849  0  1.002074  0  0  0.121844  0  1.001795  0  0.086947  0  0.108103  0.116707  0  1.002523  0
H  H39  1  0.61463402  0.29331800  0.93083889  1  0  0.106902  0  0.947042  0  0  0.11883  0  1.002104  0  0  0.121825  0  1.001826  0  0.086946  0  0.108093  0.116687  0  1.002554  0
H  H40  1  0.35607769  0.27543531  0.50673000  1  0  0.09289  0  0.938135  0  0  0.097683  0  1.007138  0  0  0.101178  0  1.003157  0  0.146882  0  0.118449  0.095089  0  1.010098  0
H  H41  1  0.14392122  0.77543653  0.00672776  1  0  0.092911  0  0.938167  0  0  0.097718  0  1.007144  0  0  0.101212  0  1.003163  0  0.14686  0  0.118454  0.095124  0  1.010103  0
H  H42  1  0.64392382  0.72456516  0.49327134  1  0  0.092905  0  0.93814  0  0  0.097721  0  1.007119  0  0  0.101216  0  1.003136  0  0.146891  0  0.118458  0.095127  0  1.010079  0
H  H43  1  0.85607783  0.22456493  0.99327118  1  0  0.092877  0  0.938139  0  0  0.097669  0  1.007144  0  0  0.101163  0  1.003163  0  0.14688  0  0.118438  0.095075  0  1.010103  0
C  C44  1  0.31320124  0.84435604  0.33832240  1  0  0.271645  0  3.781963  0  0  0.255994  0  4.057442  0  0  0.267165  0  4.075194  0  0.638111  0  0.147675  0.248265  0  4.045938  0
C  C45  1  0.18680135  0.34435580  0.83832224  1  0  0.271674  0  3.782006  0  0  0.256036  0  4.057471  0  0  0.267206  0  4.075226  0  0.638059  0  0.147699  0.248307  0  4.045967  0
C  C46  1  0.68679658  0.15564245  0.66167814  1  0  0.27171  0  3.781828  0  0  0.256012  0  4.057383  0  0  0.267183  0  4.075133  0  0.638107  0  0.147709  0.248283  0  4.04588  0
C  C47  1  0.81320384  0.65564467  0.16167808  1  0  0.27171  0  3.78194  0  0  0.256029  0  4.057459  0  0  0.267198  0  4.075213  0  0.638125  0  0.147712  0.2483  0  4.045955  0
C  C48  1  0.28612002  0.92552160  0.29325778  1  0  -0.143565  0  3.721505  0  0  -0.12549  0  3.961266  0  0  -0.136413  0  3.981927  0  -0.029055  0  -0.012451  -0.11885  0  3.9478  0
C  C49  1  0.21387889  0.42552137  0.79325813  1  0  -0.143604  0  3.721533  0  0  -0.125514  0  3.961272  0  0  -0.136437  0  3.981935  0  -0.029  0  -0.012441  -0.118874  0  3.947806  0
C  C50  1  0.71387658  0.07447689  0.70674175  1  0  -0.143633  0  3.721432  0  0  -0.125543  0  3.961219  0  0  -0.136465  0  3.981876  0  -0.029083  0  -0.012459  -0.118904  0  3.947754  0
C  C51  1  0.78612385  0.57447910  0.20674219  1  0  -0.143661  0  3.721446  0  0  -0.125539  0  3.961246  0  0  -0.136459  0  3.981908  0  -0.028774  0  -0.012487  -0.118899  0  3.947779  0
C  C52  1  0.23029778  0.86263993  0.22501108  1  0  -0.003119  0  3.670228  0  0  -0.031299  0  3.920154  0  0  -0.026351  0  3.93712  0  0.103099  0  -0.061116  -0.034093  0  3.908458  0
C  C53  1  0.26970114  0.36264069  0.72501055  1  0  -0.003113  0  3.670205  0  0  -0.031259  0  3.920121  0  0  -0.026313  0  3.93709  0  0.103144  0  -0.061124  -0.034051  0  3.908423  0
C  C54  1  0.76970005  0.13735756  0.77498830  1  0  -0.003015  0  3.670153  0  0  -0.031205  0  3.920078  0  0  -0.026255  0  3.937041  0  0.103111  0  -0.061125  -0.033996  0  3.908381  0
C  C55  1  0.73030037  0.63735879  0.27498810  1  0  -0.002962  0  3.670093  0  0  -0.031239  0  3.920038  0  0  -0.026294  0  3.937005  0  0.103135  0  -0.061093  -0.03403  0  3.908341  0
C  C56  1  0.21037634  0.72553003  0.20441850  1  0  -0.123345  0  3.739938  0  0  -0.139596  0  4.000905  0  0  -0.146497  0  4.021435  0  -0.048698  0  -0.089585  -0.135207  0  3.987098  0
C  C57  1  0.28962257  0.22553177  0.70441761  1  0  -0.123313  0  3.739988  0  0  -0.139565  0  4.000937  0  0  -0.146466  0  4.021467  0  -0.048781  0  -0.089544  -0.135176  0  3.987127  0
C  C58  1  0.78962394  0.27446648  0.79558175  1  0  -0.123372  0  3.739925  0  0  -0.139611  0  4.000878  0  0  -0.146513  0  4.021408  0  -0.048643  0  -0.089528  -0.135221  0  3.987064  0
C  C59  1  0.71037648  0.77446969  0.29558184  1  0  -0.1234  0  3.740012  0  0  -0.13963  0  4.000979  0  0  -0.146531  0  4.021511  0  -0.048636  0  -0.089573  -0.13524  0  3.987167  0
C  C60  1  0.24446143  0.65400519  0.25295506  1  0  0.145559  0  3.67677  0  0  0.113559  0  3.934771  0  0  0.121199  0  3.950014  0  0.488524  0  0.048217  0.108687  0  3.924135  0
C  C61  1  0.25553871  0.15400495  0.75295439  1  0  0.145458  0  3.676785  0  0  0.113451  0  3.934781  0  0  0.12109  0  3.950024  0  0.488538  0  0.048174  0.108585  0  3.924148  0
C  C62  1  0.75553763  0.34599132  0.74704520  1  0  0.14549  0  3.676758  0  0  0.113471  0  3.934738  0  0  0.121109  0  3.949983  0  0.488493  0  0.048189  0.108616  0  3.924111  0
C  C63  1  0.74446280  0.84599254  0.24704550  1  0  0.145552  0  3.676805  0  0  0.11355  0  3.934766  0  0  0.121188  0  3.950013  0  0.488455  0  0.048231  0.108688  0  3.924143  0
C  C64  1  0.31812789  0.07213407  0.31359115  1  0  0.652134  0  3.955004  0  0  0.598555  0  4.254592  0  0  0.633593  0  4.247725  0  1.603649  0  0.192781  0.574952  0  4.258061  0
C  C65  1  0.18187225  0.57213430  0.81359182  1  0  0.652144  0  3.954965  0  0  0.598543  0  4.254578  0  0  0.63358  0  4.247712  0  1.603651  0  0.192761  0.574939  0  4.258048  0
C  C66  1  0.68186748  0.92786640  0.68640815  1  0  0.652219  0  3.954746  0  0  0.598643  0  4.254338  0  0  0.633681  0  4.247467  0  1.603622  0  0.192804  0.57504  0  4.257808  0
C  C67  1  0.81813417  0.42786815  0.18640879  1  0  0.652206  0  3.954672  0  0  0.598557  0  4.25435  0  0  0.633591  0  4.247485  0  1.603324  0  0.192776  0.574954  0  4.257818  0
C  C68  1  0.05967714  0.36616334  0.41737105  1  0  0.289993  0  3.763304  0  0  0.270693  0  4.041595  0  0  0.284253  0  4.058573  0  0.647083  0  0.151452  0.261597  0  4.030148  0
C  C69  1  0.44032423  0.86616456  0.91737084  1  0  0.290023  0  3.763215  0  0  0.27072  0  4.041506  0  0  0.28428  0  4.058484  0  0.647063  0  0.151451  0.261625  0  4.030061  0
C  C70  1  0.94032560  0.63383515  0.58262950  1  0  0.289958  0  3.763207  0  0  0.270648  0  4.041531  0  0  0.284209  0  4.058508  0  0.647064  0  0.151413  0.261552  0  4.030085  0
C  C71  1  0.55967483  0.13383690  0.08262911  1  0  0.289851  0  3.763308  0  0  0.27057  0  4.041568  0  0  0.284131  0  4.058545  0  0.647067  0  0.151396  0.261474  0  4.030121  0
C  C72  1  0.91663276  0.32742509  0.44644456  1  0  -0.151059  0  3.695095  0  0  -0.132982  0  3.936072  0  0  -0.145226  0  3.956694  0  0.01696  0  -0.013827  -0.125399  0  3.922521  0
C  C73  1  0.58336767  0.82742731  0.94644450  1  0  -0.15115  0  3.695136  0  0  -0.133062  0  3.93609  0  0  -0.145306  0  3.956708  0  0.017217  0  -0.013877  -0.12548  0  3.922541  0
C  C74  1  0.08336998  0.67257339  0.55355548  1  0  -0.1511  0  3.695039  0  0  -0.133022  0  3.93603  0  0  -0.145266  0  3.956649  0  0.017326  0  -0.013848  -0.12544  0  3.922477  0
C  C75  1  0.41663139  0.17257415  0.05355597  1  0  -0.151086  0  3.695083  0  0  -0.132999  0  3.93603  0  0  -0.145243  0  3.956647  0  0.017194  0  -0.013835  -0.125417  0  3.92248  0
C  C76  1  0.93903654  0.27009091  0.50232527  1  0  0.003326  0  3.703066  0  0  -0.026422  0  3.955943  0  0  -0.019979  0  3.971521  0  -0.054424  0  -0.063524  -0.030315  0  3.945414  0
C  C77  1  0.56096143  0.77009312  0.00232470  1  0  0.003135  0  3.703183  0  0  -0.026603  0  3.956037  0  0  -0.020161  0  3.971616  0  -0.054678  0  -0.063609  -0.030496  0  3.945509  0
C  C78  1  0.06096497  0.72990857  0.49767542  1  0  0.003266  0  3.702976  0  0  -0.026505  0  3.955829  0  0  -0.020062  0  3.971405  0  -0.0548  0  -0.06354  -0.030388  0  3.945307  0
C  C79  1  0.43903640  0.22990834  0.99767577  1  0  0.003218  0  3.703037  0  0  -0.026535  0  3.955927  0  0  -0.020092  0  3.971505  0  -0.054665  0  -0.06357  -0.030428  0  3.945399  0
C  C80  1  0.09599413  0.25103631  0.52570159  1  0  -0.128759  0  3.743526  0  0  -0.145977  0  4.004492  0  0  -0.153689  0  4.024283  0  -0.006913  0  -0.088663  -0.141324  0  3.991506  0
C  C81  1  0.40400478  0.75103951  0.02570167  1  0  -0.128752  0  3.743507  0  0  -0.145973  0  4.004482  0  0  -0.153682  0  4.024267  0  -0.006862  0  -0.088669  -0.141319  0  3.991496  0
C  C82  1  0.90400615  0.74896416  0.47429924  1  0  -0.128798  0  3.743528  0  0  -0.146021  0  4.004511  0  0  -0.153734  0  4.024305  0  -0.006818  0  -0.0887  -0.141367  0  3.991523  0
C  C83  1  0.59599428  0.24896393  0.97429857  1  0  -0.128787  0  3.74361  0  0  -0.146002  0  4.004578  0  0  -0.153715  0  4.024372  0  -0.006835  0  -0.088712  -0.141348  0  3.991592  0
C  C84  1  0.22974778  0.28929509  0.49192365  1  0  0.169439  0  3.666814  0  0  0.133451  0  3.929637  0  0  0.143047  0  3.944568  0  0.475292  0  0.055466  0.127186  0  3.919696  0
C  C85  1  0.27024745  0.78929632  0.99192293  1  0  0.16948  0  3.666685  0  0  0.133487  0  3.929504  0  0  0.143084  0  3.944433  0  0.475276  0  0.055504  0.127223  0  3.919564  0
C  C86  1  0.77025128  0.71070439  0.50807602  1  0  0.169422  0  3.666808  0  0  0.133417  0  3.929638  0  0  0.143014  0  3.944567  0  0.474951  0  0.055451  0.127153  0  3.919698  0
C  C87  1  0.72974915  0.21070514  0.00807651  1  0  0.169478  0  3.666758  0  0  0.133482  0  3.929595  0  0  0.143078  0  3.944523  0  0.475223  0  0.05551  0.127218  0  3.919654  0
C  C88  1  0.74568801  0.33803465  0.41959890  1  0  0.667988  0  3.901158  0  0  0.614311  0  4.190907  0  0  0.649384  0  4.184807  0  1.622499  0  0.205122  0.590628  0  4.194387  0
C  C89  1  0.75431241  0.83803587  0.91959717  1  0  0.668173  0  3.900815  0  0  0.614507  0  4.190533  0  0  0.649584  0  4.184421  0  1.623023  0  0.205234  0.590825  0  4.194016  0
C  C90  1  0.25431227  0.66196384  0.58040216  1  0  0.668081  0  3.900873  0  0  0.614412  0  4.1906  0  0  0.649487  0  4.184495  0  1.623003  0  0.20517  0.590731  0  4.194081  0
C  C91  1  0.24568787  0.16196460  0.08040265  1  0  0.668189  0  3.900837  0  0  0.614521  0  4.190557  0  0  0.649599  0  4.184443  0  1.623008  0  0.205239  0.590838  0  4.19404  0
N  N92  1  0.29329945  0.71365149  0.31944231  1  0  -0.365656  0  3.196912  0  0  -0.306651  0  3.444846  0  0  -0.322885  0  3.461723  0  -1.236549  0  -0.310861  -0.295648  0  3.433315  0
N  N93  1  0.20670069  0.21365125  0.81944164  1  0  -0.365606  0  3.196827  0  0  -0.306612  0  3.444769  0  0  -0.322846  0  3.461647  0  -1.236531  0  -0.310858  -0.29561  0  3.433236  0
N  N94  1  0.70669838  0.28634898  0.68055852  1  0  -0.365621  0  3.196764  0  0  -0.306605  0  3.44473  0  0  -0.32284  0  3.461609  0  -1.236517  0  -0.310887  -0.295602  0  3.433192  0
N  N95  1  0.79330205  0.78635021  0.18055831  1  0  -0.365651  0  3.196789  0  0  -0.306644  0  3.44473  0  0  -0.322878  0  3.46161  0  -1.236552  0  -0.310896  -0.295641  0  3.433194  0
N  N96  1  0.21081094  0.34621223  0.43880799  1  0  -0.392701  0  3.264397  0  0  -0.325068  0  3.531598  0  0  -0.34605  0  3.5489  0  -1.220787  0  -0.327651  -0.310912  0  3.519669  0
N  N97  1  0.28919043  0.84621345  0.93880677  1  0  -0.392734  0  3.264245  0  0  -0.32512  0  3.531479  0  0  -0.346102  0  3.54878  0  -1.220818  0  -0.327689  -0.310961  0  3.519547  0
N  N98  1  0.78919057  0.65378725  0.56119270  1  0  -0.392657  0  3.264258  0  0  -0.325032  0  3.531477  0  0  -0.346013  0  3.548778  0  -1.220499  0  -0.327629  -0.310876  0  3.51955  0
N  N99  1  0.71080985  0.15378801  0.06119319  1  0  -0.392613  0  3.264313  0  0  -0.324981  0  3.531505  0  0  -0.345963  0  3.548807  0  -1.220772  0  -0.327647  -0.310824  0  3.519574  0
Cl  Cl100  1  0.37318162  0.91313883  0.42573013  1  0  -0.087437  0  1.329003  0  0  -0.069709  0  1.552417  0  0  -0.072555  0  1.544207  0  -0.203131  0  0.022693  -0.067432  0  1.558239  0
Cl  Cl101  1  0.12681852  0.41313860  0.92573048  1  0  -0.087453  0  1.329018  0  0  -0.069725  0  1.552423  0  0  -0.072572  0  1.544214  0  -0.203133  0  0.022684  -0.06745  0  1.558248  0
Cl  Cl102  1  0.62681744  0.08686164  0.57426917  1  0  -0.087436  0  1.328999  0  0  -0.069685  0  1.552422  0  0  -0.072531  0  1.544213  0  -0.203173  0  0.022708  -0.067408  0  1.558246  0
Cl  Cl103  1  0.87318299  0.58686385  0.07426911  1  0  -0.087442  0  1.328978  0  0  -0.069704  0  1.552395  0  0  -0.072549  0  1.544186  0  -0.20317  0  0.022705  -0.067427  0  1.558219  0
Cl  Cl104  1  0.05197472  0.44615303  0.35153614  1  0  -0.045936  0  1.420124  0  0  -0.027261  0  1.670303  0  0  -0.031818  0  1.664179  0  -0.164809  0  0.059002  -0.02396  0  1.674624  0
Cl  Cl105  1  0.44802787  0.94615426  0.85153543  1  0  -0.045908  0  1.420054  0  0  -0.027231  0  1.670236  0  0  -0.031788  0  1.664112  0  -0.164849  0  0.059022  -0.02393  0  1.674556  0
Cl  Cl106  1  0.94802679  0.55384446  0.64846324  1  0  -0.045917  0  1.420139  0  0  -0.027225  0  1.670315  0  0  -0.031781  0  1.664192  0  -0.164834  0  0.059018  -0.023923  0  1.674634  0
Cl  Cl107  1  0.55197364  0.05384720  0.14846453  1  0  -0.045895  0  1.420052  0  0  -0.02723  0  1.67022  0  0  -0.031787  0  1.664096  0  -0.16482  0  0.059015  -0.023928  0  1.67454  0
O  O108  1  0.45620417  0.11198181  0.34141891  1  0  -0.63184  0  1.967942  0  0  -0.576282  0  2.208978  0  0  -0.606018  0  2.200485  0  -1.138731  0  -0.329356  -0.554749  0  2.213577  0
O  O109  1  0.04379475  0.61198105  0.84141893  1  0  -0.631805  0  1.967902  0  0  -0.576244  0  2.208951  0  0  -0.60598  0  2.200459  0  -1.138744  0  -0.329343  -0.55471  0  2.213549  0
O  O110  1  0.54379120  0.88801866  0.65858243  1  0  -0.631859  0  1.967875  0  0  -0.576297  0  2.208902  0  0  -0.60603  0  2.20041  0  -1.138821  0  -0.329362  -0.554764  0  2.213501  0
O  O111  1  0.95621168  0.38802041  0.15858307  1  0  -0.631811  0  1.967805  0  0  -0.576223  0  2.208852  0  0  -0.605958  0  2.200364  0  -1.138842  0  -0.329294  -0.55469  0  2.213449  0
O  O112  1  0.20902099  0.14780466  0.30005292  1  0  -0.642361  0  2.033885  0  0  -0.579294  0  2.260958  0  0  -0.608438  0  2.253873  0  -1.184136  0  -0.313799  -0.559079  0  2.264841  0
O  O113  1  0.29097915  0.64780489  0.80005409  1  0  -0.642399  0  2.033871  0  0  -0.579328  0  2.260953  0  0  -0.608465  0  2.253857  0  -1.184032  0  -0.313802  -0.559113  0  2.264837  0
O  O114  1  0.79097561  0.85219185  0.69994378  1  0  -0.642424  0  2.033699  0  0  -0.579384  0  2.260788  0  0  -0.608539  0  2.253724  0  -1.184003  0  -0.313843  -0.559169  0  2.264673  0
O  O115  1  0.70902727  0.35219360  0.19994492  1  0  -0.642457  0  2.03368  0  0  -0.579372  0  2.260776  0  0  -0.60852  0  2.253703  0  -1.183909  0  -0.313872  -0.559157  0  2.26466  0
O  O116  1  0.72568555  0.32373701  0.35367460  1  0  -0.635633  0  2.032662  0  0  -0.566073  0  2.266272  0  0  -0.595672  0  2.256969  0  -1.160101  0  -0.311881  -0.545602  0  2.272166  0
O  O117  1  0.77431487  0.82373725  0.85367374  1  0  -0.635685  0  2.03261  0  0  -0.566122  0  2.266205  0  0  -0.59572  0  2.256897  0  -1.160156  0  -0.311887  -0.545651  0  2.272102  0
O  O118  1  0.27431473  0.67626148  0.64632595  1  0  -0.635671  0  2.032605  0  0  -0.566101  0  2.266204  0  0  -0.5957  0  2.256899  0  -1.16014  0  -0.311869  -0.54563  0  2.272101  0
O  O119  1  0.22568541  0.17626223  0.14632593  1  0  -0.635649  0  2.032596  0  0  -0.566092  0  2.266199  0  0  -0.595692  0  2.256891  0  -1.160148  0  -0.311875  -0.545621  0  2.272096  0
O  O120  1  0.62719188  0.35648497  0.46312819  1  0  -0.627003  0  1.977066  0  0  -0.560313  0  2.205582  0  0  -0.589341  0  2.196607  0  -1.171886  0  -0.310267  -0.540158  0  2.211198  0
O  O121  1  0.87280855  0.85648718  0.96312762  1  0  -0.627071  0  1.976943  0  0  -0.560405  0  2.205471  0  0  -0.589436  0  2.196495  0  -1.17237  0  -0.31031  -0.54025  0  2.211087  0
O  O122  1  0.37281086  0.64351451  0.53687250  1  0  -0.62701  0  1.976914  0  0  -0.560344  0  2.205445  0  0  -0.589374  0  2.196472  0  -1.172397  0  -0.310276  -0.540188  0  2.211058  0
O  O123  1  0.12719051  0.14351527  0.03687299  1  0  -0.627141  0  1.976994  0  0  -0.560453  0  2.205501  0  0  -0.589484  0  2.196522  0  -1.172377  0  -0.31033  -0.540298  0  2.211117  0
O  O124  1  0.45069192  0.56976969  0.39849667  1  0  -0.847685  0  1.917361  0  0  -0.787993  0  2.13243  0  0  -0.81171  0  2.098003  0  -1.268453  0  -0.596126  -0.770794  0  2.156053  0
O  O125  1  0.04930822  0.06977045  0.89849614  1  0  -0.847687  0  1.917359  0  0  -0.788003  0  2.132452  0  0  -0.811718  0  2.098023  0  -1.268414  0  -0.596137  -0.770804  0  2.156075  0
O  O126  1  0.54930836  0.43022979  0.60150402  1  0  -0.847687  0  1.917361  0  0  -0.788004  0  2.132463  0  0  -0.81172  0  2.098036  0  -1.268372  0  -0.596144  -0.770806  0  2.156085  0
O  O127  1  0.95069206  0.93023101  0.10150331  1  0  -0.847698  0  1.917333  0  0  -0.787997  0  2.132386  0  0  -0.811714  0  2.097959  0  -1.268453  0  -0.596144  -0.770799  0  2.156009  0
O  O128  1  0.40481136  0.36342328  0.24616492  1  0  -0.846616  0  1.875086  0  0  -0.779845  0  2.073824  0  0  -0.804326  0  2.038088  0  -1.270947  0  -0.587656  -0.76253  0  2.09828  0
O  O129  1  0.09518878  0.86341856  0.74616335  1  0  -0.846623  0  1.875088  0  0  -0.779868  0  2.073849  0  0  -0.804353  0  2.038121  0  -1.270918  0  -0.587645  -0.762551  0  2.098305  0
O  O130  1  0.59519138  0.63657719  0.75383490  1  0  -0.846647  0  1.875063  0  0  -0.779865  0  2.073811  0  0  -0.804346  0  2.038068  0  -1.2709  0  -0.587671  -0.76255  0  2.098265  0
O  O131  1  0.90480782  0.13657695  0.25383524  1  0  -0.846635  0  1.875067  0  0  -0.779853  0  2.073816  0  0  -0.804334  0  2.038074  0  -1.270883  0  -0.587655  -0.762537  0  2.098272  0
