# generated using pymatgen
data_SnH8C14(NO2)2
_symmetry_space_group_name_H-M   'P 1'
_cell_length_a   8.89794937
_cell_length_b   9.57002802
_cell_length_c   16.40700000
_cell_angle_alpha   90.00000000
_cell_angle_beta   90.00000000
_cell_angle_gamma   113.58955057
_symmetry_Int_Tables_number   1
_chemical_formula_structural   SnH8C14(NO2)2
_chemical_formula_sum   'Sn4 H32 C56 N8 O16'
_cell_volume   1280.36658243
_cell_formula_units_Z   4
loop_
 _symmetry_equiv_pos_site_id
 _symmetry_equiv_pos_as_xyz
  1  'x, y, z'
loop_
 _atom_site_type_symbol
 _atom_site_label
 _atom_site_symmetry_multiplicity
 _atom_site_fract_x
 _atom_site_fract_y
 _atom_site_fract_z
 _atom_site_occupancy
 _atom_site_hle17_bader_spin_density
 _atom_site_hle17_ddec_charge
 _atom_site_hle17_ddec_spin_density
 _atom_site_hle17_ddec_sum_bond_order
 _atom_site_hle17_magmom
 _atom_site_hse06_10hf_bader_spin_density
 _atom_site_hse06_10hf_ddec_charge
 _atom_site_hse06_10hf_ddec_spin_density
 _atom_site_hse06_10hf_ddec_sum_bond_order
 _atom_site_hse06_10hf_magmom
 _atom_site_hse06_bader_spin_density
 _atom_site_hse06_ddec_charge
 _atom_site_hse06_ddec_spin_density
 _atom_site_hse06_ddec_sum_bond_order
 _atom_site_hse06_magmom
 _atom_site_pbe_bader_charge
 _atom_site_pbe_bader_spin_density
 _atom_site_pbe_cm5_charge
 _atom_site_pbe_ddec_charge
 _atom_site_pbe_ddec_spin_density
 _atom_site_pbe_ddec_sum_bond_order
 _atom_site_pbe_magmom
Sn  Sn0  1  0.94589373  0.89206938  0.61863290  1  0  0.969  0  1.992921  0  0  0.76668  0  2.457999  0  0  0.810496  0  2.436108  0  1.399692  0  0.495392  0.735479  0  2.472734  0
Sn  Sn1  1  0.55411341  0.10794252  0.11864021  1  0  0.968985  0  1.992975  0  0  0.766673  0  2.458123  0  0  0.810477  0  2.436227  0  1.399635  0  0.495277  0.735496  0  2.472817  0
Sn  Sn2  1  0.05410728  0.10793226  0.38136832  1  0  0.968981  0  1.992961  0  0  0.76665  0  2.458031  0  0  0.810463  0  2.436139  0  1.399651  0  0.495367  0.735444  0  2.472772  0
Sn  Sn3  1  0.44588612  0.89205570  0.88135735  1  0  0.968921  0  1.993058  0  0  0.766623  0  2.458167  0  0  0.810437  0  2.436269  0  1.399729  0  0.495235  0.735416  0  2.472909  0
H  H4  1  0.86286532  0.27783835  0.58713964  1  0  0.115425  0  0.950457  0  0  0.124125  0  1.011206  0  0  0.128436  0  1.008562  0  0.128981  0  0.10773  0.121725  0  1.01186  0
H  H5  1  0.63713550  0.72216671  0.08713720  1  0  0.115489  0  0.950339  0  0  0.124126  0  1.011159  0  0  0.128435  0  1.00852  0  0.129123  0  0.107738  0.121723  0  1.011816  0
H  H6  1  0.13713926  0.72216899  0.41286219  1  0  0.115481  0  0.950321  0  0  0.124109  0  1.011157  0  0  0.12842  0  1.008515  0  0.129118  0  0.107734  0.121708  0  1.011811  0
H  H7  1  0.36286066  0.27783151  0.91286158  1  0  0.115463  0  0.950375  0  0  0.124102  0  1.011198  0  0  0.128411  0  1.00856  0  0.129069  0  0.107722  0.121699  0  1.011855  0
H  H8  1  0.62487362  0.34041990  0.33187176  1  0  0.111837  0  0.955808  0  0  0.120069  0  1.019151  0  0  0.123272  0  1.017454  0  0.126925  0  0.105228  0.117345  0  1.021612  0
H  H9  1  0.87512721  0.65958516  0.83186932  1  0  0.11184  0  0.955751  0  0  0.120125  0  1.019045  0  0  0.123328  0  1.017346  0  0.12839  0  0.10521  0.117397  0  1.021515  0
H  H10  1  0.37512851  0.65958174  0.66812946  1  0  0.111789  0  0.955819  0  0  0.120045  0  1.019147  0  0  0.123247  0  1.01745  0  0.128452  0  0.105208  0.117321  0  1.021608  0
H  H11  1  0.12487878  0.34041762  0.16813129  1  0  0.111897  0  0.955773  0  0  0.120095  0  1.01915  0  0  0.123297  0  1.017452  0  0.128405  0  0.105212  0.117371  0  1.021609  0
H  H12  1  0.92124264  0.52620911  0.65777839  1  0  0.084924  0  0.956738  0  0  0.092189  0  1.02078  0  0  0.095243  0  1.017313  0  0.112869  0  0.117424  0.089946  0  1.023215  0
H  H13  1  0.57875706  0.47379595  0.15777656  1  0  0.084947  0  0.956704  0  0  0.09222  0  1.020751  0  0  0.095273  0  1.017286  0  0.112922  0  0.117436  0.089979  0  1.023185  0
H  H14  1  0.07875871  0.47379595  0.34222222  1  0  0.084959  0  0.956644  0  0  0.092223  0  1.0207  0  0  0.095278  0  1.017232  0  0.112807  0  0.117434  0.089984  0  1.02313  0
H  H15  1  0.42123475  0.52619999  0.84222100  1  0  0.084942  0  0.956734  0  0  0.092202  0  1.020782  0  0  0.095258  0  1.017311  0  0.112926  0  0.117422  0.089937  0  1.023241  0
H  H16  1  0.74643080  0.24363547  0.44433717  1  0  0.09642  0  0.962478  0  0  0.107953  0  1.026722  0  0  0.110325  0  1.025263  0  0.080484  0  0.106506  0.105994  0  1.027973  0
H  H17  1  0.75357663  0.75637187  0.94433656  1  0  0.096414  0  0.962398  0  0  0.107908  0  1.026697  0  0  0.11028  0  1.025238  0  0.080391  0  0.106494  0.10595  0  1.027947  0
H  H18  1  0.25357793  0.75636845  0.55566405  1  0  0.096435  0  0.962421  0  0  0.107927  0  1.026718  0  0  0.110296  0  1.025263  0  0.080411  0  0.106489  0.105968  0  1.027969  0
H  H19  1  0.24642936  0.24363091  0.05566405  1  0  0.096405  0  0.96245  0  0  0.107936  0  1.026702  0  0  0.110308  0  1.025242  0  0.0804  0  0.106484  0.105977  0  1.027954  0
H  H20  1  0.68142558  0.02491815  0.52553239  1  0  0.075024  0  0.971991  0  0  0.082047  0  1.041482  0  0  0.084325  0  1.039525  0  0.086724  0  0.11243  0.080814  0  1.041555  0
H  H21  1  0.81857524  0.97508692  0.02552996  1  0  0.075037  0  0.971953  0  0  0.082061  0  1.041441  0  0  0.084338  0  1.039487  0  0.086911  0  0.112451  0.080827  0  1.041517  0
H  H22  1  0.31857591  0.97508464  0.47446821  1  0  0.075051  0  0.971967  0  0  0.082069  0  1.04146  0  0  0.084348  0  1.039503  0  0.086759  0  0.112443  0.080836  0  1.041535  0
H  H23  1  0.18142365  0.02491244  0.97446882  1  0  0.075037  0  0.971941  0  0  0.082053  0  1.041435  0  0  0.084332  0  1.039477  0  0.086781  0  0.11244  0.080819  0  1.041511  0
H  H24  1  0.49512082  0.78131168  0.30153654  1  0  0.117287  0  0.928509  0  0  0.127105  0  0.987286  0  0  0.130985  0  0.983812  0  0.11606  0  0.114183  0.124256  0  0.989825  0
H  H25  1  0.00488218  0.21869338  0.80153532  1  0  0.117224  0  0.928523  0  0  0.127095  0  0.987249  0  0  0.130973  0  0.983772  0  0.11597  0  0.114166  0.124243  0  0.98978  0
H  H26  1  0.50488454  0.21869224  0.69846346  1  0  0.117275  0  0.928482  0  0  0.127106  0  0.987246  0  0  0.130984  0  0.983772  0  0.116038  0  0.114184  0.124258  0  0.989779  0
H  H27  1  0.99511398  0.78130484  0.19846285  1  0  0.11722  0  0.928546  0  0  0.127079  0  0.987279  0  0  0.130956  0  0.983804  0  0.11599  0  0.114178  0.124229  0  0.989816  0
H  H28  1  0.54334166  0.00580367  0.38887060  1  0  0.107365  0  0.953044  0  0  0.117063  0  1.012993  0  0  0.119688  0  1.012872  0  0.091091  0  0.106443  0.114436  0  1.014591  0
H  H29  1  0.95666190  0.99420253  0.88886878  1  0  0.107286  0  0.953159  0  0  0.117004  0  1.013079  0  0  0.11962  0  1.012962  0  0.091089  0  0.106443  0.114373  0  1.014686  0
H  H30  1  0.45666418  0.99420139  0.61112879  1  0  0.107365  0  0.953109  0  0  0.117071  0  1.013045  0  0  0.119691  0  1.012926  0  0.091092  0  0.106459  0.114441  0  1.014646  0
H  H31  1  0.04333749  0.00579797  0.11113001  1  0  0.107351  0  0.953107  0  0  0.117063  0  1.013036  0  0  0.119681  0  1.012919  0  0.090887  0  0.106458  0.114434  0  1.014635  0
H  H32  1  0.52453804  0.53163309  0.28186079  1  0  0.105943  0  0.93999  0  0  0.118776  0  0.996225  0  0  0.121748  0  0.994871  0  0.087261  0  0.109618  0.116694  0  0.997123  0
H  H33  1  0.97546504  0.46837197  0.78185957  1  0  0.10595  0  0.93996  0  0  0.118765  0  0.996209  0  0  0.121736  0  0.994855  0  0.087215  0  0.10961  0.116686  0  0.997104  0
H  H34  1  0.47546409  0.46836855  0.71814043  1  0  0.105995  0  0.939891  0  0  0.118821  0  0.996126  0  0  0.121792  0  0.994772  0  0.087445  0  0.109635  0.116741  0  0.997022  0
H  H35  1  0.02454046  0.53162967  0.21814043  1  0  0.105917  0  0.940019  0  0  0.118745  0  0.996261  0  0  0.121715  0  0.994914  0  0.087205  0  0.109588  0.116666  0  0.997154  0
C  C36  1  0.69213090  0.82201033  0.75341562  1  0  0.52703  0  3.872668  0  0  0.477857  0  4.165655  0  0  0.508621  0  4.157226  0  1.576698  0  0.220341  0.456749  0  4.171144  0
C  C37  1  0.80789381  0.17799017  0.25343817  1  0  0.527324  0  3.872453  0  0  0.478096  0  4.165524  0  0  0.508856  0  4.1571  0  1.57727  0  0.220309  0.456987  0  4.171021  0
C  C38  1  0.30787088  0.17798789  0.24658378  1  0  0.526954  0  3.872666  0  0  0.477787  0  4.165646  0  0  0.508545  0  4.157223  0  1.57675  0  0.220284  0.456679  0  4.171134  0
C  C39  1  0.19209863  0.82200463  0.74655818  1  0  0.527389  0  3.872505  0  0  0.478194  0  4.165513  0  0  0.508956  0  4.157086  0  1.577458  0  0.220392  0.457086  0  4.171005  0
C  C40  1  0.68496901  0.69976843  0.46555068  1  0  0.12589  0  3.76172  0  0  0.119786  0  3.998576  0  0  0.124329  0  4.020163  0  0.472489  0  0.11928  0.116942  0  3.983206  0
C  C41  1  0.81502922  0.30023321  0.96554824  1  0  0.125899  0  3.761567  0  0  0.119673  0  3.998574  0  0  0.124212  0  4.020164  0  0.472482  0  0.119218  0.116825  0  3.983206  0
C  C42  1  0.31503249  0.30023435  0.53444993  1  0  0.125954  0  3.761529  0  0  0.119826  0  3.998449  0  0  0.124365  0  4.020035  0  0.472464  0  0.119284  0.116983  0  3.98308  0
C  C43  1  0.18496645  0.69976387  0.03445054  1  0  0.125951  0  3.761534  0  0  0.119802  0  3.998449  0  0  0.124343  0  4.020036  0  0.472564  0  0.119261  0.116963  0  3.983083  0
C  C44  1  0.74134760  0.58725823  0.49540135  1  0  0.119825  0  3.755139  0  0  0.114354  0  3.98983  0  0  0.11838  0  4.011744  0  0.497237  0  0.119004  0.111884  0  3.974669  0
C  C45  1  0.75865337  0.41274455  0.99539952  1  0  0.119878  0  3.754906  0  0  0.114402  0  3.989684  0  0  0.118438  0  4.011581  0  0.497235  0  0.119008  0.111914  0  3.974549  0
C  C46  1  0.25865615  0.41274455  0.50459987  1  0  0.119843  0  3.755108  0  0  0.114322  0  3.989871  0  0  0.118362  0  4.011766  0  0.497205  0  0.118955  0.111836  0  3.974728  0
C  C47  1  0.24134553  0.58725481  0.00459926  1  0  0.119806  0  3.755052  0  0  0.114308  0  3.989826  0  0  0.118343  0  4.011724  0  0.497234  0  0.118961  0.111796  0  3.97472  0
C  C48  1  0.69524217  0.97580981  0.72059060  1  0  0.521765  0  3.927885  0  0  0.475401  0  4.221888  0  0  0.505069  0  4.215072  0  1.596819  0  0.209174  0.455219  0  4.226221  0
C  C49  1  0.80478655  0.02418955  0.22060279  1  0  0.521791  0  3.927415  0  0  0.475366  0  4.221587  0  0  0.505025  0  4.214797  0  1.597283  0  0.209161  0.455188  0  4.225918  0
C  C50  1  0.30475526  0.02418613  0.27941245  1  0  0.521787  0  3.927678  0  0  0.475421  0  4.221682  0  0  0.505087  0  4.214867  0  1.59728  0  0.209131  0.455239  0  4.226016  0
C  C51  1  0.19520849  0.97580867  0.77939538  1  0  0.52168  0  3.927651  0  0  0.475248  0  4.221818  0  0  0.504912  0  4.215021  0  1.597297  0  0.209082  0.455072  0  4.226148  0
C  C52  1  0.83070103  0.36443500  0.55779180  1  0  -0.121052  0  3.732691  0  0  -0.133864  0  3.989381  0  0  -0.140907  0  4.010267  0  -0.06042  0  -0.084396  -0.130101  0  3.975527  0
C  C53  1  0.66930043  0.63556892  0.05778997  1  0  -0.121194  0  3.732638  0  0  -0.133936  0  3.989326  0  0  -0.140982  0  4.010216  0  -0.060337  0  -0.084434  -0.130172  0  3.975474  0
C  C54  1  0.16930482  0.63557006  0.44220942  1  0  -0.121172  0  3.732591  0  0  -0.133918  0  3.989291  0  0  -0.14096  0  4.010171  0  -0.060257  0  -0.084464  -0.130155  0  3.975439  0
C  C55  1  0.33069910  0.36442930  0.94220881  1  0  -0.121199  0  3.732664  0  0  -0.133952  0  3.98935  0  0  -0.140998  0  4.010239  0  -0.060484  0  -0.084448  -0.130189  0  3.975493  0
C  C56  1  0.63835185  0.43917006  0.36900043  1  0  -0.08372  0  3.70349  0  0  -0.109587  0  3.962406  0  0  -0.111989  0  3.983669  0  -0.039048  0  -0.082614  -0.107661  0  3.948267  0
C  C57  1  0.86164800  0.56083273  0.86899921  1  0  -0.083805  0  3.703654  0  0  -0.109719  0  3.962563  0  0  -0.112121  0  3.983827  0  -0.040793  0  -0.082657  -0.107794  0  3.948426  0
C  C58  1  0.36165190  0.56083273  0.63099957  1  0  -0.083606  0  3.703578  0  0  -0.109507  0  3.962452  0  0  -0.11191  0  3.983718  0  -0.040653  0  -0.082563  -0.107584  0  3.948315  0
C  C59  1  0.13835638  0.43916892  0.13100079  1  0  -0.083911  0  3.703796  0  0  -0.10975  0  3.962723  0  0  -0.112152  0  3.983989  0  -0.040844  0  -0.082655  -0.107825  0  3.948585  0
C  C60  1  0.85961852  0.50162049  0.59892912  1  0  0.149644  0  3.676445  0  0  0.116431  0  3.932102  0  0  0.12493  0  3.947449  0  0.512585  0  0.058955  0.111018  0  3.922035  0
C  C61  1  0.64037957  0.49838343  0.09892668  1  0  0.149632  0  3.676411  0  0  0.116398  0  3.932052  0  0  0.124893  0  3.947403  0  0.512334  0  0.058939  0.110984  0  3.921982  0
C  C62  1  0.14038459  0.49838343  0.40107271  1  0  0.149613  0  3.676416  0  0  0.116388  0  3.932072  0  0  0.124886  0  3.947425  0  0.512723  0  0.058947  0.110973  0  3.922  0
C  C63  1  0.35961224  0.50161251  0.90107027  1  0  0.149656  0  3.676469  0  0  0.116456  0  3.93208  0  0  0.12495  0  3.947433  0  0.512619  0  0.058952  0.111061  0  3.922016  0
C  C64  1  0.71433168  0.45548304  0.44736027  1  0  0.028597  0  3.782909  0  0  0.044963  0  4.014948  0  0  0.042537  0  4.039264  0  -0.016758  0  -0.001751  0.046329  0  3.998376  0
C  C65  1  0.78566655  0.54451860  0.94735723  1  0  0.028672  0  3.78287  0  0  0.045026  0  4.014956  0  0  0.042595  0  4.039272  0  -0.016619  0  -0.001715  0.046396  0  3.998387  0
C  C66  1  0.28567256  0.54452088  0.55264095  1  0  0.028587  0  3.782984  0  0  0.045019  0  4.014948  0  0  0.04259  0  4.039259  0  -0.016636  0  -0.001716  0.046389  0  3.99838  0
C  C67  1  0.21433234  0.45548076  0.05264216  1  0  0.028718  0  3.782987  0  0  0.045073  0  4.015055  0  0  0.042642  0  4.039372  0  -0.016364  0  -0.001733  0.046451  0  3.998492  0
C  C68  1  0.76286326  0.34396710  0.48067959  1  0  -0.045925  0  3.690881  0  0  -0.073345  0  3.94293  0  0  -0.071142  0  3.962039  0  -0.006417  0  -0.06528  -0.074509  0  3.930038  0
C  C69  1  0.73713707  0.65603682  0.98067776  1  0  -0.045914  0  3.690799  0  0  -0.073287  0  3.942843  0  0  -0.071084  0  3.961955  0  -0.006568  0  -0.065285  -0.07445  0  3.929946  0
C  C70  1  0.23714259  0.65603796  0.51932163  1  0  -0.045951  0  3.690869  0  0  -0.073352  0  3.942898  0  0  -0.071147  0  3.962006  0  -0.006822  0  -0.065273  -0.074517  0  3.930006  0
C  C71  1  0.26286183  0.34396254  0.01932163  1  0  -0.045922  0  3.690926  0  0  -0.073319  0  3.942943  0  0  -0.071117  0  3.962058  0  -0.006567  0  -0.065275  -0.074483  0  3.930049  0
C  C72  1  0.60753597  0.67854115  0.38778387  1  0  0.02992  0  3.778681  0  0  0.047748  0  4.008657  0  0  0.045634  0  4.032376  0  -0.011424  0  0.00163  0.049222  0  3.992587  0
C  C73  1  0.89246387  0.32146164  0.88778326  1  0  0.029975  0  3.778538  0  0  0.047872  0  4.008509  0  0  0.045757  0  4.032231  0  -0.011409  0  0.00165  0.049372  0  3.992401  0
C  C74  1  0.39246616  0.32146050  0.61221613  1  0  0.029957  0  3.778605  0  0  0.047778  0  4.00861  0  0  0.045665  0  4.03233  0  -0.011411  0  0.00165  0.049265  0  3.992525  0
C  C75  1  0.10753341  0.67853659  0.11221674  1  0  0.029919  0  3.77858  0  0  0.0478  0  4.008524  0  0  0.045685  0  4.032243  0  -0.011413  0  0.001656  0.0493  0  3.992415  0
C  C76  1  0.65834726  0.92798713  0.48513196  1  0  0.092565  0  3.782793  0  0  0.063307  0  4.042634  0  0  0.069892  0  4.062466  0  0.498181  0  0.043332  0.059388  0  4.028051  0
C  C77  1  0.84165258  0.07201565  0.98512891  1  0  0.092564  0  3.782856  0  0  0.063297  0  4.042696  0  0  0.069881  0  4.06253  0  0.498035  0  0.043324  0.059375  0  4.02812  0
C  C78  1  0.34165374  0.07201451  0.51486926  1  0  0.092589  0  3.782778  0  0  0.06334  0  4.04261  0  0  0.069926  0  4.062438  0  0.498195  0  0.043341  0.059421  0  4.028028  0
C  C79  1  0.15834470  0.92798257  0.01486926  1  0  0.092648  0  3.782694  0  0  0.06341  0  4.042512  0  0  0.069994  0  4.062345  0  0.498249  0  0.043392  0.059488  0  4.027935  0
C  C80  1  0.55514166  0.79148007  0.36051746  1  0  -0.02557  0  3.658176  0  0  -0.054215  0  3.910321  0  0  -0.050898  0  3.926411  0  0.014445  0  -0.058109  -0.056422  0  3.899616  0
C  C81  1  0.94486141  0.20852499  0.86051502  1  0  -0.025622  0  3.658009  0  0  -0.054333  0  3.910178  0  0  -0.051014  0  3.926264  0  0.014371  0  -0.058172  -0.056537  0  3.899457  0
C  C82  1  0.44486159  0.20852157  0.63948254  1  0  -0.025601  0  3.658097  0  0  -0.054251  0  3.910263  0  0  -0.050931  0  3.926348  0  0.014392  0  -0.058145  -0.056463  0  3.899559  0
C  C83  1  0.05513749  0.79147437  0.13948376  1  0  -0.025595  0  3.658127  0  0  -0.054289  0  3.910291  0  0  -0.050968  0  3.926374  0  0.014425  0  -0.058184  -0.056507  0  3.899589  0
C  C84  1  0.58186449  0.91703085  0.40917596  1  0  -0.12666  0  3.758005  0  0  -0.142038  0  4.021681  0  0  -0.149524  0  4.044207  0  -0.077643  0  -0.088536  -0.136898  0  4.0065  0
C  C85  1  0.91813648  0.08297193  0.90917535  1  0  -0.126564  0  3.758105  0  0  -0.14195  0  4.021806  0  0  -0.149424  0  4.04432  0  -0.077548  0  -0.088494  -0.13681  0  4.006623  0
C  C86  1  0.41813925  0.08297193  0.59082343  1  0  -0.126699  0  3.758074  0  0  -0.142097  0  4.021774  0  0  -0.149576  0  4.04429  0  -0.077597  0  -0.088555  -0.136953  0  4.006589  0
C  C87  1  0.08186080  0.91702629  0.09082343  1  0  -0.126655  0  3.758055  0  0  -0.142048  0  4.021755  0  0  -0.149527  0  4.044273  0  -0.077381  0  -0.088531  -0.136907  0  4.006572  0
C  C88  1  0.58598304  0.54615480  0.34067959  1  0  -0.082954  0  3.716566  0  0  -0.107856  0  3.97171  0  0  -0.110705  0  3.993481  0  -0.02091  0  -0.07909  -0.10575  0  3.956618  0
C  C89  1  0.91401729  0.45384912  0.84067715  1  0  -0.083062  0  3.716505  0  0  -0.107937  0  3.97162  0  0  -0.110787  0  3.993393  0  -0.02084  0  -0.079101  -0.105839  0  3.95652  0
C  C90  1  0.41401796  0.45384684  0.65932102  1  0  -0.083122  0  3.716561  0  0  -0.108007  0  3.97171  0  0  -0.110853  0  3.993476  0  -0.021102  0  -0.079153  -0.105905  0  3.956616  0
C  C91  1  0.08598435  0.54615138  0.15932224  1  0  -0.083002  0  3.716668  0  0  -0.107896  0  3.971776  0  0  -0.110749  0  3.993551  0  -0.021042  0  -0.079109  -0.105797  0  3.956676  0
N  N92  1  0.81900222  0.61092214  0.56855367  1  0  -0.32088  0  3.19459  0  0  -0.252944  0  3.445551  0  0  -0.269682  0  3.465801  0  -1.226198  0  -0.286301  -0.2426  0  3.432145  0
N  N93  1  0.68099811  0.38908178  0.06855245  1  0  -0.320887  0  3.194659  0  0  -0.252906  0  3.445601  0  0  -0.269643  0  3.465845  0  -1.226074  0  -0.286255  -0.242559  0  3.432204  0
N  N94  1  0.18100152  0.38908064  0.43144755  1  0  -0.320822  0  3.194634  0  0  -0.252869  0  3.445615  0  0  -0.269615  0  3.465866  0  -1.226115  0  -0.286233  -0.242518  0  3.432211  0
N  N95  1  0.31899433  0.61091302  0.93144511  1  0  -0.320834  0  3.19465  0  0  -0.252874  0  3.445579  0  0  -0.269611  0  3.465825  0  -1.226228  0  -0.286199  -0.242516  0  3.432176  0
N  N96  1  0.70728076  0.82232959  0.51316877  1  0  -0.363235  0  3.276487  0  0  -0.298525  0  3.53091  0  0  -0.315971  0  3.553508  0  -1.257086  0  -0.297975  -0.286129  0  3.51531  0
N  N97  1  0.79271586  0.17767092  0.01316694  1  0  -0.363205  0  3.276382  0  0  -0.298443  0  3.530822  0  0  -0.31589  0  3.553425  0  -1.25688  0  -0.297939  -0.286054  0  3.515231  0
N  N98  1  0.29271863  0.17767092  0.48683245  1  0  -0.363243  0  3.276428  0  0  -0.298518  0  3.530859  0  0  -0.315966  0  3.55346  0  -1.25704  0  -0.297955  -0.286126  0  3.51526  0
N  N99  1  0.20728094  0.82232617  0.98683123  1  0  -0.363261  0  3.27637  0  0  -0.298547  0  3.530812  0  0  -0.315996  0  3.553415  0  -1.257076  0  -0.297984  -0.286154  0  3.515217  0
O  O100  1  0.78089043  0.76412872  0.71696837  1  0  -0.528161  0  2.132186  0  0  -0.454945  0  2.380156  0  0  -0.480754  0  2.374255  0  -1.158354  0  -0.264872  -0.437078  0  2.383989  0
O  O101  1  0.71911314  0.23587749  0.21697568  1  0  -0.528581  0  2.131312  0  0  -0.455336  0  2.379325  0  0  -0.481136  0  2.37337  0  -1.158258  0  -0.264951  -0.437465  0  2.383158  0
O  O102  1  0.21911669  0.23587407  0.28303468  1  0  -0.52818  0  2.13223  0  0  -0.454931  0  2.380137  0  0  -0.480734  0  2.374221  0  -1.158334  0  -0.264844  -0.437061  0  2.383966  0
O  O103  1  0.28087945  0.76411503  0.78302188  1  0  -0.528606  0  2.131236  0  0  -0.455376  0  2.379235  0  0  -0.481167  0  2.373253  0  -1.158289  0  -0.264991  -0.4375  0  2.383066  0
O  O104  1  0.79370168  0.03633849  0.66184555  1  0  -0.565564  0  2.043575  0  0  -0.496812  0  2.27963  0  0  -0.521386  0  2.272091  0  -1.174747  0  -0.28439  -0.479043  0  2.28236  0
O  O105  1  0.70630413  0.96366772  0.16183946  1  0  -0.565618  0  2.042436  0  0  -0.496884  0  2.278574  0  0  -0.521439  0  2.27098  0  -1.17444  0  -0.28439  -0.479093  0  2.281259  0
O  O106  1  0.20629658  0.96366201  0.33816115  1  0  -0.565601  0  2.043524  0  0  -0.496816  0  2.279535  0  0  -0.521399  0  2.272013  0  -1.174961  0  -0.284405  -0.479039  0  2.282252  0
O  O107  1  0.29369442  0.03632823  0.83815993  1  0  -0.56557  0  2.042522  0  0  -0.496838  0  2.278659  0  0  -0.521396  0  2.271064  0  -1.174353  0  -0.284341  -0.479047  0  2.281351  0
O  O108  1  0.60406679  0.76106383  0.81400987  1  0  -0.553544  0  2.10026  0  0  -0.489449  0  2.344166  0  0  -0.513684  0  2.338721  0  -1.17957  0  -0.2698  -0.472535  0  2.347792  0
O  O109  1  0.89591678  0.23891158  0.31401658  1  0  -0.553567  0  2.10154  0  0  -0.489372  0  2.345407  0  0  -0.51358  0  2.339944  0  -1.180328  0  -0.269756  -0.472471  0  2.349044  0
O  O110  1  0.39593028  0.23892869  0.18599013  1  0  -0.553501  0  2.100346  0  0  -0.489423  0  2.344274  0  0  -0.513636  0  2.338812  0  -1.179612  0  -0.269776  -0.472517  0  2.347906  0
O  O111  1  0.10407587  0.76108892  0.68598220  1  0  -0.553592  0  2.101751  0  0  -0.489408  0  2.345578  0  0  -0.513635  0  2.340155  0  -1.180529  0  -0.269766  -0.472504  0  2.349205  0
O  O112  1  0.60136906  0.02829203  0.75395380  1  0  -0.561062  0  2.041462  0  0  -0.502155  0  2.275921  0  0  -0.527168  0  2.272277  0  -1.169865  0  -0.283424  -0.484598  0  2.277996  0
O  O113  1  0.89862046  0.97170505  0.25395441  1  0  -0.560949  0  2.042198  0  0  -0.502061  0  2.276738  0  0  -0.52706  0  2.273096  0  -1.170704  0  -0.283369  -0.484506  0  2.278795  0
O  O114  1  0.39861643  0.97169707  0.24604803  1  0  -0.561075  0  2.041373  0  0  -0.502187  0  2.275852  0  0  -0.527197  0  2.272205  0  -1.170111  0  -0.283385  -0.48464  0  2.27794  0
O  O115  1  0.10138005  0.02829545  0.74604559  1  0  -0.560882  0  2.042331  0  0  -0.501983  0  2.276861  0  0  -0.526983  0  2.273218  0  -1.17076  0  -0.283342  -0.484425  0  2.278908  0
