# generated using pymatgen
data_CoH11C17N3O4
_symmetry_space_group_name_H-M   'P 1'
_cell_length_a   10.52814640
_cell_length_b   14.23212975
_cell_length_c   21.24096809
_cell_angle_alpha   90.00004959
_cell_angle_beta   103.11406307
_cell_angle_gamma   90.00090640
_symmetry_Int_Tables_number   1
_chemical_formula_structural   CoH11C17N3O4
_chemical_formula_sum   'Co4 H44 C68 N12 O16'
_cell_volume   3099.69910286
_cell_formula_units_Z   4
loop_
 _symmetry_equiv_pos_site_id
 _symmetry_equiv_pos_as_xyz
  1  'x, y, z'
loop_
 _atom_site_type_symbol
 _atom_site_label
 _atom_site_symmetry_multiplicity
 _atom_site_fract_x
 _atom_site_fract_y
 _atom_site_fract_z
 _atom_site_occupancy
 _atom_site_pbe_bader_charge
 _atom_site_pbe_bader_spin_density
 _atom_site_pbe_cm5_charge
 _atom_site_pbe_ddec_charge
 _atom_site_pbe_ddec_spin_density
 _atom_site_pbe_ddec_sum_bond_order
 _atom_site_pbe_magmom
Co  Co0  1  0.57242660  0.54263482  0.97722340  1  1.198544  2.606379  0.618046  0.777823  2.823867  2.71721  2.592
Co  Co1  1  0.42734805  0.04264800  0.52277967  1  1.199412  2.606322  0.618089  0.777685  2.823414  2.717964  2.592
Co  Co2  1  0.42731716  0.45733959  0.02277262  1  1.199933  2.606381  0.618314  0.77825  2.823304  2.717576  2.592
Co  Co3  1  0.57235251  0.95739948  0.47724033  1  1.198498  2.60647  0.617829  0.777644  2.824093  2.718055  2.592
H  H4  1  0.76149466  0.75666759  0.63205498  1  0.087124  0.000502  0.115564  0.123297  0.000244  0.979385  0.0
H  H5  1  0.23853934  0.25663409  0.86794232  1  0.087198  0.000502  0.115404  0.122978  0.000243  0.979344  0.0
H  H6  1  0.23856816  0.24335038  0.36792735  1  0.087504  0.000503  0.11542  0.123007  0.000244  0.97956  0.0
H  H7  1  0.76142786  0.74331502  0.13207907  1  0.088165  0.000503  0.115502  0.123145  0.000244  0.979623  0.0
H  H8  1  0.82204105  0.66622760  0.73662843  1  0.087842  0.000189  0.112706  0.122613  9.9e-05  0.980164  0.0
H  H9  1  0.17805927  0.16616933  0.76337724  1  0.087964  0.000189  0.112674  0.122694  9.9e-05  0.980165  0.0
H  H10  1  0.17807806  0.33382691  0.26337171  1  0.088436  0.000189  0.112708  0.122691  9.9e-05  0.979983  0.0
H  H11  1  0.82195096  0.83374817  0.23665076  1  0.08895  0.000189  0.11287  0.122784  9.9e-05  0.9802  0.0
H  H12  1  0.61560358  0.86862271  0.82621730  1  0.061515  0.000178  0.112799  0.120099  9.3e-05  0.980294  0.0
H  H13  1  0.38441841  0.36859697  0.67378079  1  0.061391  0.000178  0.112806  0.120072  9.3e-05  0.980287  0.0
H  H14  1  0.38451455  0.13140861  0.17378274  1  0.061263  0.000178  0.112802  0.120004  9.3e-05  0.980489  0.0
H  H15  1  0.61548643  0.63134160  0.32621843  1  0.060768  0.000178  0.112866  0.120072  9.3e-05  0.980387  0.0
H  H16  1  0.54949437  0.95496771  0.72064196  1  0.104136  0.000318  0.109722  0.116526  0.00016  1.00431  0.0
H  H17  1  0.45046927  0.45497103  0.77933630  1  0.10439  0.00032  0.109707  0.116495  0.000161  1.004333  0.0
H  H18  1  0.45055405  0.04505588  0.27934272  1  0.10328  0.00032  0.109666  0.116531  0.000161  1.004217  0.0
H  H19  1  0.54939158  0.54500268  0.22063973  1  0.102641  0.000317  0.109625  0.116472  0.00016  1.004361  0.0
H  H20  1  0.33898310  0.79654829  0.90799928  1  0.080263  0.000421  0.104293  0.10695  0.000224  1.004334  0.0
H  H21  1  0.66100379  0.29635919  0.59200612  1  0.081522  0.000419  0.104305  0.107837  0.000223  1.002979  0.0
H  H22  1  0.66104086  0.20364042  0.09199805  1  0.081984  0.000419  0.104221  0.107628  0.000223  1.003093  0.0
H  H23  1  0.33893954  0.70348594  0.40800491  1  0.08138  0.00042  0.10432  0.107927  0.000224  1.003124  0.0
H  H24  1  0.15518644  0.90006645  0.85186662  1  0.030216  0.000205  0.101516  0.098999  0.000104  0.991143  0.0
H  H25  1  0.84478079  0.39987610  0.64817788  1  0.030263  0.000205  0.101285  0.098866  0.000103  0.991215  0.0
H  H26  1  0.84482856  0.10012578  0.14815996  1  0.03082  0.000205  0.101396  0.099015  0.000103  0.99124  0.0
H  H27  1  0.15515537  0.59996340  0.35187671  1  0.031041  0.000205  0.101378  0.098877  0.000103  0.991381  0.0
H  H28  1  0.92699882  0.85078325  0.84338166  1  0.079157  -8.2e-05  0.099168  0.09729  -0.000126  1.025246  0.0
H  H29  1  0.07296536  0.35062591  0.65666251  1  0.080329  -8.2e-05  0.099378  0.097741  -0.000126  1.025143  0.0
H  H30  1  0.07301551  0.14937595  0.15665004  1  0.078696  -8.3e-05  0.09932  0.097731  -0.000126  1.025095  0.0
H  H31  1  0.92697763  0.64922624  0.34339276  1  0.078302  -8.3e-05  0.099098  0.097218  -0.000126  1.025419  0.0
H  H32  1  0.06278977  0.59725747  0.94972405  1  0.145587  0.000405  0.117826  0.131936  0.000223  0.990834  0.0
H  H33  1  0.93727895  0.09712990  0.55026479  1  0.145188  0.000406  0.117877  0.13201  0.000222  0.990529  0.0
H  H34  1  0.93730570  0.40286660  0.05025303  1  0.145437  0.000406  0.117861  0.131992  0.000223  0.990476  0.0
H  H35  1  0.06270616  0.90274614  0.44974801  1  0.146288  0.000404  0.117731  0.131957  0.000223  0.990665  0.0
H  H36  1  0.44436802  0.60464294  0.83723568  1  0.139005  -2.1e-05  0.108957  0.172259  -7.6e-05  1.015708  0.0
H  H37  1  0.55572044  0.10465294  0.66273958  1  0.138379  -2.1e-05  0.10901  0.172396  -7.6e-05  1.015839  0.0
H  H38  1  0.55576929  0.39535044  0.16271069  1  0.138329  -2.2e-05  0.108805  0.172029  -7.6e-05  1.015892  0.0
H  H39  1  0.44433127  0.89534114  0.33725155  1  0.13835  -2e-05  0.109071  0.172414  -7.5e-05  1.015845  0.0
H  H40  1  0.50229389  0.64672056  0.76907689  1  0.072265  9.4e-05  0.099848  0.141871  3.6e-05  0.986036  0.0
H  H41  1  0.49778152  0.14668009  0.73090794  1  0.072391  9.6e-05  0.09977  0.141746  3.7e-05  0.986189  0.0
H  H42  1  0.49781059  0.35335011  0.23088836  1  0.07231  9.6e-05  0.099769  0.141798  3.7e-05  0.986312  0.0
H  H43  1  0.50225987  0.85331048  0.26908923  1  0.072461  9.4e-05  0.099759  0.141713  3.6e-05  0.986169  0.0
H  H44  1  0.45125620  0.72721633  0.82197675  1  0.049812  6.5e-05  0.100766  0.145039  2.9e-05  0.996299  0.0
H  H45  1  0.54877346  0.22722136  0.67802387  1  0.049609  6.8e-05  0.100732  0.144989  3e-05  0.996391  0.0
H  H46  1  0.54880940  0.27277986  0.17801999  1  0.049565  6.7e-05  0.100777  0.144993  3e-05  0.99663  0.0
H  H47  1  0.45119930  0.77278397  0.32195992  1  0.04971  6.6e-05  0.10078  0.144956  2.9e-05  0.996497  0.0
C  C48  1  0.60104116  0.90856237  0.60706620  1  1.526414  -0.011223  0.212985  0.559364  -0.014734  4.18462  -0.01
C  C49  1  0.39890776  0.40860740  0.89291010  1  1.52688  -0.011272  0.213173  0.560397  -0.014804  4.183475  -0.01
C  C50  1  0.39889699  0.09141204  0.39290570  1  1.526162  -0.011275  0.212823  0.560094  -0.014806  4.183557  -0.01
C  C51  1  0.60104203  0.59142603  0.10706200  1  1.526143  -0.011229  0.213181  0.559912  -0.014738  4.184054  -0.01
C  C52  1  0.65009522  0.85975975  0.67029528  1  -0.022135  0.010935  -0.01037  -0.019737  0.005793  3.950578  0.009
C  C53  1  0.34989432  0.35976335  0.82969819  1  -0.022422  0.01093  -0.010373  -0.020113  0.00579  3.951086  0.009
C  C54  1  0.34991721  0.14024276  0.32968726  1  -0.02204  0.010927  -0.010152  -0.019871  0.005788  3.95112  0.009
C  C55  1  0.65003771  0.64021106  0.17030183  1  -0.02256  0.010933  -0.010464  -0.019736  0.005791  3.950608  0.009
C  C56  1  0.72999977  0.78009260  0.67494504  1  -0.00963  -0.002684  -0.072835  -0.07214  -0.003132  3.950859  -0.002
C  C57  1  0.27004071  0.28007909  0.82505481  1  -0.009206  -0.002703  -0.072606  -0.071449  -0.00315  3.9505  -0.002
C  C58  1  0.27006511  0.21991694  0.32503938  1  -0.008723  -0.002702  -0.072763  -0.071763  -0.003149  3.95085  -0.002
C  C59  1  0.72991958  0.71988127  0.17496449  1  -0.009356  -0.002687  -0.072707  -0.071795  -0.003134  3.950672  -0.002
C  C60  1  0.76400525  0.73028653  0.73291251  1  0.064864  0.002131  -0.085592  -0.170962  0.000887  3.988574  0.002
C  C61  1  0.23605876  0.23025214  0.76709433  1  0.064948  0.002138  -0.085688  -0.171808  0.000889  3.988253  0.002
C  C62  1  0.23608940  0.26974409  0.26708380  1  0.064393  0.002137  -0.085497  -0.171004  0.000889  3.9887  0.002
C  C63  1  0.76391253  0.76968362  0.23293076  1  0.064662  0.002132  -0.085743  -0.171306  0.000887  3.988793  0.002
C  C64  1  0.71987863  0.76209603  0.78647368  1  0.232892  -0.004149  0.093903  0.173142  -0.004583  4.041917  -0.003
C  C65  1  0.28016783  0.26204311  0.71351921  1  0.2348  -0.004171  0.094106  0.174677  -0.004607  4.039487  -0.003
C  C66  1  0.28021294  0.23795076  0.21351950  1  0.234459  -0.004168  0.093829  0.173062  -0.004605  4.041722  -0.003
C  C67  1  0.71979998  0.73787720  0.28649612  1  0.232002  -0.004154  0.094354  0.173824  -0.004588  4.040995  -0.003
C  C68  1  0.64665255  0.84459554  0.78332651  1  -0.031502  0.002005  -0.087416  -0.171075  0.000833  4.010188  0.002
C  C69  1  0.35335896  0.34456036  0.71666723  1  -0.03293  0.002013  -0.087381  -0.171473  0.000836  4.009491  0.002
C  C70  1  0.35344562  0.15544703  0.21666356  1  -0.033577  0.002012  -0.087167  -0.170807  0.000836  4.009744  0.002
C  C71  1  0.64655257  0.65536838  0.28333029  1  -0.030615  0.002006  -0.087649  -0.171326  0.000833  4.009871  0.002
C  C72  1  0.61082124  0.89265485  0.72509758  1  -0.013906  -0.002764  -0.078849  -0.078514  -0.003152  3.974016  -0.002
C  C73  1  0.38916383  0.39264478  0.77488981  1  -0.014126  -0.002781  -0.078762  -0.078429  -0.003169  3.973789  -0.002
C  C74  1  0.38923306  0.10737156  0.27488815  1  -0.013058  -0.002776  -0.07876  -0.07844  -0.003165  3.973618  -0.002
C  C75  1  0.61073442  0.60731488  0.22509604  1  -0.012536  -0.002767  -0.078781  -0.078694  -0.003155  3.97419  -0.002
C  C76  1  0.31978582  0.62677532  0.96268978  1  1.535885  -0.01138  0.213383  0.560711  -0.015097  4.172675  -0.01
C  C77  1  0.68024447  0.12665521  0.53729340  1  1.543969  -0.011358  0.213978  0.561971  -0.01506  4.170589  -0.01
C  C78  1  0.68030522  0.37338248  0.03726096  1  1.541379  -0.011359  0.213632  0.560919  -0.015056  4.171834  -0.01
C  C79  1  0.31968895  0.87324823  0.46271382  1  1.536096  -0.011372  0.21343  0.56113  -0.015088  4.170443  -0.01
C  C80  1  0.21126560  0.69122600  0.93213325  1  -0.019511  0.009998  -0.014556  -0.019904  0.005318  3.977002  0.008
C  C81  1  0.78876924  0.19107491  0.56787021  1  0.035791  0.009982  -0.014798  -0.020868  0.005314  3.97856  0.008
C  C82  1  0.78880778  0.30893812  0.06784730  1  -0.028267  0.010014  -0.01467  -0.02063  0.005314  3.978446  0.008
C  C83  1  0.21119526  0.80879832  0.43215468  1  -0.017746  0.009994  -0.014612  -0.019857  0.005316  3.97726  0.008
C  C84  1  0.23774876  0.77637010  0.90437304  1  0.027209  -0.002124  -0.084267  -0.097964  -0.002522  3.978246  -0.001
C  C85  1  0.76225107  0.27620399  0.59564586  1  0.023174  -0.002114  -0.084045  -0.09802  -0.002511  3.978185  -0.001
C  C86  1  0.76229004  0.22381580  0.09562952  1  0.022937  -0.002116  -0.083964  -0.097866  -0.002513  3.977935  -0.001
C  C87  1  0.23769571  0.72365238  0.40437445  1  0.024577  -0.002121  -0.084106  -0.09852  -0.002519  3.977932  -0.001
C  C88  1  0.13515286  0.83334759  0.87295186  1  -0.065199  0.001551  -0.094976  -0.088042  0.000659  4.054407  0.001
C  C89  1  0.86484495  0.33316939  0.62707726  1  -0.062714  0.001545  -0.095016  -0.088255  0.000656  4.055911  0.001
C  C90  1  0.86487643  0.16684112  0.12707049  1  -0.062394  0.001544  -0.095196  -0.088437  0.000656  4.055727  0.001
C  C91  1  0.13510814  0.66668557  0.37295169  1  -0.065452  0.001549  -0.094849  -0.088116  0.000658  4.055671  0.001
C  C92  1  0.00614352  0.80549013  0.86812221  1  -0.079476  -0.003736  -0.090145  -0.122651  -0.004054  3.986567  -0.002
C  C93  1  0.99384557  0.30534439  0.63190084  1  -0.078348  -0.003718  -0.090415  -0.123373  -0.004036  3.987038  -0.002
C  C94  1  0.99388758  0.19466204  0.13189796  1  -0.077002  -0.003719  -0.090326  -0.123429  -0.004037  3.986833  -0.002
C  C95  1  0.00609761  0.69451830  0.36812430  1  -0.078493  -0.003734  -0.09013  -0.12241  -0.004053  3.986694  -0.002
C  C96  1  0.97886029  0.72004070  0.89559227  1  -0.019845  0.001678  -0.007644  0.021739  0.000762  4.044584  0.001
C  C97  1  0.02116797  0.21991357  0.60442046  1  -0.021629  0.001674  -0.006831  0.022486  0.000761  4.044135  0.001
C  C98  1  0.02119826  0.28009251  0.10441649  1  -0.022482  0.001674  -0.006931  0.022702  0.000761  4.043692  0.001
C  C99  1  0.97880209  0.77995404  0.39560028  1  -0.022357  0.001675  -0.007323  0.021875  0.000761  4.045003  0.001
C  C100  1  0.08244964  0.66362220  0.92819590  1  0.011708  -0.002343  -0.067498  -0.110773  -0.00276  3.881682  -0.001
C  C101  1  0.91760018  0.16348107  0.57180902  1  -0.052212  -0.002297  -0.067919  -0.111023  -0.002745  3.881381  -0.001
C  C102  1  0.91763995  0.33651733  0.07179661  1  0.013018  -0.002328  -0.067801  -0.110899  -0.002745  3.881444  -0.001
C  C103  1  0.08236512  0.83637951  0.42821313  1  0.012591  -0.002339  -0.067536  -0.111102  -0.002759  3.881913  -0.001
C  C104  1  0.84596583  0.68721137  0.89247734  1  0.943245  0.002633  0.221139  0.204307  0.001522  4.026485  0.003
C  C105  1  0.15405537  0.18711252  0.60752666  1  0.942134  0.002649  0.221237  0.204354  0.00153  4.02576  0.003
C  C106  1  0.15409823  0.31287757  0.10752631  1  0.9403  0.002658  0.221165  0.203851  0.001534  4.025912  0.003
C  C107  1  0.84591976  0.81277054  0.39249787  1  0.94137  0.002634  0.220754  0.203544  0.001521  4.027225  0.003
C  C108  1  0.63483176  0.66002442  0.86065580  1  0.989625  0.00187  0.235043  0.336739  0.000754  3.917928  0.002
C  C109  1  0.36521283  0.15997099  0.63934389  1  0.990627  0.001909  0.235471  0.336922  0.000779  3.918451  0.002
C  C110  1  0.36525736  0.34000972  0.13932866  1  0.991122  0.001906  0.235397  0.337027  0.000777  3.918337  0.002
C  C111  1  0.63479439  0.83996337  0.36068240  1  0.990096  0.001874  0.234907  0.336579  0.000758  3.918176  0.002
C  C112  1  0.50034536  0.65954720  0.81990328  1  -0.085014  0.000199  -0.230136  -0.466241  -4.5e-05  3.956874  0.0
C  C113  1  0.49971778  0.15953057  0.68008223  1  -0.08424  0.000198  -0.229972  -0.466107  -4.5e-05  3.957197  0.0
C  C114  1  0.49976140  0.34047921  0.18006785  1  -0.084  0.000199  -0.22974  -0.46575  -4.5e-05  3.957543  0.0
C  C115  1  0.50031487  0.84045298  0.31991455  1  -0.084325  0.000199  -0.230204  -0.466227  -4.4e-05  3.957339  0.0
N  N116  1  0.68039037  0.61578891  0.91614181  1  -0.737467  0.043523  -0.217571  -0.198729  0.025621  3.386384  0.034
N  N117  1  0.31963762  0.11572080  0.58387269  1  -0.739119  0.04355  -0.217976  -0.198657  0.02564  3.388022  0.034
N  N118  1  0.31967657  0.38425085  0.08386118  1  -0.740262  0.0436  -0.218122  -0.199059  0.025666  3.388718  0.034
N  N119  1  0.68036628  0.88420232  0.41616317  1  -0.738665  0.043453  -0.217432  -0.198666  0.025582  3.386724  0.034
N  N120  1  0.81147429  0.63251243  0.93620579  1  -0.642301  0.004075  -0.215293  -0.22268  0.001366  3.145394  0.003
N  N121  1  0.18855914  0.13240128  0.56381255  1  -0.641679  0.004089  -0.2154  -0.222728  0.001372  3.144735  0.003
N  N122  1  0.18860278  0.36757933  0.06380479  1  -0.639831  0.004093  -0.215323  -0.222461  0.001374  3.144989  0.003
N  N123  1  0.81141443  0.86748179  0.43621842  1  -0.641419  0.004073  -0.215073  -0.222232  0.001366  3.146314  0.003
N  N124  1  0.73681903  0.70669125  0.84389349  1  -1.256897  0.001639  -0.220703  -0.12035  0.000703  3.688911  0.001
N  N125  1  0.26321958  0.20662259  0.65610235  1  -1.257052  0.001652  -0.220891  -0.120748  0.000708  3.687998  0.001
N  N126  1  0.26327822  0.29336045  0.15609743  1  -1.256746  0.001654  -0.220827  -0.120169  0.000709  3.687988  0.001
N  N127  1  0.73675070  0.79327875  0.34392217  1  -1.256232  0.001635  -0.220849  -0.120211  0.000702  3.688744  0.001
O  O128  1  0.51260901  0.97047668  0.60540742  1  -1.12731  0.075056  -0.301704  -0.538893  0.038499  2.40507  0.07
O  O129  1  0.48730290  0.47055157  0.89459212  1  -1.126888  0.07515  -0.301615  -0.539178  0.038546  2.405886  0.07
O  O130  1  0.48730995  0.02946682  0.39460120  1  -1.126543  0.075211  -0.301575  -0.539106  0.038579  2.405661  0.07
O  O131  1  0.51259263  0.52951910  0.10538028  1  -1.127425  0.075023  -0.301782  -0.539293  0.038491  2.40541  0.07
O  O132  1  0.64794488  0.88541850  0.55909209  1  -1.115671  0.091793  -0.297956  -0.492364  0.048072  2.320727  0.079
O  O133  1  0.35196777  0.38544478  0.94086930  1  -1.11683  0.091814  -0.298259  -0.493084  0.048074  2.320008  0.079
O  O134  1  0.35194189  0.11456645  0.44086295  1  -1.116218  0.091775  -0.298047  -0.492867  0.048052  2.319633  0.079
O  O135  1  0.64799851  0.61456336  0.05910302  1  -1.116176  0.091787  -0.298193  -0.49275  0.048067  2.320533  0.079
O  O136  1  0.43286722  0.64308556  0.95268310  1  -1.126789  0.087907  -0.30363  -0.525399  0.045433  2.378319  0.079
O  O137  1  0.56719313  0.14300277  0.54732756  1  -1.126874  0.087731  -0.303894  -0.526288  0.045336  2.377608  0.079
O  O138  1  0.56723391  0.35704484  0.04729125  1  -1.125577  0.087757  -0.3038  -0.525875  0.045334  2.376984  0.079
O  O139  1  0.43277176  0.85694775  0.45268748  1  -1.12609  0.087938  -0.303773  -0.525841  0.045444  2.377121  0.079
O  O140  1  0.29313608  0.55712573  0.99516919  1  -1.115111  0.094742  -0.296767  -0.494522  0.049195  2.351761  0.083
O  O141  1  0.70681638  0.05702627  0.50476904  1  -1.113764  0.094752  -0.296874  -0.494532  0.049222  2.350119  0.083
O  O142  1  0.70688303  0.44300607  0.00474477  1  -1.113596  0.094714  -0.296796  -0.49422  0.049201  2.351536  0.083
O  O143  1  0.29306199  0.94288630  0.49520825  1  -1.115526  0.094708  -0.296736  -0.494576  0.049178  2.350565  0.083
