# generated using pymatgen
data_FeH4(C2N3)2
_symmetry_space_group_name_H-M   'P 1'
_cell_length_a   11.69049836
_cell_length_b   11.69050589
_cell_length_c   11.69049952
_cell_angle_alpha   60.00009213
_cell_angle_beta   60.00009542
_cell_angle_gamma   60.00008824
_symmetry_Int_Tables_number   1
_chemical_formula_structural   FeH4(C2N3)2
_chemical_formula_sum   'Fe6 H24 C24 N36'
_cell_volume   1129.75769026
_cell_formula_units_Z   6
loop_
 _symmetry_equiv_pos_site_id
 _symmetry_equiv_pos_as_xyz
  1  'x, y, z'
loop_
 _atom_site_type_symbol
 _atom_site_label
 _atom_site_symmetry_multiplicity
 _atom_site_fract_x
 _atom_site_fract_y
 _atom_site_fract_z
 _atom_site_occupancy
 _atom_site_pbe_bader_spin_density
 _atom_site_pbe_cm5_charge
 _atom_site_pbe_ddec_charge
 _atom_site_pbe_ddec_spin_density
 _atom_site_pbe_ddec_sum_bond_order
 _atom_site_pbe_magmom
Fe  Fe0  1  0.00000028  0.99999965  0.49999986  1  0  0.847995  0.250827  0  3.969607  0
Fe  Fe1  1  0.00000002  0.49999942  0.99999948  1  0  0.848004  0.250838  0  3.969595  0
Fe  Fe2  1  0.00000020  0.49999979  0.50000048  1  0  0.848122  0.251142  0  3.969563  0
Fe  Fe3  1  0.49999964  0.50000052  0.49999984  1  0  0.847992  0.250828  0  3.969616  0
Fe  Fe4  1  0.12500025  0.62499963  0.62499991  1  0  0.865514  0.142471  0  4.048625  0
Fe  Fe5  1  0.87499939  0.37500006  0.37499976  1  0  0.865491  0.142416  0  4.048694  0
H  H6  1  0.29641160  0.03706774  0.33326100  1  0  0.12486  0.12401  0  0.995942  0
H  H7  1  0.83326094  0.33326008  0.03706648  1  0  0.124863  0.123993  0  0.995955  0
H  H8  1  0.83325993  0.33326049  0.79641204  1  0  0.124862  0.123986  0  0.995926  0
H  H9  1  0.53706805  0.79641059  0.33326080  1  0  0.124859  0.123973  0  0.995948  0
H  H10  1  0.29641056  0.33326052  0.03706814  1  0  0.124854  0.123977  0  0.995951  0
H  H11  1  0.83326118  0.79641134  0.33325999  1  0  0.124862  0.124008  0  0.995914  0
H  H12  1  0.83326028  0.03706731  0.33326039  1  0  0.12486  0.123985  0  0.99596  0
H  H13  1  0.53706714  0.33326009  0.79641180  1  0  0.124858  0.123969  0  0.99599  0
H  H14  1  0.29641163  0.33325977  0.33326126  1  0  0.124855  0.12397  0  0.995937  0
H  H15  1  0.83326025  0.03706711  0.79641178  1  0  0.124854  0.123955  0  0.995994  0
H  H16  1  0.83326146  0.79641173  0.03706688  1  0  0.124852  0.123956  0  0.996004  0
H  H17  1  0.53706682  0.33325994  0.33326145  1  0  0.124853  0.123969  0  0.995972  0
H  H18  1  0.16673850  0.96293323  0.66673928  1  0  0.124846  0.123988  0  0.995971  0
H  H19  1  0.70358787  0.66673967  0.96293258  1  0  0.124854  0.123959  0  0.996001  0
H  H20  1  0.46293299  0.66674010  0.20358788  1  0  0.12486  0.123981  0  0.995968  0
H  H21  1  0.16673895  0.20358884  0.66673968  1  0  0.124844  0.123969  0  0.99594  0
H  H22  1  0.16673919  0.66674010  0.96293319  1  0  0.124857  0.123984  0  0.995954  0
H  H23  1  0.46293259  0.20358839  0.66673992  1  0  0.124862  0.123987  0  0.995967  0
H  H24  1  0.70358868  0.96293259  0.66673972  1  0  0.124844  0.123961  0  0.996001  0
H  H25  1  0.16673851  0.66673970  0.20358868  1  0  0.124862  0.124012  0  0.995906  0
H  H26  1  0.46293332  0.66673854  0.66673927  1  0  0.124849  0.123988  0  0.995964  0
H  H27  1  0.16673938  0.96293258  0.20358789  1  0  0.124846  0.123957  0  0.995996  0
H  H28  1  0.16673902  0.20358880  0.96293175  1  0  0.124854  0.123966  0  0.995961  0
H  H29  1  0.70358900  0.66673921  0.66673946  1  0  0.124853  0.123983  0  0.995939  0
C  C30  1  0.30874951  0.92677081  0.38224001  1  0  -0.001462  -0.088502  0  4.046431  0
C  C31  1  0.88224009  0.38223884  0.92677003  1  0  -0.001447  -0.088425  0  4.046401  0
C  C32  1  0.88223899  0.38223949  0.80875018  1  0  -0.001416  -0.088356  0  4.046415  0
C  C33  1  0.42677168  0.80874869  0.38224001  1  0  -0.001386  -0.088267  0  4.046353  0
C  C34  1  0.30874903  0.38224028  0.92677166  1  0  -0.0014  -0.088297  0  4.046382  0
C  C35  1  0.88223989  0.80875004  0.38223933  1  0  -0.00146  -0.088417  0  4.04643  0
C  C36  1  0.88223937  0.92676988  0.38223943  1  0  -0.001432  -0.08839  0  4.04639  0
C  C37  1  0.42677112  0.38224019  0.80874876  1  0  -0.001429  -0.088393  0  4.046503  0
C  C38  1  0.30875037  0.38224011  0.38223955  1  0  -0.001449  -0.08839  0  4.046413  0
C  C39  1  0.88224067  0.92677102  0.80874855  1  0  -0.001419  -0.088343  0  4.046491  0
C  C40  1  0.88224026  0.80874850  0.92677144  1  0  -0.001414  -0.088356  0  4.046502  0
C  C41  1  0.42677031  0.38223954  0.38223965  1  0  -0.001453  -0.088398  0  4.046446  0
C  C42  1  0.11776041  0.07322996  0.61776129  1  0  -0.001448  -0.088418  0  4.046458  0
C  C43  1  0.69125089  0.61776140  0.07322906  1  0  -0.00143  -0.088383  0  4.046503  0
C  C44  1  0.57322816  0.61776085  0.19125091  1  0  -0.00142  -0.088354  0  4.046439  0
C  C45  1  0.11776024  0.19125014  0.61776034  1  0  -0.001446  -0.088434  0  4.04644  0
C  C46  1  0.11776004  0.61776134  0.07322965  1  0  -0.001447  -0.0884  0  4.046409  0
C  C47  1  0.57322896  0.19125028  0.61776071  1  0  -0.00143  -0.088387  0  4.046463  0
C  C48  1  0.69125148  0.07322851  0.61775966  1  0  -0.00141  -0.088361  0  4.046519  0
C  C49  1  0.11775979  0.61776105  0.19124949  1  0  -0.001446  -0.088418  0  4.046384  0
C  C50  1  0.57323033  0.61775944  0.61776108  1  0  -0.001425  -0.088408  0  4.046465  0
C  C51  1  0.11775896  0.07322866  0.19125112  1  0  -0.001438  -0.088424  0  4.046513  0
C  C52  1  0.11775937  0.19125119  0.07322823  1  0  -0.001394  -0.088299  0  4.046385  0
C  C53  1  0.69124941  0.61775972  0.61776117  1  0  -0.001416  -0.08834  0  4.046436  0
N  N54  1  0.19556317  0.88319139  0.46062330  1  0  -0.261661  -0.100148  0  3.629311  0
N  N55  1  0.96062306  0.46062343  0.88319250  1  0  -0.261693  -0.100178  0  3.629279  0
N  N56  1  0.96062247  0.46062291  0.69556113  1  0  -0.26167  -0.100196  0  3.629488  0
N  N57  1  0.38319255  0.69556279  0.46062224  1  0  -0.261687  -0.100215  0  3.629507  0
N  N58  1  0.19556286  0.46062308  0.88319188  1  0  -0.261696  -0.100273  0  3.629495  0
N  N59  1  0.96062340  0.69556119  0.46062271  1  0  -0.261683  -0.100263  0  3.629388  0
N  N60  1  0.96062286  0.88319294  0.46062287  1  0  -0.2617  -0.10025  0  3.629306  0
N  N61  1  0.38319177  0.46062296  0.69556276  1  0  -0.261688  -0.10023  0  3.629492  0
N  N62  1  0.19556099  0.46062308  0.46062294  1  0  -0.261679  -0.100253  0  3.629399  0
N  N63  1  0.96062210  0.88319209  0.69556254  1  0  -0.261676  -0.100204  0  3.629454  0
N  N64  1  0.96062222  0.69556327  0.88319165  1  0  -0.261661  -0.100172  0  3.62943  0
N  N65  1  0.38319339  0.46062295  0.46062309  1  0  -0.261681  -0.100217  0  3.629377  0
N  N66  1  0.03937727  0.11680724  0.53937680  1  0  -0.261656  -0.100139  0  3.629265  0
N  N67  1  0.80443727  0.53937710  0.11680779  1  0  -0.261648  -0.100142  0  3.629485  0
N  N68  1  0.61680750  0.53937808  0.30443691  1  0  -0.261677  -0.100203  0  3.629432  0
N  N69  1  0.03937673  0.30443899  0.53937696  1  0  -0.26164  -0.100149  0  3.629404  0
N  N70  1  0.03937707  0.53937675  0.11680717  1  0  -0.261679  -0.100216  0  3.62931  0
N  N71  1  0.61680844  0.30443653  0.53937743  1  0  -0.261637  -0.1001  0  3.629425  0
N  N72  1  0.80443661  0.11680844  0.53937742  1  0  -0.261677  -0.100177  0  3.629396  0
N  N73  1  0.03937717  0.53937678  0.30443854  1  0  -0.261675  -0.100241  0  3.629322  0
N  N74  1  0.61680724  0.53937602  0.53937763  1  0  -0.261692  -0.100205  0  3.629366  0
N  N75  1  0.03937754  0.11680760  0.30443713  1  0  -0.261685  -0.100178  0  3.62941  0
N  N76  1  0.03937742  0.30443642  0.11680802  1  0  -0.26167  -0.100161  0  3.629469  0
N  N77  1  0.80443880  0.53937676  0.53937778  1  0  -0.261707  -0.100303  0  3.629442  0
N  N78  1  0.24254564  0.74254492  0.50745484  1  0  -0.15041  0.021844  0  3.516597  0
N  N79  1  0.00745485  0.50745434  0.74254498  1  0  -0.150474  0.021724  0  3.516735  0
N  N80  1  0.24254502  0.50745468  0.74254517  1  0  -0.150396  0.021902  0  3.51659  0
N  N81  1  0.00745462  0.74254543  0.50745465  1  0  -0.150419  0.021865  0  3.516617  0
N  N82  1  0.24254520  0.50745495  0.50745464  1  0  -0.150414  0.021855  0  3.516625  0
N  N83  1  0.00745444  0.74254516  0.74254518  1  0  -0.15043  0.021856  0  3.516615  0
N  N84  1  0.99254551  0.25745475  0.49254502  1  0  -0.150447  0.021776  0  3.516686  0
N  N85  1  0.75745462  0.49254500  0.25745450  1  0  -0.150426  0.021837  0  3.516676  0
N  N86  1  0.99254479  0.49254535  0.25745469  1  0  -0.150421  0.021846  0  3.516632  0
N  N87  1  0.75745414  0.25745491  0.49254588  1  0  -0.150439  0.021786  0  3.516668  0
N  N88  1  0.75745493  0.49254523  0.49254503  1  0  -0.150427  0.021842  0  3.516613  0
N  N89  1  0.99254520  0.25745453  0.25745449  1  0  -0.150406  0.021836  0  3.516598  0
