# generated using pymatgen
data_CaAg2H6C12N4O9
_symmetry_space_group_name_H-M   'P 1'
_cell_length_a   8.09432354
_cell_length_b   8.09431839
_cell_length_c   11.46303210
_cell_angle_alpha   93.00373512
_cell_angle_beta   93.00364460
_cell_angle_gamma   103.82258046
_symmetry_Int_Tables_number   1
_chemical_formula_structural   CaAg2H6C12N4O9
_chemical_formula_sum   'Ca2 Ag4 H12 C24 N8 O18'
_cell_volume   726.64963793
_cell_formula_units_Z   2
loop_
 _symmetry_equiv_pos_site_id
 _symmetry_equiv_pos_as_xyz
  1  'x, y, z'
loop_
 _atom_site_type_symbol
 _atom_site_label
 _atom_site_symmetry_multiplicity
 _atom_site_fract_x
 _atom_site_fract_y
 _atom_site_fract_z
 _atom_site_occupancy
 _atom_site_hle17_bader_spin_density
 _atom_site_hle17_ddec_charge
 _atom_site_hle17_ddec_spin_density
 _atom_site_hle17_ddec_sum_bond_order
 _atom_site_hle17_magmom
 _atom_site_hse06_10hf_bader_spin_density
 _atom_site_hse06_10hf_ddec_charge
 _atom_site_hse06_10hf_ddec_spin_density
 _atom_site_hse06_10hf_ddec_sum_bond_order
 _atom_site_hse06_10hf_magmom
 _atom_site_hse06_bader_spin_density
 _atom_site_hse06_ddec_charge
 _atom_site_hse06_ddec_spin_density
 _atom_site_hse06_ddec_sum_bond_order
 _atom_site_hse06_magmom
 _atom_site_pbe_bader_spin_density
 _atom_site_pbe_cm5_charge
 _atom_site_pbe_ddec_charge
 _atom_site_pbe_ddec_spin_density
 _atom_site_pbe_ddec_sum_bond_order
 _atom_site_pbe_magmom
Ca  Ca0  1  0.21035145  0.78964769  0.75000116  1  0  1.501465  0  1.164832  0  0  1.354063  0  1.530024  0  0  1.397419  0  1.487767  0  0  0.868943  1.321755  0  1.559579  0
Ca  Ca1  1  0.78964850  0.21035378  0.24999907  1  0  1.501475  0  1.164813  0  0  1.353985  0  1.53012  0  0  1.397349  0  1.487854  0  0  0.868941  1.321703  0  1.559699  0
Ag  Ag2  1  0.20207343  0.34638326  0.04896047  1  0  0.605725  0  1.286353  0  0  0.485032  0  1.696634  0  0  0.513099  0  1.653373  0  0  0.487742  0.466372  0  1.726238  0
Ag  Ag3  1  0.65361759  0.79792956  0.45103801  1  0  0.605737  0  1.28634  0  0  0.485057  0  1.696588  0  0  0.51312  0  1.653329  0  0  0.48775  0.466396  0  1.726193  0
Ag  Ag4  1  0.79793024  0.65361823  0.95103991  1  0  0.605711  0  1.286366  0  0  0.485055  0  1.696595  0  0  0.513118  0  1.653334  0  0  0.487751  0.466394  0  1.726208  0
Ag  Ag5  1  0.34637966  0.20207070  0.54895768  1  0  0.605734  0  1.28635  0  0  0.485065  0  1.696601  0  0  0.513132  0  1.653337  0  0  0.487733  0.466402  0  1.72621  0
H  H6  1  0.22397827  0.22818138  0.79681376  1  0  0.103931  0  0.986204  0  0  0.10687  0  1.054453  0  0  0.11145  0  1.049768  0  0  0.12462  0.103405  0  1.058284  0
H  H7  1  0.77181630  0.77602422  0.70318484  1  0  0.103997  0  0.986181  0  0  0.10693  0  1.054439  0  0  0.111508  0  1.049758  0  0  0.124649  0.103469  0  1.058271  0
H  H8  1  0.77602574  0.77182142  0.20318495  1  0  0.104037  0  0.98623  0  0  0.106962  0  1.054507  0  0  0.111542  0  1.049818  0  0  0.124691  0.103501  0  1.058339  0
H  H9  1  0.22818057  0.22397469  0.29681513  1  0  0.103959  0  0.986179  0  0  0.106886  0  1.054465  0  0  0.111466  0  1.049779  0  0  0.124643  0.103425  0  1.058302  0
H  H10  1  0.43231386  0.51039899  0.85998854  1  0  0.106194  0  0.963646  0  0  0.109676  0  1.033351  0  0  0.113987  0  1.028968  0  0  0.126496  0.106529  0  1.036633  0
H  H11  1  0.48959806  0.56768955  0.64001186  1  0  0.106235  0  0.963581  0  0  0.10967  0  1.033338  0  0  0.11398  0  1.028956  0  0  0.126504  0.106524  0  1.03662  0
H  H12  1  0.56769070  0.48960119  0.14001445  1  0  0.106258  0  0.963589  0  0  0.109695  0  1.03335  0  0  0.114005  0  1.028965  0  0  0.126524  0.106554  0  1.036636  0
H  H13  1  0.51040039  0.43231066  0.35998650  1  0  0.106255  0  0.963603  0  0  0.109688  0  1.033367  0  0  0.113999  0  1.028983  0  0  0.126526  0.106547  0  1.036654  0
H  H14  1  0.94615080  0.99258101  0.81093180  1  0  0.440467  0  0.843388  0  0  0.410304  0  0.909613  0  0  0.420073  0  0.895427  0  0  0.308289  0.403299  0  0.919801  0
H  H15  1  0.00741810  0.05384825  0.68906935  1  0  0.440474  0  0.843409  0  0  0.410321  0  0.909588  0  0  0.42009  0  0.895402  0  0  0.30829  0.403313  0  0.919783  0
H  H16  1  0.05385192  0.00742173  0.18906947  1  0  0.440543  0  0.843287  0  0  0.410328  0  0.909619  0  0  0.420106  0  0.895413  0  0  0.308258  0.403324  0  0.919807  0
H  H17  1  0.99258000  0.94615065  0.31093155  1  0  0.44048  0  0.84337  0  0  0.410319  0  0.90959  0  0  0.420087  0  0.895406  0  0  0.308283  0.403317  0  0.919776  0
C  C18  1  0.85997777  0.26657461  0.95456347  1  0  0.64777  0  3.960553  0  0  0.585386  0  4.272483  0  0  0.622561  0  4.259369  0  0  0.208464  0.559841  0  4.280803  0
C  C19  1  0.73342369  0.14002213  0.54543473  1  0  0.647814  0  3.96028  0  0  0.58542  0  4.272286  0  0  0.622597  0  4.259164  0  0  0.208487  0.559884  0  4.280599  0
C  C20  1  0.14002849  0.73342701  0.04543092  1  0  0.647792  0  3.960498  0  0  0.585455  0  4.272344  0  0  0.622635  0  4.25922  0  0  0.208552  0.559905  0  4.280663  0
C  C21  1  0.26657279  0.85997028  0.45457193  1  0  0.647809  0  3.960567  0  0  0.585514  0  4.27233  0  0  0.622683  0  4.259222  0  0  0.208546  0.559971  0  4.280645  0
C  C22  1  0.67842319  0.24749306  0.90698090  1  0  0.101106  0  3.612497  0  0  0.095158  0  3.86153  0  0  0.099672  0  3.874661  0  0  0.139623  0.091415  0  3.853531  0
C  C23  1  0.75250418  0.32157888  0.59301744  1  0  0.101115  0  3.612313  0  0  0.095117  0  3.861469  0  0  0.099631  0  3.874603  0  0  0.139632  0.091369  0  3.85347  0
C  C24  1  0.32158020  0.75250717  0.09301855  1  0  0.101167  0  3.612468  0  0  0.095224  0  3.861487  0  0  0.099735  0  3.87462  0  0  0.139656  0.091485  0  3.853485  0
C  C25  1  0.24749388  0.67841999  0.40698521  1  0  0.101111  0  3.61262  0  0  0.0952  0  3.861536  0  0  0.099715  0  3.874669  0  0  0.139645  0.091459  0  3.853534  0
C  C26  1  0.35498886  0.23444286  0.82685376  1  0  0.05742  0  3.728012  0  0  0.027479  0  4.003019  0  0  0.031586  0  4.010687  0  0  0.044404  0.023695  0  3.999578  0
C  C27  1  0.76555365  0.64501327  0.67314558  1  0  0.057305  0  3.7281  0  0  0.027355  0  4.003123  0  0  0.03148  0  4.010754  0  0  0.044342  0.023563  0  3.999698  0
C  C28  1  0.64501451  0.76555736  0.17314656  1  0  0.057444  0  3.727948  0  0  0.02749  0  4.002945  0  0  0.031597  0  4.010614  0  0  0.044385  0.023705  0  3.99952  0
C  C29  1  0.23444351  0.35498690  0.32685534  1  0  0.057465  0  3.727996  0  0  0.02752  0  4.002986  0  0  0.031623  0  4.010663  0  0  0.044395  0.023733  0  3.999565  0
C  C30  1  0.56421830  0.09225138  0.86680412  1  0  0.055388  0  3.670968  0  0  0.05239  0  3.922314  0  0  0.050376  0  3.937767  0  0  0.129629  0.053089  0  3.912755  0
C  C31  1  0.90774431  0.43578174  0.63319491  1  0  0.055628  0  3.670754  0  0  0.052568  0  3.922186  0  0  0.050551  0  3.937646  0  0  0.129716  0.053265  0  3.912633  0
C  C32  1  0.43578259  0.90774882  0.13319609  1  0  0.055447  0  3.670946  0  0  0.052403  0  3.922338  0  0  0.050389  0  3.937793  0  0  0.129616  0.053101  0  3.912784  0
C  C33  1  0.09225100  0.56421587  0.36680582  1  0  0.055543  0  3.670745  0  0  0.052522  0  3.922071  0  0  0.050509  0  3.937527  0  0  0.129663  0.053218  0  3.912516  0
C  C34  1  0.46767590  0.38908827  0.86474295  1  0  0.066269  0  3.699653  0  0  0.035253  0  3.968793  0  0  0.040754  0  3.979841  0  0  0.045587  0.031335  0  3.961973  0
C  C35  1  0.61090990  0.53232701  0.63525652  1  0  0.066203  0  3.699706  0  0  0.035226  0  3.968842  0  0  0.040723  0  3.979904  0  0  0.04555  0.031298  0  3.962036  0
C  C36  1  0.53232871  0.61091196  0.13525742  1  0  0.066122  0  3.699616  0  0  0.035137  0  3.968788  0  0  0.040639  0  3.979838  0  0  0.045515  0.031213  0  3.961983  0
C  C37  1  0.38908820  0.46767188  0.36474438  1  0  0.066115  0  3.699682  0  0  0.035113  0  3.968888  0  0  0.040615  0  3.979935  0  0  0.045491  0.031184  0  3.962084  0
C  C38  1  0.60885614  0.92093349  0.86812123  1  0  0.637945  0  3.920028  0  0  0.580544  0  4.224127  0  0  0.61468  0  4.217845  0  0  0.216463  0.557454  0  4.227583  0
C  C39  1  0.07906282  0.39113953  0.63187630  1  0  0.63784  0  3.920046  0  0  0.58051  0  4.224074  0  0  0.614644  0  4.217792  0  0  0.216495  0.557418  0  4.227528  0
C  C40  1  0.39113920  0.07906415  0.13187775  1  0  0.637879  0  3.92001  0  0  0.58049  0  4.224106  0  0  0.614623  0  4.217825  0  0  0.216452  0.557405  0  4.227551  0
C  C41  1  0.92093466  0.60886192  0.36812381  1  0  0.637942  0  3.919961  0  0  0.580545  0  4.224041  0  0  0.614677  0  4.217758  0  0  0.216454  0.557459  0  4.227484  0
N  N42  1  0.62859740  0.39538910  0.90383055  1  0  -0.288267  0  3.284419  0  0  -0.221281  0  3.567168  0  0  -0.236743  0  3.5823  0  0  -0.318418  -0.210766  0  3.557093  0
N  N43  1  0.60460838  0.37140501  0.59616878  1  0  -0.288345  0  3.284476  0  0  -0.221316  0  3.567224  0  0  -0.236782  0  3.582357  0  0  -0.318431  -0.210791  0  3.557138  0
N  N44  1  0.37140724  0.60461115  0.09616808  1  0  -0.288348  0  3.284454  0  0  -0.221375  0  3.567241  0  0  -0.236837  0  3.58237  0  0  -0.318449  -0.210849  0  3.557152  0
N  N45  1  0.39538939  0.62859258  0.40383379  1  0  -0.288295  0  3.284475  0  0  -0.221333  0  3.567224  0  0  -0.236793  0  3.582353  0  0  -0.318406  -0.210805  0  3.557134  0
N  N46  1  0.40399529  0.08779179  0.82726134  1  0  -0.298602  0  3.165049  0  0  -0.255799  0  3.433054  0  0  -0.262033  0  3.44553  0  0  -0.318674  -0.25138  0  3.425185  0
N  N47  1  0.91220494  0.59600439  0.67273781  1  0  -0.298645  0  3.164957  0  0  -0.255823  0  3.433009  0  0  -0.262061  0  3.445487  0  0  -0.318705  -0.251403  0  3.425142  0
N  N48  1  0.59600466  0.91220968  0.17273889  1  0  -0.298647  0  3.164969  0  0  -0.255807  0  3.432975  0  0  -0.262042  0  3.44545  0  0  -0.318671  -0.251389  0  3.425119  0
N  N49  1  0.08779222  0.40399577  0.32726311  1  0  -0.298692  0  3.164987  0  0  -0.255863  0  3.432976  0  0  -0.2621  0  3.445452  0  0  -0.318707  -0.251442  0  3.425115  0
O  O50  1  0.75874010  0.92157378  0.90845571  1  0  -0.611563  0  2.048067  0  0  -0.53663  0  2.295549  0  0  -0.565188  0  2.28467  0  0  -0.303228  -0.516711  0  2.302432  0
O  O51  1  0.07842239  0.24125972  0.59154280  1  0  -0.611583  0  2.048228  0  0  -0.536666  0  2.295672  0  0  -0.565223  0  2.284799  0  0  -0.303249  -0.516749  0  2.302555  0
O  O52  1  0.24126079  0.07842642  0.09154450  1  0  -0.611565  0  2.04826  0  0  -0.536593  0  2.295721  0  0  -0.56516  0  2.284865  0  0  -0.30321  -0.516669  0  2.302596  0
O  O53  1  0.92157540  0.75873790  0.40845804  1  0  -0.611613  0  2.048257  0  0  -0.536633  0  2.295679  0  0  -0.565194  0  2.28482  0  0  -0.303202  -0.516711  0  2.302553  0
O  O54  1  0.02312686  0.97687379  0.75000045  1  0  -0.863145  0  1.861711  0  0  -0.80208  0  2.058929  0  0  -0.823624  0  2.029464  0  0  -0.617693  -0.786434  0  2.079508  0
O  O55  1  0.97687308  0.02312766  0.25000064  1  0  -0.863216  0  1.861591  0  0  -0.802133  0  2.058796  0  0  -0.823676  0  2.029331  0  0  -0.61765  -0.786479  0  2.079367  0
O  O56  1  0.88487594  0.26686398  0.06537813  1  0  -0.687499  0  2.025387  0  0  -0.613472  0  2.294838  0  0  -0.646592  0  2.28243  0  0  -0.371175  -0.589526  0  2.302305  0
O  O57  1  0.73313196  0.11512526  0.43461966  1  0  -0.687539  0  2.025281  0  0  -0.613518  0  2.29477  0  0  -0.646639  0  2.28236  0  0  -0.371185  -0.589578  0  2.302236  0
O  O58  1  0.11512897  0.73313751  0.93462231  1  0  -0.687426  0  2.02551  0  0  -0.613458  0  2.294958  0  0  -0.646576  0  2.282552  0  0  -0.371174  -0.589496  0  2.302401  0
O  O59  1  0.26686151  0.88486979  0.56538087  1  0  -0.687474  0  2.025589  0  0  -0.613526  0  2.295023  0  0  -0.646643  0  2.282622  0  0  -0.371186  -0.589569  0  2.302468  0
O  O60  1  0.49291179  0.79071937  0.83205832  1  0  -0.664085  0  1.972831  0  0  -0.603281  0  2.219779  0  0  -0.631553  0  2.212179  0  0  -0.345899  -0.583178  0  2.224205  0
O  O61  1  0.20927778  0.50708746  0.66794289  1  0  -0.66406  0  1.972712  0  0  -0.603252  0  2.219613  0  0  -0.631521  0  2.212011  0  0  -0.345906  -0.583146  0  2.224035  0
O  O62  1  0.50708940  0.20928211  0.16794196  1  0  -0.6641  0  1.972667  0  0  -0.603249  0  2.219554  0  0  -0.63152  0  2.211955  0  0  -0.345896  -0.583144  0  2.223984  0
O  O63  1  0.79071968  0.49291398  0.33205809  1  0  -0.664065  0  1.972674  0  0  -0.603255  0  2.219615  0  0  -0.631526  0  2.212014  0  0  -0.345892  -0.583145  0  2.224039  0
O  O64  1  0.97516852  0.29438275  0.88375333  1  0  -0.591319  0  1.960935  0  0  -0.53359  0  2.20906  0  0  -0.562994  0  2.19938  0  0  -0.29955  -0.512522  0  2.214953  0
O  O65  1  0.70562055  0.02483333  0.61624513  1  0  -0.591324  0  1.960909  0  0  -0.533575  0  2.209025  0  0  -0.562978  0  2.199344  0  0  -0.299567  -0.512515  0  2.21492  0
O  O66  1  0.02483240  0.70561748  0.11624514  1  0  -0.591463  0  1.960885  0  0  -0.533697  0  2.208933  0  0  -0.563103  0  2.199246  0  0  -0.299645  -0.512637  0  2.214844  0
O  O67  1  0.29438155  0.97516685  0.38375688  1  0  -0.591435  0  1.960822  0  0  -0.53372  0  2.20888  0  0  -0.563123  0  2.199196  0  0  -0.299626  -0.512663  0  2.214791  0
