# generated using pymatgen
data_Ni3H28C38(N3O7)2
_symmetry_space_group_name_H-M   'P 1'
_cell_length_a   10.06494829
_cell_length_b   14.41871450
_cell_length_c   17.85937378
_cell_angle_alpha   81.04131077
_cell_angle_beta   73.66113860
_cell_angle_gamma   69.54187153
_symmetry_Int_Tables_number   1
_chemical_formula_structural   Ni3H28C38(N3O7)2
_chemical_formula_sum   'Ni6 H56 C76 N12 O28'
_cell_volume   2325.52303717
_cell_formula_units_Z   2
loop_
 _symmetry_equiv_pos_site_id
 _symmetry_equiv_pos_as_xyz
  1  'x, y, z'
loop_
 _atom_site_type_symbol
 _atom_site_label
 _atom_site_symmetry_multiplicity
 _atom_site_fract_x
 _atom_site_fract_y
 _atom_site_fract_z
 _atom_site_occupancy
 _atom_site_pbe_bader_charge
 _atom_site_pbe_bader_spin_density
 _atom_site_pbe_cm5_charge
 _atom_site_pbe_ddec_charge
 _atom_site_pbe_ddec_spin_density
 _atom_site_pbe_ddec_sum_bond_order
 _atom_site_pbe_magmom
Ni  Ni0  1  0.49999760  0.99997652  0.50001102  1  1.19356  1.562877  0.653744  0.799818  1.831486  2.478505  1.551
Ni  Ni1  1  0.50002763  0.49996104  0.00000793  1  1.195777  -1.562973  0.652673  0.798284  -1.831605  2.478945  -1.551
Ni  Ni2  1  0.94506365  0.22191581  0.57921660  1  1.129322  1.523691  0.622864  0.746272  1.782966  2.484154  1.51
Ni  Ni3  1  0.24611025  0.27855041  0.92053369  1  1.129421  1.523267  0.622841  0.747084  1.78334  2.481663  1.509
Ni  Ni4  1  0.05484324  0.77817485  0.42077107  1  1.128754  -1.522955  0.62263  0.746033  -1.782109  2.483675  -1.509
Ni  Ni5  1  0.75390702  0.72153675  0.07943752  1  1.129229  -1.524051  0.623017  0.747108  -1.784227  2.48226  -1.51
H  H6  1  0.01039525  0.03421094  0.55887618  1  0.612535  7.2e-05  0.323252  0.406031  0.00024  0.867192  0.0
H  H7  1  0.10338592  0.46631899  0.94114270  1  0.623895  0.00014  0.323174  0.406407  0.000267  0.866891  0.0
H  H8  1  0.98929602  0.96591436  0.44123778  1  0.613637  -0.000113  0.323435  0.406407  -0.000265  0.866756  0.0
H  H9  1  0.89658985  0.53380845  0.05902632  1  0.623009  -0.000101  0.322867  0.405912  -0.000242  0.867307  0.0
H  H10  1  0.14804635  0.07237431  0.53297735  1  0.648164  -0.000133  0.294062  0.381368  0.000184  0.962396  0.0
H  H11  1  0.25357916  0.42784771  0.96688730  1  0.644986  -0.000299  0.293997  0.38107  1.7e-05  0.963047  0.0
H  H12  1  0.85179539  0.92758636  0.46708573  1  0.647685  0.000311  0.294032  0.381466  -1.2e-05  0.96217  0.0
H  H13  1  0.74652412  0.57211147  0.03317274  1  0.64522  0.000139  0.294119  0.381315  -0.000184  0.962698  0.0
H  H14  1  0.43042224  0.10499465  0.88701236  1  0.439404  -0.000708  0.314392  0.300197  -8.7e-05  0.921546  -0.001
H  H15  1  0.92210583  0.39547150  0.61262856  1  0.430988  -0.000721  0.313496  0.298728  -9e-05  0.92222  -0.001
H  H16  1  0.56943153  0.89502543  0.11298863  1  0.439493  0.000709  0.314483  0.300349  8.7e-05  0.921286  0.001
H  H17  1  0.07795248  0.60459483  0.38734703  1  0.430455  0.000725  0.313697  0.299048  9.1e-05  0.922177  0.001
H  H18  1  0.26630267  0.10771254  0.88210452  1  0.432382  -0.000673  0.318187  0.309026  -0.000118  0.905655  -0.001
H  H19  1  0.75583370  0.39283264  0.61736468  1  0.445041  -0.000643  0.319115  0.310356  -0.00013  0.904248  -0.001
H  H20  1  0.73352334  0.89238709  0.11787975  1  0.431823  0.000679  0.318176  0.309103  0.000131  0.905812  0.001
H  H21  1  0.24421785  0.60724565  0.38260441  1  0.444589  0.000641  0.319128  0.310588  0.000119  0.904091  0.001
H  H22  1  0.59940302  0.16328974  0.77565686  1  0.092403  0.00021  0.109543  0.127383  0.000162  1.003765  0.0
H  H23  1  0.03783997  0.33754762  0.72396342  1  0.134752  0.00026  0.10945  0.127739  0.00024  1.002443  0.0
H  H24  1  0.40045634  0.83679851  0.22434531  1  0.091575  -0.000326  0.109691  0.127853  -0.000242  1.003244  0.0
H  H25  1  0.96220240  0.66254547  0.27600705  1  0.135426  -0.000156  0.109382  0.127767  -0.00016  1.002815  0.0
H  H26  1  0.19278876  0.13782616  0.76150971  1  0.074865  0.000176  0.11209  0.125467  5e-05  0.982981  0.0
H  H27  1  0.59183987  0.36246393  0.73796156  1  0.095174  7.9e-05  0.11216  0.126341  7e-06  0.982362  0.0
H  H28  1  0.80716423  0.86214472  0.23845565  1  0.075486  -9.5e-05  0.112071  0.125532  -8e-06  0.982973  0.0
H  H29  1  0.40823917  0.63754416  0.26199184  1  0.094928  -0.00016  0.112075  0.126286  -4.9e-05  0.982253  0.0
H  H30  1  0.19733940  0.30579361  0.52114937  1  0.132589  0.002006  0.119301  0.093251  0.000808  1.021956  0.001
H  H31  1  0.52419247  0.19429485  0.97897307  1  0.132345  0.001637  0.11922  0.093365  0.000532  1.020826  0.001
H  H32  1  0.80264867  0.69415136  0.47886782  1  0.13275  -0.001634  0.119323  0.093311  -0.000535  1.022106  -0.001
H  H33  1  0.47585389  0.80564309  0.02101502  1  0.132709  -0.002012  0.119238  0.093397  -0.00081  1.020968  -0.001
H  H34  1  0.33199665  0.35714016  0.39590298  1  0.123988  0.000655  0.112829  0.133348  0.000284  1.009302  0.0
H  H35  1  0.58486946  0.14227582  0.10424984  1  0.134445  0.000735  0.112434  0.131616  0.000344  1.008554  0.0
H  H36  1  0.66808514  0.64274101  0.60411643  1  0.123132  -0.000738  0.11281  0.133383  -0.000343  1.009206  0.0
H  H37  1  0.41518031  0.85761402  0.89573272  1  0.134798  -0.000639  0.112374  0.131487  -0.000281  1.008773  0.0
H  H38  1  0.06728378  0.43872335  0.20434624  1  0.069244  -0.001027  0.109628  0.118073  -0.000509  0.999605  0.0
H  H39  1  0.21024360  0.06087813  0.29566925  1  0.084074  0.000694  0.109463  0.116966  0.000296  1.00026  0.0
H  H40  1  0.93274485  0.56128586  0.79568778  1  0.068903  -0.000699  0.109693  0.118274  -0.000293  0.999424  0.0
H  H41  1  0.78972659  0.93913646  0.70435152  1  0.083859  0.001018  0.10948  0.116935  0.000509  1.00031  0.0
H  H42  1  0.20487609  0.49078277  0.07636883  1  0.149653  -0.001208  0.118666  0.092221  -0.000182  1.028581  -0.001
H  H43  1  0.27229384  0.00883278  0.42364424  1  0.130821  0.00226  0.118974  0.093122  0.001107  1.028896  0.001
H  H44  1  0.79513210  0.50923240  0.92366381  1  0.149322  -0.002237  0.118578  0.092199  -0.001106  1.028555  -0.001
H  H45  1  0.72765751  0.99119951  0.57638303  1  0.131013  0.001225  0.118931  0.093015  0.000184  1.029305  0.001
H  H46  1  0.59351885  0.38890652  0.14347363  1  0.128519  -0.00169  0.120962  0.102345  -0.000603  0.992819  -0.001
H  H47  1  0.62575155  0.11083645  0.35653933  1  0.135566  0.00166  0.121062  0.102577  0.000615  0.993577  0.001
H  H48  1  0.40650802  0.61107413  0.85653548  1  0.12897  -0.001667  0.121044  0.10235  -0.000616  0.992638  -0.001
H  H49  1  0.37424842  0.88914204  0.64346531  1  0.134984  0.001687  0.121005  0.102579  0.000604  0.993564  0.001
H  H50  1  0.47196451  0.33605573  0.27846981  1  0.074207  -0.00086  0.111077  0.118833  -0.000388  0.999593  0.0
H  H51  1  0.58614739  0.16354757  0.22151542  1  0.085621  0.000951  0.111048  0.119461  0.000466  1.00112  0.0
H  H52  1  0.52810229  0.66388052  0.72153260  1  0.074924  -0.000951  0.111177  0.11907  -0.000466  0.999608  0.0
H  H53  1  0.41391682  0.83637257  0.77847306  1  0.085134  0.00086  0.111018  0.119491  0.000389  1.001415  0.0
H  H54  1  0.00493463  0.33092290  0.29274124  1  0.067259  0.000883  0.109925  0.114197  0.000422  1.002465  0.0
H  H55  1  0.12832702  0.16888611  0.20696339  1  0.075622  0.001009  0.110329  0.11451  0.000502  1.002918  0.0
H  H56  1  0.99502992  0.66914455  0.70726302  1  0.068065  -0.001007  0.109736  0.114119  -0.0005  1.00255  0.0
H  H57  1  0.87167909  0.83117022  0.79304009  1  0.076086  -0.000883  0.110304  0.114627  -0.000425  1.00277  0.0
H  H58  1  0.88308428  0.27664733  0.42587877  1  0.143234  0.001744  0.130289  0.113895  0.000662  0.969806  0.002
H  H59  1  0.08537959  0.22375139  0.07380880  1  0.128842  0.001746  0.129432  0.111975  0.000671  0.969838  0.002
H  H60  1  0.11682771  0.72345205  0.57412163  1  0.150166  -0.00174  0.130275  0.113945  -0.000671  0.969836  -0.002
H  H61  1  0.91461645  0.77633457  0.92619670  1  0.129341  -0.001748  0.129346  0.111959  -0.000662  0.969855  -0.002
C  C62  1  0.51646672  0.18820449  0.52502917  1  1.612973  0.00601  0.194063  0.581375  0.005376  4.263142  0.004
C  C63  1  0.72973822  0.31192407  0.97449624  1  1.618411  -0.006123  0.193204  0.580875  -0.005095  4.266439  -0.005
C  C64  1  0.48358170  0.81173136  0.47494876  1  1.612489  0.006031  0.194552  0.582431  0.005082  4.262562  0.005
C  C65  1  0.27033056  0.68800395  0.02545811  1  1.614358  -0.006115  0.193023  0.580536  -0.005396  4.267746  -0.004
C  C66  1  0.47412115  0.17640786  0.61392557  1  -0.028088  0.019352  -0.004174  -0.061936  0.01107  3.898118  0.012
C  C67  1  0.76433091  0.32402461  0.88560994  1  0.03293  0.021237  -0.003668  -0.062521  0.012616  3.897361  0.014
C  C68  1  0.52586133  0.82355543  0.38605282  1  -0.025436  -0.021294  -0.004258  -0.061709  -0.01259  3.897587  -0.014
C  C69  1  0.23574504  0.67595970  0.11434730  1  0.032923  -0.019313  -0.003794  -0.062693  -0.011107  3.897491  -0.012
C  C70  1  0.56548178  0.17769361  0.66049680  1  0.000388  -0.00113  -0.015228  -0.044768  -0.000277  3.979607  -0.002
C  C71  1  0.90344328  0.32288776  0.83910590  1  -9.6e-05  -0.001483  -0.015854  -0.04204  -0.000543  3.975359  -0.002
C  C72  1  0.43444440  0.82232657  0.33949555  1  -0.002942  0.001476  -0.015225  -0.044787  0.000532  3.979259  0.002
C  C73  1  0.09660867  0.67716165  0.16086148  1  0.000531  0.001155  -0.015798  -0.041689  0.0003  3.975509  0.002
C  C74  1  0.71166057  0.19016977  0.62612013  1  1.498604  -0.003917  0.190081  0.546016  -0.001552  4.181899  -0.006
C  C75  1  0.02774034  0.31044106  0.87352316  1  1.510115  -0.003837  0.191036  0.546332  -0.001556  4.185256  -0.006
C  C76  1  0.28823872  0.80990212  0.37388551  1  1.496429  0.003829  0.190119  0.546193  0.001548  4.181473  0.006
C  C77  1  0.97228394  0.68964012  0.12645157  1  1.512059  0.003932  0.190879  0.545396  0.001562  4.184903  0.006
C  C78  1  0.52466448  0.16303301  0.74197621  1  0.070846  0.016929  -0.084986  -0.178523  0.00981  3.922899  0.011
C  C79  1  0.92927850  0.33764260  0.75763336  1  -0.01885  0.018061  -0.084184  -0.179493  0.010454  3.921269  0.011
C  C80  1  0.47523519  0.83700794  0.25801509  1  0.071415  -0.017897  -0.085139  -0.179289  -0.010419  3.922907  -0.011
C  C81  1  0.07077222  0.66242016  0.24233264  1  -0.018695  -0.017086  -0.084228  -0.180076  -0.009849  3.922237  -0.011
C  C82  1  0.39004942  0.15008344  0.77923451  1  0.293567  -0.005716  0.081564  0.268633  -0.002979  4.038331  -0.006
C  C83  1  0.81898806  0.35047264  0.72033585  1  0.310248  -0.006058  0.081478  0.268974  -0.003174  4.039398  -0.006
C  C84  1  0.60987129  0.84993094  0.22074875  1  0.294021  0.006019  0.081296  0.268858  0.003147  4.038711  0.006
C  C85  1  0.18107052  0.64957158  0.27963109  1  0.310925  0.005758  0.08152  0.269942  0.003011  4.039241  0.006
C  C86  1  0.29822965  0.14872538  0.73404897  1  -0.042144  0.016828  -0.085067  -0.182186  0.009598  3.923543  0.01
C  C87  1  0.68069846  0.35168746  0.76546780  1  -0.053931  0.017757  -0.085966  -0.184759  0.010084  3.92598  0.011
C  C88  1  0.70172300  0.85124833  0.26592619  1  -0.043843  -0.01775  -0.084885  -0.182049  -0.010079  3.923866  -0.011
C  C89  1  0.31937065  0.64831756  0.23449257  1  -0.054683  -0.01686  -0.086006  -0.185278  -0.009617  3.925718  -0.01
C  C90  1  0.34167705  0.15905202  0.65248748  1  0.07865  0.001142  -0.016766  -0.056761  0.00079  3.996949  0.001
C  C91  1  0.65303430  0.34132029  0.84703912  1  0.043779  0.000574  -0.01589  -0.055186  0.000802  3.997979  0.0
C  C92  1  0.65831528  0.84089721  0.34748933  1  0.077579  -0.000513  -0.016642  -0.057088  -0.000812  3.997089  0.0
C  C93  1  0.34703909  0.65864989  0.15292186  1  0.042942  -0.001191  -0.015655  -0.054866  -0.000776  3.997453  -0.001
C  C94  1  0.24162558  0.14856020  0.60877496  1  1.540388  -0.002179  0.223546  0.584388  0.000185  4.150319  -0.002
C  C95  1  0.49893833  0.35166708  0.89087540  1  1.556256  0.000319  0.222873  0.583254  0.000121  4.152976  -0.001
C  C96  1  0.75836060  0.85136295  0.39121093  1  1.544304  -0.000281  0.223173  0.584053  -0.000144  4.150721  0.001
C  C97  1  0.50115325  0.64826300  0.10909023  1  1.556143  0.002222  0.222833  0.583719  -0.00017  4.151971  0.002
C  C98  1  0.15618129  0.31253985  0.46967819  1  0.468831  -0.006256  0.045451  0.100894  -0.003267  3.929559  -0.004
C  C99  1  0.43823615  0.18744170  0.03031880  1  0.482119  -0.006367  0.045514  0.100445  -0.003326  3.930734  -0.004
C  C100  1  0.84382552  0.68742004  0.53033204  1  0.47018  0.006326  0.045423  0.100652  0.003319  3.929925  0.004
C  C101  1  0.56179660  0.81250735  0.96967013  1  0.481459  0.006294  0.045559  0.100553  0.003276  3.931073  0.004
C  C102  1  0.23194438  0.34259139  0.39775278  1  -0.02138  0.006518  -0.079443  -0.166347  0.003772  3.923291  0.005
C  C103  1  0.47208735  0.15706787  0.10227048  1  -0.031494  0.003516  -0.078807  -0.162953  0.002029  3.920653  0.003
C  C104  1  0.76810250  0.65734103  0.60225939  1  -0.020843  -0.003488  -0.079427  -0.166318  -0.002017  3.923119  -0.003
C  C105  1  0.52794993  0.84285230  0.89771609  1  -0.03192  -0.006552  -0.078681  -0.162563  -0.003784  3.920848  -0.005
C  C106  1  0.18017474  0.35039068  0.33113676  1  -0.042916  -0.00852  0.009678  0.099707  -0.004922  3.988967  -0.006
C  C107  1  0.36146743  0.14921217  0.16880648  1  -0.035855  -0.007982  0.009112  0.096315  -0.0046  3.987708  -0.005
C  C108  1  0.81986330  0.64957961  0.66887068  1  -0.043377  0.007971  0.009814  0.09989  0.004592  3.988732  0.005
C  C109  1  0.63855823  0.85075163  0.83118743  1  -0.036324  0.008564  0.009021  0.096064  0.004947  3.988162  0.006
C  C110  1  0.25797216  0.38094825  0.25342258  1  0.03039  0.007239  0.005126  0.090764  0.004149  3.999241  0.005
C  C111  1  0.39212714  0.11862593  0.24655735  1  -0.026843  -0.006623  0.005297  0.092128  -0.003841  3.9986  -0.004
C  C112  1  0.74207210  0.61902415  0.74659314  1  0.030612  0.006568  0.00509  0.090951  0.003819  3.99913  0.004
C  C113  1  0.60788679  0.88134073  0.75344480  1  -0.025782  -0.007273  0.005328  0.092315  -0.004162  3.99865  -0.005
C  C114  1  0.18460632  0.42352404  0.19419483  1  -0.0503  -0.007211  -0.082206  -0.171269  -0.004239  3.95039  -0.005
C  C115  1  0.30222853  0.07608464  0.30579220  1  0.050434  0.003195  -0.081717  -0.168528  0.00191  3.948995  0.003
C  C116  1  0.81542344  0.57647640  0.80583053  1  -0.051988  -0.003239  -0.082208  -0.171782  -0.001907  3.95031  -0.003
C  C117  1  0.69775734  0.92391675  0.69421869  1  -0.010636  0.007251  -0.081731  -0.168447  0.004254  3.949023  0.005
C  C118  1  0.26030139  0.45325817  0.12217580  1  0.482866  0.005688  0.050747  0.106619  0.002811  3.933161  0.004
C  C119  1  0.33581841  0.04637846  0.37781416  1  0.424956  -0.004059  0.048922  0.10172  -0.001911  3.937082  -0.003
C  C120  1  0.73970860  0.54675111  0.87785388  1  0.48407  0.004098  0.051047  0.107104  0.001893  3.933055  0.003
C  C121  1  0.66415453  0.95363690  0.62220441  1  0.484841  -0.005659  0.048817  0.101593  -0.002802  3.937364  -0.004
C  C122  1  0.47670278  0.39905892  0.16117603  1  0.466176  0.004561  0.048856  0.098167  0.002124  3.930826  0.003
C  C123  1  0.53686411  0.10060128  0.33880703  1  0.498219  -0.004171  0.049263  0.098898  -0.001835  3.927304  -0.003
C  C124  1  0.52332870  0.60091424  0.83883827  1  0.466672  0.004104  0.048816  0.098422  0.001809  3.930459  0.003
C  C125  1  0.46314215  0.89937271  0.66120107  1  0.498711  -0.004623  0.04932  0.099002  -0.002144  3.927556  -0.003
C  C126  1  0.40796353  0.36940560  0.23535252  1  -0.021545  -0.007231  -0.084823  -0.179952  -0.004232  3.95248  -0.005
C  C127  1  0.51250081  0.13018475  0.26462274  1  -0.049231  0.003706  -0.084862  -0.181829  0.002186  3.955311  0.003
C  C128  1  0.59209273  0.63054612  0.76465702  1  -0.021816  -0.00364  -0.084885  -0.180341  -0.002165  3.953011  -0.003
C  C129  1  0.48752817  0.86976563  0.73537727  1  -0.049656  0.007269  -0.084957  -0.182092  0.004234  3.955886  0.005
C  C130  1  0.05093341  0.32720916  0.34196166  1  -0.026888  0.007171  -0.083234  -0.17569  0.004214  3.9561  0.005
C  C131  1  0.21988340  0.17260868  0.15783912  1  -0.024225  0.004329  -0.082777  -0.174537  0.00262  3.9563  0.004
C  C132  1  0.94905025  0.67282493  0.65804294  1  -0.028135  -0.004362  -0.082993  -0.175481  -0.00263  3.95622  -0.004
C  C133  1  0.78012691  0.82741734  0.84215830  1  -0.023987  -0.007161  -0.082764  -0.174691  -0.004219  3.956355  -0.005
C  C134  1  0.98210672  0.29661960  0.41567136  1  0.449889  -0.005386  0.047847  0.090183  -0.002501  3.935714  -0.004
C  C135  1  0.19420333  0.20350926  0.08410656  1  0.450799  -0.004693  0.049029  0.093704  -0.002087  3.934156  -0.003
C  C136  1  0.01784562  0.70343234  0.58432880  1  0.444494  0.004714  0.047865  0.089962  0.002101  3.935915  0.003
C  C137  1  0.80580775  0.79653673  0.91589400  1  0.450151  0.005374  0.049103  0.093773  0.002496  3.934269  0.004
N  N138  1  0.40377979  0.44156429  0.10539479  1  -1.209808  -0.067189  -0.3236  -0.221392  -0.04145  3.576828  -0.06
N  N139  1  0.45079091  0.05811104  0.39459070  1  -1.210735  0.063792  -0.323541  -0.219607  0.039514  3.576262  0.057
N  N140  1  0.59624169  0.55843615  0.89463020  1  -1.210174  -0.063808  -0.323728  -0.221818  -0.039464  3.57709  -0.057
N  N141  1  0.54918140  0.94189917  0.60542522  1  -1.209443  0.067123  -0.323562  -0.219579  0.041474  3.576397  0.06
N  N142  1  0.03404236  0.28871424  0.47920498  1  -1.215025  0.064937  -0.337582  -0.2411  0.040231  3.608831  0.058
N  N143  1  0.30179502  0.21152015  0.02067173  1  -1.232931  0.061954  -0.337231  -0.242419  0.0385  3.611016  0.056
N  N144  1  0.96592371  0.71129394  0.52079704  1  -1.21623  -0.061921  -0.337495  -0.240792  -0.038519  3.608441  -0.056
N  N145  1  0.69822593  0.78848370  0.97932046  1  -1.23275  -0.064989  -0.337535  -0.242891  -0.040228  3.611841  -0.058
N  N146  1  0.34446665  0.14174538  0.86250585  1  -1.177306  0.073347  -0.584033  -0.580795  0.044501  3.439771  0.062
N  N147  1  0.84839845  0.35877562  0.63706171  1  -1.190401  0.073558  -0.583901  -0.5803  0.04463  3.438678  0.062
N  N148  1  0.65541661  0.85830608  0.13747616  1  -1.176691  -0.073458  -0.584053  -0.581149  -0.044573  3.440002  -0.062
N  N149  1  0.15165535  0.64128938  0.36290354  1  -1.189161  -0.073456  -0.584072  -0.581204  -0.044547  3.438601  -0.062
O  O150  1  0.29042049  0.09055805  0.55269418  1  -1.13924  0.059074  -0.291133  -0.536743  0.03565  2.412027  0.055
O  O151  1  0.43391351  0.40947498  0.94710326  1  -1.162214  -0.059469  -0.291207  -0.53642  -0.036347  2.41134  -0.055
O  O152  1  0.70950693  0.90924981  0.44737670  1  -1.142824  0.059543  -0.291178  -0.536885  0.036414  2.411957  0.055
O  O153  1  0.56628104  0.59030458  0.05297301  1  -1.162952  -0.058942  -0.290934  -0.536213  -0.035564  2.410631  -0.055
O  O154  1  0.59939973  0.10781015  0.49052898  1  -1.157018  0.060978  -0.341042  -0.594422  0.035473  2.301679  0.053
O  O155  1  0.69792128  0.39210360  0.00922947  1  -1.15655  -0.056136  -0.340588  -0.594003  -0.032927  2.301342  -0.048
O  O156  1  0.40064667  0.89210390  0.50947199  1  -1.156103  0.056181  -0.341561  -0.595179  0.032897  2.301373  0.048
O  O157  1  0.30211730  0.60777926  0.99077584  1  -1.154177  -0.060778  -0.340325  -0.593934  -0.035423  2.301293  -0.053
O  O158  1  0.81238876  0.15074741  0.66331867  1  -1.126395  0.082144  -0.324563  -0.537128  0.048248  2.163072  0.073
O  O159  1  0.12607113  0.34993074  0.83639406  1  -1.137268  0.082103  -0.325236  -0.537904  0.048319  2.164905  0.073
O  O160  1  0.18753007  0.84930539  0.33667381  1  -1.123177  -0.082199  -0.324647  -0.537255  -0.048291  2.162933  -0.073
O  O161  1  0.87397001  0.65012611  0.16357079  1  -1.137884  -0.082048  -0.324872  -0.53721  -0.048273  2.164705  -0.073
O  O162  1  0.73751595  0.24155390  0.56175255  1  -1.127614  0.08721  -0.311921  -0.517956  0.051129  2.180785  0.079
O  O163  1  0.04077698  0.25899778  0.93787459  1  -1.126068  0.085878  -0.31234  -0.518905  0.050311  2.181611  0.078
O  O164  1  0.26234772  0.75858131  0.43828486  1  -1.126881  -0.085963  -0.311769  -0.517786  -0.050337  2.180432  -0.078
O  O165  1  0.95919722  0.74114453  0.06212942  1  -1.126518  -0.087142  -0.312496  -0.518677  -0.051094  2.181124  -0.079
O  O166  1  0.10736259  0.19875965  0.63165241  1  -1.150236  0.070745  -0.304867  -0.527044  0.042093  2.404387  0.065
O  O167  1  0.43762837  0.30156126  0.86802950  1  -1.149997  0.055723  -0.304649  -0.526509  0.033416  2.406302  0.052
O  O168  1  0.89264023  0.80126719  0.36828562  1  -1.150684  -0.055732  -0.304506  -0.526454  -0.033431  2.404584  -0.052
O  O169  1  0.56238719  0.69848232  0.13187712  1  -1.148998  -0.07073  -0.304717  -0.526972  -0.04207  2.406084  -0.065
O  O170  1  0.46621814  0.27116699  0.49256406  1  -1.162681  0.029263  -0.335217  -0.54525  0.01653  2.07959  0.025
O  O171  1  0.72995408  0.22887612  0.00672896  1  -1.160779  -0.021588  -0.335504  -0.545284  -0.012109  2.079968  -0.018
O  O172  1  0.53393003  0.72875952  0.50739082  1  -1.162848  0.021591  -0.335403  -0.545782  0.012115  2.079672  0.018
O  O173  1  0.27010682  0.77101242  0.99318648  1  -1.15994  -0.029321  -0.335361  -0.544988  -0.016554  2.081708  -0.025
O  O174  1  0.04857023  0.08345904  0.52452366  1  -1.210746  0.060304  -0.560696  -0.729373  0.036126  2.120499  0.053
O  O175  1  0.15668145  0.41688005  0.97535119  1  -1.21928  0.058714  -0.560721  -0.729799  0.035254  2.120961  0.051
O  O176  1  0.95125357  0.91657360  0.47553435  1  -1.211054  -0.058775  -0.560955  -0.730055  -0.035279  2.120111  -0.051
O  O177  1  0.84339151  0.58312723  0.02471469  1  -1.218676  -0.060266  -0.560435  -0.729344  -0.036121  2.120902  -0.053
