# generated using pymatgen
data_ZnH17C22(NO)5
_symmetry_space_group_name_H-M   'P 1'
_cell_length_a   8.47751478
_cell_length_b   10.25025235
_cell_length_c   12.95246778
_cell_angle_alpha   75.09994662
_cell_angle_beta   87.44739465
_cell_angle_gamma   77.42581654
_symmetry_Int_Tables_number   1
_chemical_formula_structural   ZnH17C22(NO)5
_chemical_formula_sum   'Zn2 H34 C44 N10 O10'
_cell_volume   1061.51518124
_cell_formula_units_Z   2
loop_
 _symmetry_equiv_pos_site_id
 _symmetry_equiv_pos_as_xyz
  1  'x, y, z'
loop_
 _atom_site_type_symbol
 _atom_site_label
 _atom_site_symmetry_multiplicity
 _atom_site_fract_x
 _atom_site_fract_y
 _atom_site_fract_z
 _atom_site_occupancy
 _atom_site_hle17_bader_spin_density
 _atom_site_hle17_ddec_charge
 _atom_site_hle17_ddec_spin_density
 _atom_site_hle17_ddec_sum_bond_order
 _atom_site_hle17_magmom
 _atom_site_hse06_10hf_bader_spin_density
 _atom_site_hse06_10hf_ddec_charge
 _atom_site_hse06_10hf_ddec_spin_density
 _atom_site_hse06_10hf_ddec_sum_bond_order
 _atom_site_hse06_10hf_magmom
 _atom_site_hse06_bader_spin_density
 _atom_site_hse06_ddec_charge
 _atom_site_hse06_ddec_spin_density
 _atom_site_hse06_ddec_sum_bond_order
 _atom_site_hse06_magmom
 _atom_site_pbe_bader_spin_density
 _atom_site_pbe_cm5_charge
 _atom_site_pbe_ddec_charge
 _atom_site_pbe_ddec_spin_density
 _atom_site_pbe_ddec_sum_bond_order
 _atom_site_pbe_magmom
Zn  Zn0  1  0.13944337  0.22289777  0.15290714  1  0  1.005474  0  1.865564  0  0  0.817993  0  2.333143  0  0  0.863982  0  2.279657  0  0  0.705209  0.782994  0  2.372861  0
Zn  Zn1  1  0.86055511  0.77710653  0.84708922  1  0  1.005422  0  1.865616  0  0  0.817931  0  2.333202  0  0  0.863922  0  2.279716  0  0  0.705184  0.782936  0  2.372931  0
H  H2  1  0.09705091  0.73885173  0.13047500  1  0  0.117069  0  0.941732  0  0  0.12199  0  1.010462  0  0  0.126696  0  1.005849  0  0  0.111318  0.118622  0  1.01389  0
H  H3  1  0.90295247  0.26115670  0.86951887  1  0  0.117086  0  0.94175  0  0  0.122015  0  1.010469  0  0  0.126724  0  1.00585  0  0  0.11131  0.118644  0  1.013901  0
H  H4  1  0.36172556  0.39599554  0.36706868  1  0  0.123293  0  0.967063  0  0  0.126444  0  1.038196  0  0  0.130778  0  1.034541  0  0  0.113249  0.12327  0  1.040915  0
H  H5  1  0.63824556  0.60400467  0.63293382  1  0  0.12328  0  0.967042  0  0  0.126455  0  1.038138  0  0  0.130788  0  1.034488  0  0  0.113273  0.123292  0  1.040858  0
H  H6  1  0.32504837  0.81238668  0.39482893  1  0  0.118475  0  0.944091  0  0  0.12359  0  1.013977  0  0  0.128465  0  1.009162  0  0  0.111587  0.120154  0  1.017225  0
H  H7  1  0.67495206  0.18761453  0.60516644  1  0  0.1185  0  0.944133  0  0  0.123642  0  1.013973  0  0  0.128516  0  1.009156  0  0  0.111603  0.1202  0  1.017206  0
H  H8  1  0.85255043  0.94105954  0.03395788  1  0  0.126172  0  0.952838  0  0  0.133097  0  1.017252  0  0  0.136658  0  1.012602  0  0  0.14038  0.130354  0  1.020759  0
H  H9  1  0.14744532  0.05895093  0.96604120  1  0  0.126197  0  0.952958  0  0  0.133159  0  1.017312  0  0  0.13672  0  1.012664  0  0  0.140414  0.130416  0  1.02082  0
H  H10  1  0.93176387  0.08206529  0.33025649  1  0  0.095716  0  0.94725  0  0  0.106287  0  1.007102  0  0  0.108079  0  1.005502  0  0  0.137166  0.104849  0  1.008372  0
H  H11  1  0.06823819  0.91792460  0.66973798  1  0  0.095691  0  0.947275  0  0  0.106262  0  1.007116  0  0  0.108055  0  1.005516  0  0  0.137166  0.104824  0  1.008384  0
H  H12  1  0.47594746  0.14100162  0.31509689  1  0  0.107632  0  0.922253  0  0  0.121828  0  0.984023  0  0  0.123316  0  0.982651  0  0  0.119541  0.120574  0  0.98538  0
H  H13  1  0.52405390  0.85898616  0.68490264  1  0  0.107652  0  0.92229  0  0  0.121837  0  0.984067  0  0  0.123323  0  0.982702  0  0  0.119539  0.120587  0  0.985427  0
H  H14  1  0.57679395  0.15807725  0.42616247  1  0  0.088294  0  0.934897  0  0  0.099578  0  1.003374  0  0  0.100593  0  1.002775  0  0  0.109705  0.098605  0  1.004038  0
H  H15  1  0.42320291  0.84192392  0.57383918  1  0  0.088296  0  0.934937  0  0  0.099578  0  1.003412  0  0  0.1006  0  1.002805  0  0  0.109696  0.098617  0  1.004067  0
H  H16  1  0.48591221  0.99729498  0.19923977  1  0  0.099396  0  0.940681  0  0  0.111236  0  1.008115  0  0  0.112678  0  1.007135  0  0  0.114723  0.110105  0  1.009021  0
H  H17  1  0.51409373  0.00269783  0.80076946  1  0  0.099363  0  0.940695  0  0  0.111174  0  1.008182  0  0  0.112614  0  1.007203  0  0  0.114714  0.110046  0  1.009091  0
H  H18  1  0.66735341  0.05355840  0.15707106  1  0  0.093922  0  0.925938  0  0  0.106903  0  0.989351  0  0  0.107646  0  0.989855  0  0  0.120732  0.106364  0  0.988967  0
H  H19  1  0.33264654  0.94643961  0.84293576  1  0  0.093887  0  0.925918  0  0  0.106895  0  0.989305  0  0  0.107638  0  0.989809  0  0  0.120737  0.106355  0  0.988926  0
H  H20  1  0.58755303  0.65447949  0.98921242  1  0  0.103762  0  0.953613  0  0  0.11598  0  1.008856  0  0  0.117933  0  1.008741  0  0  0.12138  0.114518  0  1.009112  0
H  H21  1  0.41245716  0.34552992  0.01078495  1  0  0.103692  0  0.953661  0  0  0.115933  0  1.008876  0  0  0.117885  0  1.008762  0  0  0.121343  0.11447  0  1.009132  0
H  H22  1  0.78610031  0.69346149  0.27005465  1  0  0.100008  0  0.954215  0  0  0.111303  0  1.011915  0  0  0.114336  0  1.011125  0  0  0.104708  0.109389  0  1.012105  0
H  H23  1  0.21391621  0.30653651  0.72994788  1  0  0.099999  0  0.954283  0  0  0.111297  0  1.011977  0  0  0.114331  0  1.011187  0  0  0.104663  0.109384  0  1.012169  0
H  H24  1  0.45541844  0.76222259  0.15817748  1  0  0.110767  0  0.99875  0  0  0.119603  0  1.062023  0  0  0.12072  0  1.063763  0  0  0.116499  0.118713  0  1.060984  0
H  H25  1  0.54459057  0.23777234  0.84182586  1  0  0.110721  0  0.998793  0  0  0.119555  0  1.062064  0  0  0.12067  0  1.063804  0  0  0.116486  0.118665  0  1.061027  0
H  H26  1  0.73620763  0.96424630  0.54183663  1  0  0.096911  0  0.954328  0  0  0.108037  0  1.015682  0  0  0.111094  0  1.014077  0  0  0.099911  0.1058  0  1.016909  0
H  H27  1  0.26379082  0.03574346  0.45817109  1  0  0.096889  0  0.954337  0  0  0.108063  0  1.015641  0  0  0.111124  0  1.014031  0  0  0.09991  0.10582  0  1.016872  0
H  H28  1  0.79079684  0.44060350  0.08017434  1  0  0.11998  0  0.970662  0  0  0.126603  0  1.034642  0  0  0.12914  0  1.033624  0  0  0.11835  0.124609  0  1.035709  0
H  H29  1  0.20920382  0.55939661  0.91982819  1  0  0.120043  0  0.970695  0  0  0.126675  0  1.03464  0  0  0.129212  0  1.033622  0  0  0.118371  0.124682  0  1.035707  0
H  H30  1  0.51277234  0.36430156  0.18668532  1  0  0.116322  0  0.989725  0  0  0.125462  0  1.051892  0  0  0.127876  0  1.051118  0  0  0.118818  0.123589  0  1.052703  0
H  H31  1  0.48723104  0.63569237  0.81331604  1  0  0.116307  0  0.989692  0  0  0.125439  0  1.051879  0  0  0.127853  0  1.051106  0  0  0.118808  0.12357  0  1.05269  0
H  H32  1  0.88417044  0.72025637  0.58661060  1  0  0.099101  0  0.951814  0  0  0.109565  0  1.010408  0  0  0.112479  0  1.009329  0  0  0.101957  0.107479  0  1.011354  0
H  H33  1  0.11582870  0.27973547  0.41339437  1  0  0.098968  0  0.951932  0  0  0.10949  0  1.010473  0  0  0.112383  0  1.009418  0  0  0.101913  0.1074  0  1.011417  0
H  H34  1  0.90895014  0.58430834  0.44872009  1  0  0.084407  0  0.951337  0  0  0.098499  0  1.006924  0  0  0.100934  0  1.006284  0  0  0.099099  0.096687  0  1.0075  0
H  H35  1  0.09106411  0.41568449  0.55128429  1  0  0.084402  0  0.95118  0  0  0.09847  0  1.006815  0  0  0.100917  0  1.00616  0  0  0.099065  0.09666  0  1.007393  0
C  C36  1  0.16836443  0.69983546  0.20415404  1  0  -0.054355  0  3.672718  0  0  -0.092295  0  3.919671  0  0  -0.087151  0  3.935035  0  0  -0.067977  -0.095918  0  3.910463  0
C  C37  1  0.83162713  0.30017301  0.79584013  1  0  -0.054502  0  3.672963  0  0  -0.092435  0  3.91994  0  0  -0.087287  0  3.935304  0  0  -0.067932  -0.096058  0  3.910735  0
C  C38  1  0.22632099  0.55768521  0.24294919  1  0  -0.056756  0  3.761179  0  0  -0.027834  0  3.990283  0  0  -0.038059  0  4.013194  0  0  -0.016156  -0.021554  0  3.975767  0
C  C39  1  0.77366480  0.44232734  0.75705051  1  0  -0.056688  0  3.761315  0  0  -0.02771  0  3.990321  0  0  -0.037935  0  4.013232  0  0  -0.016194  -0.021434  0  3.975816  0
C  C40  1  0.20459933  0.79211045  0.25792876  1  0  -0.061064  0  3.76786  0  0  -0.034698  0  4.002145  0  0  -0.044134  0  4.024048  0  0  -0.01728  -0.028992  0  3.988276  0
C  C41  1  0.79539755  0.20789077  0.74206748  1  0  -0.060977  0  3.767752  0  0  -0.034729  0  4.002201  0  0  -0.044172  0  4.024109  0  0  -0.017363  -0.029029  0  3.988339  0
C  C42  1  0.31908414  0.50653519  0.33694886  1  0  -0.106217  0  3.708619  0  0  -0.145638  0  3.965226  0  0  -0.140758  0  3.979904  0  0  -0.073432  -0.148018  0  3.955194  0
C  C43  1  0.68090370  0.49346914  0.66304854  1  0  -0.106235  0  3.708459  0  0  -0.145659  0  3.965073  0  0  -0.140779  0  3.979751  0  0  -0.073458  -0.148055  0  3.95509  0
C  C44  1  0.29654717  0.74154721  0.35233358  1  0  -0.10262  0  3.683679  0  0  -0.141649  0  3.938811  0  0  -0.136957  0  3.952102  0  0  -0.073264  -0.143737  0  3.929504  0
C  C45  1  0.70344497  0.25845400  0.64766510  1  0  -0.102634  0  3.683797  0  0  -0.141624  0  3.938964  0  0  -0.136931  0  3.952255  0  0  -0.073221  -0.143708  0  3.929658  0
C  C46  1  0.76311138  0.87768852  0.04290543  1  0  0.174199  0  3.603051  0  0  0.110678  0  3.864929  0  0  0.125233  0  3.875847  0  0  0.152273  0.101217  0  3.857287  0
C  C47  1  0.23689299  0.12231573  0.95709387  1  0  0.174109  0  3.603188  0  0  0.110576  0  3.865056  0  0  0.125129  0  3.875971  0  0  0.152288  0.101111  0  3.857415  0
C  C48  1  0.14979356  0.94475260  0.21012765  1  0  0.614439  0  3.953701  0  0  0.566975  0  4.246296  0  0  0.599928  0  4.241031  0  0  0.193693  0.544461  0  4.249187  0
C  C49  1  0.85020679  0.05525378  0.78986671  1  0  0.614398  0  3.953586  0  0  0.566979  0  4.246181  0  0  0.599933  0  4.240917  0  0  0.193667  0.544468  0  4.249065  0
C  C50  1  0.35236090  0.59921199  0.39065235  1  0  0.102118  0  3.769519  0  0  0.100065  0  4.02785  0  0  0.098918  0  4.04737  0  0  0.086394  0.100234  0  4.014646  0
C  C51  1  0.64762163  0.40078512  0.60934738  1  0  0.102153  0  3.769327  0  0  0.100009  0  4.027779  0  0  0.098862  0  4.047298  0  0  0.086414  0.100163  0  4.014656  0
C  C52  1  0.18960951  0.45947083  0.18357542  1  0  0.607918  0  3.959183  0  0  0.561814  0  4.246621  0  0  0.594664  0  4.241143  0  0  0.191167  0.539359  0  4.249643  0
C  C53  1  0.81037757  0.54053659  0.81642139  1  0  0.607838  0  3.958989  0  0  0.561711  0  4.246429  0  0  0.59456  0  4.240955  0  0  0.191097  0.539259  0  4.249446  0
C  C54  1  0.85729572  0.17113779  0.27708911  1  0  0.169604  0  3.66211  0  0  0.106748  0  3.921313  0  0  0.121193  0  3.933629  0  0  0.144283  0.097151  0  3.912945  0
C  C55  1  0.14270648  0.82885617  0.72290918  1  0  0.169583  0  3.662193  0  0  0.10673  0  3.921407  0  0  0.121173  0  3.933725  0  0  0.144192  0.097138  0  3.913042  0
C  C56  1  0.69076643  0.89152938  0.30306111  1  0  0.036034  0  3.705495  0  0  0.049564  0  3.947687  0  0  0.048732  0  3.972415  0  0  -0.008734  0.050045  0  3.93101  0
C  C57  1  0.30924444  0.10846761  0.69694100  1  0  0.035997  0  3.705269  0  0  0.049366  0  3.947767  0  0  0.048525  0  3.972495  0  0  -0.008822  0.049852  0  3.93109  0
C  C58  1  0.67613280  0.96844833  0.38059184  1  0  0.006535  0  3.741423  0  0  0.023806  0  3.977371  0  0  0.021375  0  4.003286  0  0  -0.016507  0.025449  0  3.959799  0
C  C59  1  0.32387334  0.03154866  0.61941116  1  0  0.00654  0  3.741318  0  0  0.023779  0  3.977442  0  0  0.021374  0  4.003328  0  0  -0.016569  0.025401  0  3.959893  0
C  C60  1  0.59482688  0.11996084  0.35371343  1  0  -0.049724  0  3.630532  0  0  -0.116068  0  3.87858  0  0  -0.111502  0  3.888677  0  0  -0.049405  -0.118974  0  3.871693  0
C  C61  1  0.40517692  0.88003619  0.64628653  1  0  -0.049774  0  3.630644  0  0  -0.116083  0  3.878708  0  0  -0.111533  0  3.888805  0  0  -0.049334  -0.118967  0  3.871788  0
C  C62  1  0.61760418  0.96193062  0.19301891  1  0  -0.048343  0  3.645401  0  0  -0.11452  0  3.897463  0  0  -0.110785  0  3.908303  0  0  -0.045246  -0.116866  0  3.890006  0
C  C63  1  0.38240153  0.03806326  0.80698703  1  0  -0.048243  0  3.645097  0  0  -0.114353  0  3.897205  0  0  -0.110619  0  3.908049  0  0  -0.045207  -0.1167  0  3.889753  0
C  C64  1  0.62300452  0.72952360  0.02380942  1  0  -0.002018  0  3.762606  0  0  -0.035396  0  4.025791  0  0  -0.03354  0  4.045907  0  0  -0.001508  -0.036635  0  4.012291  0
C  C65  1  0.37700078  0.27048170  0.97618888  1  0  -0.001997  0  3.762764  0  0  -0.035385  0  4.025921  0  0  -0.033529  0  4.046038  0  0  -0.001476  -0.036627  0  4.012422  0
C  C66  1  0.77403029  0.75365987  0.32925817  1  0  -0.116215  0  3.755138  0  0  -0.139928  0  4.009161  0  0  -0.143334  0  4.031902  0  0  -0.09552  -0.137511  0  3.993412  0
C  C67  1  0.22598252  0.24633399  0.67074682  1  0  -0.116067  0  3.755017  0  0  -0.139707  0  4.009049  0  0  -0.14312  0  4.031808  0  0  -0.095278  -0.13729  0  3.993291  0
C  C68  1  0.55626607  0.78211700  0.10686806  1  0  -0.065466  0  3.675124  0  0  -0.104047  0  3.928146  0  0  -0.103001  0  3.948477  0  0  -0.00027  -0.104907  0  3.914812  0
C  C69  1  0.44374168  0.21788309  0.89313429  1  0  -0.065456  0  3.675274  0  0  -0.104009  0  3.928274  0  0  -0.102964  0  3.948606  0  0  -0.000238  -0.104873  0  3.914945  0
C  C70  1  0.74652742  0.90504421  0.48180752  1  0  -0.118133  0  3.759017  0  0  -0.137169  0  4.005658  0  0  -0.139691  0  4.027953  0  0  -0.092778  -0.135234  0  3.99047  0
C  C71  1  0.25347476  0.09494970  0.51819619  1  0  -0.118166  0  3.758912  0  0  -0.137211  0  4.005619  0  0  -0.139741  0  4.027901  0  0  -0.092777  -0.13527  0  3.990438  0
C  C72  1  0.77678676  0.35666203  0.14820884  1  0  0.004139  0  3.731251  0  0  -0.027814  0  3.988812  0  0  -0.025991  0  4.009212  0  0  1e-06  -0.029165  0  3.975254  0
C  C73  1  0.22321611  0.64333397  0.85179135  1  0  0.004061  0  3.731288  0  0  -0.027904  0  3.988845  0  0  -0.02608  0  4.009244  0  0  -2.3e-05  -0.029246  0  3.975282  0
C  C74  1  0.64075393  0.32028251  0.19862458  1  0  -0.070321  0  3.670734  0  0  -0.111735  0  3.928832  0  0  -0.111062  0  3.948438  0  0  -0.003902  -0.112226  0  3.915986  0
C  C75  1  0.35924800  0.67971245  0.80137738  1  0  -0.070312  0  3.670622  0  0  -0.111726  0  3.928741  0  0  -0.111055  0  3.948346  0  0  -0.003914  -0.112216  0  3.915899  0
C  C76  1  0.83083278  0.76740500  0.50714398  1  0  -0.072871  0  3.780488  0  0  -0.088222  0  4.03382  0  0  -0.090543  0  4.055586  0  0  -0.09599  -0.086696  0  4.019113  0
C  C77  1  0.16917227  0.23258683  0.49286084  1  0  -0.072651  0  3.780464  0  0  -0.088048  0  4.033794  0  0  -0.090351  0  4.055573  0  0  -0.09592  -0.086519  0  4.01907  0
C  C78  1  0.84397711  0.69194485  0.43049809  1  0  -0.057051  0  3.779907  0  0  -0.073985  0  4.035727  0  0  -0.076124  0  4.058911  0  0  -0.09165  -0.072373  0  4.019952  0
C  C79  1  0.15603822  0.30805314  0.56950525  1  0  -0.057152  0  3.779541  0  0  -0.074076  0  4.035377  0  0  -0.076224  0  4.058552  0  0  -0.091715  -0.072465  0  4.019599  0
N  N80  1  0.75150093  0.79004593  0.98452769  1  0  -0.374532  0  3.321075  0  0  -0.291579  0  3.621228  0  0  -0.31157  0  3.631846  0  0  -0.357901  -0.277773  0  3.613649  0
N  N81  1  0.24849771  0.20996251  0.01546785  1  0  -0.374529  0  3.32111  0  0  -0.291591  0  3.621286  0  0  -0.31158  0  3.631902  0  0  -0.357958  -0.277783  0  3.613703  0
N  N82  1  0.91056026  0.26204253  0.19787982  1  0  -0.375655  0  3.342566  0  0  -0.290578  0  3.633973  0  0  -0.31099  0  3.645962  0  0  -0.363053  -0.276708  0  3.625672  0
N  N83  1  0.08944261  0.73795350  0.80211883  1  0  -0.375627  0  3.342513  0  0  -0.29054  0  3.633915  0  0  -0.310954  0  3.645906  0  0  -0.362953  -0.276668  0  3.625615  0
N  N84  1  0.69431555  0.20227860  0.27945796  1  0  -0.047738  0  3.554785  0  0  0.049157  0  3.766333  0  0  0.034969  0  3.791342  0  0  -0.237659  0.058451  0  3.749552  0
N  N85  1  0.30568615  0.79771743  0.72053994  1  0  -0.047724  0  3.554653  0  0  0.049181  0  3.766196  0  0  0.034997  0  3.791205  0  0  -0.23764  0.058477  0  3.749428  0
N  N86  1  0.64571722  0.87599422  0.11744148  1  0  -0.048404  0  3.578775  0  0  0.045541  0  3.796194  0  0  0.031032  0  3.821825  0  0  -0.239241  0.055017  0  3.778974  0
N  N87  1  0.35428883  0.12400796  0.88255896  1  0  -0.048304  0  3.578694  0  0  0.045606  0  3.796175  0  0  0.031104  0  3.821789  0  0  -0.23929  0.05508  0  3.778957  0
N  N88  1  0.43490332  0.55247777  0.49289017  1  0  0.236507  0  3.620894  0  0  0.269946  0  3.901996  0  0  0.279189  0  3.917321  0  0  0.008134  0.263562  0  3.892096  0
N  N89  1  0.56508369  0.44752037  0.50710770  1  0  0.236664  0  3.620807  0  0  0.270014  0  3.901912  0  0  0.279259  0  3.917235  0  0  0.008146  0.263622  0  3.892052  0
O  O90  1  0.25366855  0.32922900  0.22452195  1  0  -0.661069  0  2.031851  0  0  -0.589816  0  2.300106  0  0  -0.617493  0  2.285892  0  0  -0.340366  -0.569404  0  2.310688  0
O  O91  1  0.74633247  0.67077944  0.77547198  1  0  -0.661093  0  2.031687  0  0  -0.58981  0  2.29996  0  0  -0.617489  0  2.285755  0  0  -0.340398  -0.569401  0  2.310545  0
O  O92  1  0.21813000  0.02496480  0.24791949  1  0  -0.6567  0  1.993389  0  0  -0.588241  0  2.253144  0  0  -0.615525  0  2.239918  0  0  -0.337307  -0.568024  0  2.262928  0
O  O93  1  0.78187913  0.97503951  0.75207350  1  0  -0.656599  0  1.993489  0  0  -0.588176  0  2.253274  0  0  -0.61544  0  2.240006  0  0  -0.337227  -0.567965  0  2.263064  0
O  O94  1  0.04613446  0.98655900  0.13634693  1  0  -0.609974  0  1.936303  0  0  -0.5664  0  2.164416  0  0  -0.589838  0  2.157042  0  0  -0.317298  -0.549278  0  2.168426  0
O  O95  1  0.95386275  0.01345047  0.86364844  1  0  -0.60996  0  1.936208  0  0  -0.566391  0  2.164319  0  0  -0.589832  0  2.156945  0  0  -0.317301  -0.54927  0  2.16832  0
O  O96  1  0.10336615  0.50362298  0.10116971  1  0  -0.581624  0  1.907051  0  0  -0.53753  0  2.127193  0  0  -0.559191  0  2.118788  0  0  -0.311395  -0.521643  0  2.131935  0
O  O97  1  0.89661737  0.49638444  0.89882951  1  0  -0.581519  0  1.906925  0  0  -0.537436  0  2.12709  0  0  -0.5591  0  2.118694  0  0  -0.311311  -0.521545  0  2.131828  0
O  O98  1  0.38287047  0.61285352  0.56620189  1  0  -0.421538  0  1.750778  0  0  -0.413194  0  1.97527  0  0  -0.431448  0  1.97734  0  0  -0.186463  -0.400029  0  1.973218  0
O  O99  1  0.61711036  0.38714564  0.43379903  1  0  -0.421334  0  1.750734  0  0  -0.413174  0  1.975211  0  0  -0.431423  0  1.977277  0  0  -0.186455  -0.400005  0  1.973152  0
