# generated using pymatgen
data_Cu3H24C14(N11O)2
_symmetry_space_group_name_H-M   'P 1'
_cell_length_a   7.70134867
_cell_length_b   8.51172119
_cell_length_c   11.05899438
_cell_angle_alpha   91.52394392
_cell_angle_beta   107.44023239
_cell_angle_gamma   93.52333846
_symmetry_Int_Tables_number   1
_chemical_formula_structural   Cu3H24C14(N11O)2
_chemical_formula_sum   'Cu3 H24 C14 N22 O2'
_cell_volume   689.53203963
_cell_formula_units_Z   1
loop_
 _symmetry_equiv_pos_site_id
 _symmetry_equiv_pos_as_xyz
  1  'x, y, z'
loop_
 _atom_site_type_symbol
 _atom_site_label
 _atom_site_symmetry_multiplicity
 _atom_site_fract_x
 _atom_site_fract_y
 _atom_site_fract_z
 _atom_site_occupancy
 _atom_site_hle17_ddec_charge
 _atom_site_hle17_ddec_spin_density
 _atom_site_hle17_ddec_sum_bond_order
 _atom_site_hle17_magmom
 _atom_site_hse06_10hf_ddec_charge
 _atom_site_hse06_10hf_ddec_spin_density
 _atom_site_hse06_10hf_ddec_sum_bond_order
 _atom_site_hse06_10hf_magmom
 _atom_site_hse06_ddec_charge
 _atom_site_hse06_ddec_spin_density
 _atom_site_hse06_ddec_sum_bond_order
 _atom_site_hse06_magmom
 _atom_site_pbe_cm5_charge
 _atom_site_pbe_ddec_charge
 _atom_site_pbe_ddec_spin_density
 _atom_site_pbe_ddec_sum_bond_order
 _atom_site_pbe_magmom
Cu  Cu0  1  0.49883169  0.49883293  0.49975554  1  0.754002  0.549845  2.07684  0.362  0.791112  0.707784  2.465952  0.527  0.880648  0.811779  2.394931  0.631  0.782709  0.74647  0.629532  2.506808  0.457
Cu  Cu1  1  0.10594545  0.35423363  0.42390462  1  0.766266  0.578982  1.942852  0.384  0.7705  0.717633  2.358689  0.536  0.867078  0.814825  2.282883  0.634  0.771506  0.718254  0.649602  2.405189  0.473
Cu  Cu2  1  0.89560070  0.64556088  0.57621866  1  0.765546  -0.586267  1.944341  -0.376  0.769866  -0.737918  2.360048  -0.538  0.868218  -0.85782  2.283078  -0.64  0.770386  0.716908  -0.649566  2.407078  -0.469
H  H3  1  0.69317128  0.27474756  0.95613777  1  0.141303  0.000739  0.965877  0.001  0.148189  0.000763  1.029594  0.001  0.151952  0.000611  1.028366  0.001  0.105694  0.145476  0.000837  1.030596  0.001
H  H4  1  0.30698104  0.72543573  0.04397116  1  0.141844  -0.000638  0.966449  -0.001  0.148756  -0.000577  1.030054  -0.001  0.152623  -0.000464  1.028737  0.0  0.105894  0.14606  -0.000605  1.030943  -0.001
H  H5  1  0.87917731  0.02629486  0.39402206  1  0.081252  -0.000176  0.939216  0.0  0.086461  -0.000181  1.01269  0.0  0.087645  -0.000171  1.01104  0.0  0.123819  0.085637  -0.000162  1.013708  0.0
H  H6  1  0.12069582  0.97349825  0.60593024  1  0.081354  0.000178  0.939869  0.0  0.08604  0.000182  1.013897  0.0  0.087129  0.000175  1.012391  0.0  0.123837  0.085378  0.000176  1.014715  0.0
H  H7  1  0.92900809  0.89561065  0.28123278  1  0.062689  2.6e-05  0.947283  0.0  0.076118  8e-06  1.013006  0.0  0.076787  3.3e-05  1.012135  0.0  0.119261  0.075635  -4e-06  1.013662  0.0
H  H8  1  0.07124955  0.10422618  0.71882508  1  0.062594  0.000332  0.947752  0.0  0.076192  0.000305  1.013165  0.0  0.076828  0.000222  1.012289  0.0  0.119306  0.075747  0.000374  1.013832  0.0
H  H9  1  0.92499137  0.58602954  0.25231469  1  0.118078  -0.000182  0.983375  0.0  0.132513  -1e-05  1.05962  0.0  0.135331  6.5e-05  1.058289  0.0  0.088052  0.130444  -9.8e-05  1.060704  0.0
H  H10  1  0.07559964  0.41386624  0.74791700  1  0.118044  0.000324  0.982856  0.0  0.132537  0.000122  1.059225  0.0  0.135307  -3.3e-05  1.057985  0.0  0.08824  0.130493  0.000282  1.060246  0.0
H  H11  1  0.71915736  0.57595394  0.12197857  1  0.124811  -0.000128  0.941894  0.0  0.145116  5.6e-05  1.0019  0.0  0.146939  1.6e-05  1.001113  0.0  0.097541  0.143889  5.2e-05  1.002307  0.0
H  H12  1  0.28097398  0.42371272  0.87860545  1  0.124989  0.00015  0.942313  0.0  0.145389  8.6e-05  1.002154  0.0  0.147072  7.9e-05  1.001599  0.0  0.09782  0.144418  8.4e-05  1.002182  0.0
H  H13  1  0.93167908  0.58116049  0.09192888  1  0.118227  -0.000101  0.94127  0.0  0.138471  -5e-06  1.003016  0.0  0.140267  -4.3e-05  1.002601  0.0  0.092799  0.137208  4.6e-05  1.003214  0.0
H  H14  1  0.06809744  0.41898607  0.90808195  1  0.1183  0.000426  0.941799  0.0  0.138575  0.00035  1.00347  0.0  0.140421  0.000326  1.00298  0.0  0.092945  0.137327  0.000339  1.003695  0.0
H  H15  1  0.78853449  0.84710572  0.09950499  1  0.11791  0.000156  0.981242  0.0  0.136093  0.000143  1.047592  0.0  0.138003  0.000111  1.046803  0.0  0.097032  0.134642  0.000161  1.048324  0.0
H  H16  1  0.21196908  0.15284444  0.90015537  1  0.117678  0.000157  0.981576  0.0  0.135662  0.000149  1.048185  0.0  0.13744  0.000134  1.047526  0.0  0.0969  0.134375  0.00017  1.048762  0.0
H  H17  1  0.82466952  0.92940814  0.96307176  1  0.117232  -0.000181  0.959196  0.0  0.136468  -0.000156  1.023342  0.0  0.13834  -0.00017  1.022925  0.0  0.094142  0.135176  -0.000128  1.023532  0.0
H  H18  1  0.17459096  0.07100175  0.03637503  1  0.117234  0.000276  0.9587  0.0  0.136428  0.000235  1.022989  0.0  0.138382  0.000229  1.022455  0.0  0.094102  0.135128  0.000226  1.023226  0.0
H  H19  1  0.60691464  0.92521579  0.98505713  1  0.130448  -0.000136  0.946347  0.0  0.153234  -4.1e-05  1.002916  0.0  0.154582  -6.7e-05  1.003204  0.0  0.102252  0.152252  -2.3e-05  1.002794  0.0
H  H20  1  0.39283952  0.07471634  0.01517057  1  0.130349  0.00016  0.946221  0.0  0.153387  8.2e-05  1.00248  0.0  0.154772  7.6e-05  1.002768  0.0  0.102421  0.15243  7.8e-05  1.002288  0.0
H  H21  1  0.40128833  0.02694046  0.38580569  1  0.103481  -0.000121  0.963934  0.0  0.120031  3e-06  1.029763  0.0  0.12136  4e-06  1.028849  0.0  0.10191  0.119052  9e-06  1.030466  0.0
H  H22  1  0.59868775  0.97339944  0.61410850  1  0.10387  0.000212  0.963394  0.0  0.119985  7.4e-05  1.029712  0.0  0.121235  5.7e-05  1.028917  0.0  0.101888  0.119104  8.8e-05  1.030262  0.0
H  H23  1  0.24248927  0.06942236  0.23849628  1  0.072586  7.4e-05  0.963654  0.0  0.086895  0.000128  1.034243  0.0  0.087328  9.1e-05  1.034475  0.0  0.090207  0.086615  0.000159  1.033982  0.0
H  H24  1  0.75705471  0.93060676  0.76141831  1  0.072929  -0.000151  0.9633  0.0  0.087238  -0.000186  1.033664  0.0  0.087722  -0.000153  1.033857  0.0  0.090364  0.086881  -0.000205  1.033465  0.0
H  H25  1  0.23726784  0.87434535  0.29676259  1  0.078944  3.3e-05  0.943051  0.0  0.096185  3.5e-05  1.008271  0.0  0.097564  3.6e-05  1.007509  0.0  0.091883  0.095282  4.8e-05  1.00868  0.0
H  H26  1  0.76286121  0.12575933  0.70339245  1  0.078121  0.000445  0.943682  0.0  0.095584  0.000463  1.008767  0.0  0.09691  0.00037  1.008067  0.0  0.091696  0.094736  0.00053  1.009126  0.0
C  C27  1  0.76875654  0.25012711  0.05265836  1  -0.33227  0.004469  3.694911  0.004  -0.356638  0.002498  3.944625  0.003  -0.368918  0.002172  3.961989  0.002  -0.120754  -0.348335  0.002697  3.932467  0.003
C  C28  1  0.23151259  0.74986834  0.94743553  1  -0.333126  -0.004186  3.695751  -0.004  -0.357744  -0.002198  3.945314  -0.002  -0.369857  -0.002096  3.962311  -0.002  -0.121252  -0.349593  -0.002114  3.93335  -0.002
C  C29  1  0.84947605  0.36063408  0.15408930  1  0.300896  -0.003337  3.753294  -0.003  0.303325  0.000202  4.017913  0.001  0.317669  -0.000951  4.034513  -0.001  0.105897  0.294374  0.001004  4.006276  0.001
C  C30  1  0.15099571  0.63924794  0.84608230  1  0.300819  0.003526  3.75481  0.003  0.303873  0.000279  4.018855  0.0  0.318333  0.001275  4.03529  0.001  0.105425  0.294816  -0.000396  4.007446  -0.001
C  C31  1  0.95646246  0.01483700  0.32594974  1  0.143049  -0.000196  3.670314  0.0  0.065132  -2.6e-05  3.937437  0.0  0.076029  -7.9e-05  3.942497  0.0  0.029885  0.057629  2.9e-05  3.93425  0.0
C  C32  1  0.04349096  0.98503966  0.67403471  1  0.142848  0.000549  3.670184  0.0  0.064989  0.000367  3.93769  0.0  0.075833  0.000354  3.942883  0.0  0.029802  0.05752  0.000375  3.934333  0.0
C  C33  1  0.80197059  0.10153270  0.10056819  1  0.246167  -0.002473  3.719125  -0.002  0.23715  0.000168  3.98059  0.0  0.249603  -0.000679  3.997225  0.0  0.107854  0.229078  0.000794  3.968942  0.001
C  C34  1  0.19808669  0.89843029  0.89942819  1  0.246518  0.003843  3.718357  0.003  0.237427  0.00052  3.979956  0.0  0.249866  0.001098  3.996533  0.001  0.107912  0.229481  0.000159  3.968251  0.0
C  C35  1  0.85747688  0.53572275  0.15601546  1  -0.367336  0.000274  3.715593  0.0  -0.448284  0.000548  3.949663  0.001  -0.45211  0.000529  3.954729  0.001  -0.24405  -0.44536  0.000517  3.945744  0.001
C  C36  1  0.14281480  0.46418410  0.84425064  1  -0.367184  0.000344  3.716386  0.0  -0.448721  0.000174  3.950458  0.0  -0.452589  -2.2e-05  3.955613  0.0  -0.244057  -0.445811  0.000381  3.946391  0.0
C  C37  1  0.75357599  0.94290597  0.03476137  1  -0.359672  0.000664  3.731008  0.001  -0.441952  0.000389  3.970062  0.001  -0.44507  0.000291  3.975786  0.001  -0.232845  -0.439683  0.000452  3.966061  0.001
C  C38  1  0.24630565  0.05714237  0.96507630  1  -0.359384  -0.000589  3.730819  -0.001  -0.442005  -0.000109  3.9705  0.0  -0.445129  -0.000102  3.976242  0.0  -0.232974  -0.439753  -7.2e-05  3.966324  0.0
C  C39  1  0.26204327  0.00094990  0.32391698  1  -0.08989  0.000105  3.641606  0.0  -0.184869  0.000214  3.911519  0.0  -0.178991  0.00015  3.914385  0.0  -0.15639  -0.18864  0.000307  3.90939  0.0
C  C40  1  0.73789077  0.99920662  0.67610590  1  -0.089234  0.000418  3.641417  0.0  -0.184034  0.000409  3.911427  0.0  -0.178229  0.000332  3.914413  0.0  -0.156174  -0.187713  0.00044  3.909176  0.0
N  N41  1  0.67158410  0.61214035  0.42131373  1  -0.531051  0.009813  2.911927  0.013  -0.561061  0.002634  3.283843  0.004  -0.615008  -0.000746  3.297788  0.001  -0.357926  -0.531081  0.005084  3.276956  0.007
N  N42  1  0.32812563  0.38788806  0.57930705  1  -0.532641  0.089643  2.930272  0.103  -0.560591  0.065441  3.301725  0.081  -0.612735  0.049049  3.314063  0.066  -0.361051  -0.532647  0.073632  3.297128  0.086
N  N43  1  0.92636374  0.28344462  0.25926120  1  -0.333203  0.058341  3.194807  0.067  -0.308964  0.048912  3.495241  0.061  -0.336405  0.043466  3.513381  0.057  -0.282863  -0.293921  0.05045  3.485121  0.06
N  N44  1  0.07409596  0.71633873  0.74088415  1  -0.332542  -0.057824  3.197323  -0.064  -0.309613  -0.049669  3.498881  -0.061  -0.337325  -0.045463  3.516896  -0.058  -0.283217  -0.294398  -0.04944  3.488933  -0.059
N  N45  1  0.89738476  0.12622978  0.22605171  1  -0.034036  0.003169  3.511876  0.003  0.049359  0.002811  3.733207  0.003  0.037329  0.002441  3.760997  0.002  -0.158086  0.057242  0.003016  3.715151  0.003
N  N46  1  0.10270522  0.87360341  0.77396410  1  -0.0333  -0.003484  3.509611  -0.003  0.049882  -0.00298  3.731401  -0.003  0.037777  -0.002663  3.759374  -0.002  -0.157636  0.057864  -0.003028  3.713114  -0.003
N  N47  1  0.28362674  0.46494096  0.34399403  1  -0.545861  0.097907  2.92184  0.113  -0.57872  0.070132  3.296599  0.088  -0.6342  0.051163  3.312027  0.07  -0.364093  -0.548217  0.07969  3.289547  0.094
N  N48  1  0.71603870  0.53557575  0.65537100  1  -0.546278  0.011306  2.912653  0.014  -0.578287  0.001257  3.28619  0.002  -0.634613  -0.000709  3.302435  0.0  -0.36139  -0.546906  0.002881  3.277933  0.003
N  N49  1  0.78417643  0.28052255  0.48442658  1  0.383847  -0.040156  4.170052  -0.055  0.430666  -0.005363  4.499978  -0.014  0.45165  -0.007327  4.539683  -0.014  0.079072  0.417628  -0.002495  4.475178  -0.011
N  N50  1  0.21540230  0.72049653  0.51512643  1  0.382469  0.034202  4.176296  0.051  0.428505  0.003157  4.503215  0.012  0.449063  0.00521  4.542266  0.013  0.078357  0.415918  0.000359  4.479151  0.009
N  N51  1  0.94530903  0.31384457  0.52997413  1  -0.488268  0.106145  2.707248  0.12  -0.54446  0.049228  3.081833  0.061  -0.591044  0.029692  3.096529  0.041  -0.308851  -0.517646  0.060909  3.074495  0.071
N  N52  1  0.05424447  0.68709303  0.46950513  1  -0.493682  -0.105859  2.712426  -0.115  -0.54534  -0.051856  3.084641  -0.062  -0.591181  -0.03431  3.098803  -0.044  -0.311733  -0.519791  -0.05983  3.078338  -0.069
N  N53  1  0.62260071  0.70857101  0.34138628  1  0.402954  -0.005405  4.11561  -0.007  0.4497  -0.000823  4.412144  -0.002  0.471188  -0.001015  4.447367  -0.002  0.103971  0.436352  -0.000512  4.388642  -0.002
N  N54  1  0.37715545  0.29109926  0.65877721  1  0.401036  -0.030204  4.119493  -0.042  0.448111  -0.003501  4.414815  -0.012  0.469316  -0.009247  4.44779  -0.018  0.101356  0.434813  0.001639  4.394051  -0.006
N  N55  1  0.30527224  0.42216383  0.24389748  1  0.39376  -0.034227  4.123665  -0.048  0.440794  -0.004638  4.424346  -0.015  0.461405  -0.010643  4.460179  -0.021  0.100185  0.427976  0.000989  4.401428  -0.009
N  N56  1  0.69537670  0.57701478  0.75615464  1  0.393047  -0.005703  4.126132  -0.007  0.439621  -0.000625  4.425704  -0.001  0.460213  -0.000633  4.462971  0.0  0.100129  0.426996  -0.000691  4.400942  -0.001
N  N57  1  0.62604443  0.25235075  0.44653629  1  -0.332795  0.149643  2.42841  0.157  -0.374534  0.067871  2.702507  0.075  -0.394665  0.055411  2.715382  0.065  -0.183601  -0.3636  0.075001  2.695005  0.08
N  N58  1  0.37343109  0.74897274  0.55289066  1  -0.334619  -0.149179  2.429324  -0.148  -0.372583  -0.07006  2.700172  -0.074  -0.39141  -0.059274  2.712531  -0.065  -0.183103  -0.362789  -0.074132  2.693211  -0.076
N  N59  1  0.57485274  0.79751388  0.26231623  1  -0.300567  0.019174  2.341015  0.021  -0.30072  0.008501  2.555573  0.01  -0.310345  0.006391  2.567769  0.008  -0.130566  -0.293872  0.010741  2.54671  0.012
N  N60  1  0.42428274  0.20236461  0.73815014  1  -0.301959  0.136923  2.340087  0.143  -0.300577  0.08213  2.554421  0.091  -0.307673  0.07406  2.565006  0.087  -0.132824  -0.29669  0.086867  2.547564  0.092
N  N61  1  0.32413370  0.38561152  0.14711096  1  -0.274531  0.15008  2.321291  0.156  -0.276988  0.091323  2.531617  0.1  -0.285553  0.081056  2.544964  0.094  -0.121776  -0.271942  0.097548  2.522745  0.103
N  N62  1  0.67666260  0.61340905  0.85299045  1  -0.274689  0.017728  2.325277  0.019  -0.276659  0.00303  2.534648  0.004  -0.286552  0.001472  2.548839  0.003  -0.119589  -0.269611  0.004489  2.524391  0.005
O  O63  1  0.14213385  0.04643094  0.39449592  1  -0.284747  -0.000937  2.317484  0.0  -0.21918  -0.00085  2.585465  0.0  -0.236963  -0.000942  2.585456  0.0  -0.228686  -0.207262  -0.000636  2.585438  0.0
O  O64  1  0.85780576  0.95361954  0.60560191  1  -0.284627  0.001061  2.317446  0.001  -0.219031  0.000976  2.585308  0.001  -0.236586  0.000969  2.585098  0.001  -0.228965  -0.207443  0.000899  2.585605  0.001
