# generated using pymatgen
data_AgH7C9INO3
_symmetry_space_group_name_H-M   'P 1'
_cell_length_a   7.67707617
_cell_length_b   10.45338671
_cell_length_c   31.29702050
_cell_angle_alpha   93.47290439
_cell_angle_beta   89.97808672
_cell_angle_gamma   111.56077540
_symmetry_Int_Tables_number   1
_chemical_formula_structural   AgH7C9INO3
_chemical_formula_sum   'Ag8 H56 C72 I8 N8 O24'
_cell_volume   2330.95065182
_cell_formula_units_Z   8
loop_
 _symmetry_equiv_pos_site_id
 _symmetry_equiv_pos_as_xyz
  1  'x, y, z'
loop_
 _atom_site_type_symbol
 _atom_site_label
 _atom_site_symmetry_multiplicity
 _atom_site_fract_x
 _atom_site_fract_y
 _atom_site_fract_z
 _atom_site_occupancy
 _atom_site_pbe_bader_charge
 _atom_site_pbe_bader_spin_density
 _atom_site_pbe_cm5_charge
 _atom_site_pbe_ddec_charge
 _atom_site_pbe_ddec_spin_density
 _atom_site_pbe_ddec_sum_bond_order
 _atom_site_pbe_magmom
Ag  Ag0  1  0.98841693  0.86761247  0.01056308  1  0.569972  0  0.385862  0.398657  0  2.070882  0
Ag  Ag1  1  0.12085989  0.13235661  0.48941611  1  0.572299  0  0.3857  0.398816  0  2.069247  0
Ag  Ag2  1  0.01157957  0.13238715  0.98943641  1  0.570602  0  0.385856  0.398613  0  2.070915  0
Ag  Ag3  1  0.87913948  0.86764094  0.51058397  1  0.572941  0  0.385686  0.398795  0  2.069253  0
Ag  Ag4  1  0.33800005  0.45458678  0.02652432  1  0.61983  0  0.386553  0.436216  0  1.891647  0
Ag  Ag5  1  0.88387559  0.54557235  0.47347163  1  0.619775  0  0.386484  0.43589  0  1.892413  0
Ag  Ag6  1  0.66199830  0.54540872  0.97347444  1  0.620374  0  0.386568  0.436235  0  1.891594  0
Ag  Ag7  1  0.11612219  0.45442725  0.52652913  1  0.620567  0  0.386474  0.435885  0  1.892439  0
H  H8  1  0.34464893  0.09482705  0.13259680  1  0.098135  0  0.11081  0.111151  0  0.978249  0
H  H9  1  0.25066646  0.90511068  0.36747134  1  0.101531  0  0.111116  0.111651  0  0.977639  0
H  H10  1  0.65534784  0.90517051  0.86740232  1  0.098159  0  0.11081  0.111176  0  0.978222  0
H  H11  1  0.74934148  0.09489098  0.63252915  1  0.101542  0  0.111162  0.1117  0  0.977598  0
H  H12  1  0.50078986  0.19796068  0.09488247  1  0.087706  0  0.099015  0.091768  0  1.030321  0
H  H13  1  0.30326309  0.80184269  0.40517421  1  0.086212  0  0.09888  0.090764  0  1.030618  0
H  H14  1  0.49920952  0.80203689  0.90511601  1  0.087692  0  0.099005  0.091752  0  1.030403  0
H  H15  1  0.69674042  0.19815793  0.59482689  1  0.086247  0  0.098882  0.090756  0  1.030674  0
H  H16  1  0.79413674  0.70151316  0.13590512  1  0.076737  0  0.120058  0.121937  0  0.951132  0
H  H17  1  0.09374877  0.29873251  0.36407037  1  0.088732  0  0.120161  0.122543  0  0.950445  0
H  H18  1  0.20585821  0.29848338  0.86409366  1  0.076702  0  0.120029  0.121865  0  0.951167  0
H  H19  1  0.90625005  0.70126915  0.63593011  1  0.088703  0  0.120154  0.122571  0  0.950424  0
H  H20  1  0.82980222  0.54350195  0.12768143  1  0.100902  0  0.097465  0.083527  0  1.07878  0
H  H21  1  0.28741126  0.45676161  0.37237219  1  0.098906  0  0.097221  0.083154  0  1.078855  0
H  H22  1  0.17019324  0.45649561  0.87231801  1  0.100916  0  0.097465  0.083539  0  1.0787  0
H  H23  1  0.71259016  0.54324005  0.62762861  1  0.098914  0  0.097228  0.083137  0  1.07886  0
H  H24  1  0.93224799  0.58636325  0.21368381  1  0.073938  0  0.102408  0.112396  0  0.994444  0
H  H25  1  0.34663836  0.41334429  0.28636414  1  0.044786  0  0.102686  0.11257  0  0.993762  0
H  H26  1  0.06775218  0.41363329  0.78631496  1  0.074146  0  0.102431  0.112404  0  0.994466  0
H  H27  1  0.65336800  0.58665943  0.71363671  1  0.044706  0  0.102669  0.112529  0  0.99377  0
H  H28  1  0.62584659  0.93684892  0.00260420  1  0.085821  0  0.090935  0.096788  0  1.058641  0
H  H29  1  0.68916027  0.06304599  0.49738224  1  0.088449  0  0.090944  0.09693  0  1.058362  0
H  H30  1  0.37414967  0.06314762  0.99739426  1  0.085876  0  0.090903  0.096736  0  1.058654  0
H  H31  1  0.31083961  0.93695258  0.50261786  1  0.088459  0  0.090963  0.09695  0  1.058352  0
H  H32  1  0.82903505  0.04975747  0.06610769  1  0.107865  0  0.087439  0.079695  0  1.080985  0
H  H33  1  0.77964808  0.95030015  0.43384519  1  0.080437  0  0.08733  0.079726  0  1.080403  0
H  H34  1  0.17096121  0.95023907  0.93389109  1  0.107805  0  0.087411  0.079653  0  1.081091  0
H  H35  1  0.22034972  0.04969946  0.56615461  1  0.080402  0  0.087332  0.079718  0  1.080454  0
H  H36  1  0.23552471  0.76360100  0.23890925  1  0.068827  0  0.106441  0.108306  0  0.983832  0
H  H37  1  0.47265717  0.23609834  0.26114838  1  0.093951  0  0.106113  0.108453  0  0.983274  0
H  H38  1  0.76447466  0.23639655  0.76109050  1  0.068932  0  0.106432  0.108289  0  0.98382  0
H  H39  1  0.52734659  0.76390540  0.73885151  1  0.093887  0  0.106101  0.10846  0  0.983298  0
H  H40  1  0.73071410  0.97371381  0.13885550  1  0.074761  0  0.100433  0.108057  0  1.005105  0
H  H41  1  0.75745342  0.02640179  0.36111900  1  0.064109  0  0.100375  0.107914  0  1.004803  0
H  H42  1  0.26928500  0.02628581  0.86114366  1  0.074716  0  0.100447  0.108061  0  1.005184  0
H  H43  1  0.24254825  0.97360297  0.63888123  1  0.064079  0  0.100356  0.107878  0  1.004851  0
H  H44  1  0.53317163  0.72246198  0.22651324  1  0.081424  0  0.10142  0.102091  0  0.997702  0
H  H45  1  0.81153837  0.27742596  0.27346271  1  0.042844  0  0.101475  0.102487  0  0.99763  0
H  H46  1  0.46682694  0.27753659  0.77348750  1  0.081419  0  0.101422  0.10209  0  0.997698  0
H  H47  1  0.18846619  0.72257676  0.72653652  1  0.042885  0  0.101479  0.102525  0  0.997656  0
H  H48  1  0.41488146  0.78953798  0.14796505  1  0.078277  0  0.098418  0.099251  0  1.036751  0
H  H49  1  0.62594993  0.21057679  0.35205409  1  0.079764  0  0.098606  0.099781  0  1.036245  0
H  H50  1  0.58511661  0.21045958  0.85203439  1  0.078455  0  0.098456  0.099343  0  1.036729  0
H  H51  1  0.37405123  0.78942694  0.64794645  1  0.079752  0  0.098625  0.099836  0  1.036222  0
H  H52  1  0.52185023  0.50251741  0.18894760  1  0.075859  0  0.097832  0.090538  0  1.037024  0
H  H53  1  0.02024808  0.49746656  0.31097802  1  0.092419  0  0.097521  0.089724  0  1.038049  0
H  H54  1  0.47814964  0.49748115  0.81105346  1  0.075874  0  0.097835  0.090544  0  1.037013  0
H  H55  1  0.97975857  0.50253512  0.68902150  1  0.092207  0  0.097504  0.089681  0  1.038045  0
H  H56  1  0.08550800  0.81996944  0.10358783  1  0.509286  0  0.308351  0.280154  0  0.968483  0
H  H57  1  0.26623522  0.18021247  0.39642486  1  0.511345  0  0.308624  0.281405  0  0.966633  0
H  H58  1  0.91448876  0.18002811  0.89641193  1  0.509256  0  0.308339  0.280111  0  0.968478  0
H  H59  1  0.73376439  0.81978818  0.60357496  1  0.511339  0  0.308628  0.281407  0  0.966633  0
H  H60  1  0.42572527  0.38901583  0.11822931  1  0.503399  0  0.298248  0.274  0  1.00921  0
H  H61  1  0.03712130  0.61086623  0.38173807  1  0.511576  0  0.298073  0.272711  0  1.01141  0
H  H62  1  0.57427201  0.61098276  0.88177047  1  0.503358  0  0.298268  0.273992  0  1.009266  0
H  H63  1  0.96288142  0.38913543  0.61826274  1  0.511568  0  0.298082  0.272744  0  1.0114  0
C  C64  1  0.21900642  0.11077068  0.07287200  1  1.536186  0  0.213629  0.614331  0  4.105008  0
C  C65  1  0.10852747  0.88901882  0.42714605  1  1.570654  0  0.212795  0.613445  0  4.107421  0
C  C66  1  0.78099217  0.88922791  0.92712747  1  1.536159  0  0.213589  0.614291  0  4.105125  0
C  C67  1  0.89147578  0.11098389  0.57285350  1  1.570577  0  0.212726  0.613321  0  4.107375  0
C  C68  1  0.71493546  0.59977293  0.07350340  1  1.600358  0  0.207986  0.603411  0  4.135067  0
C  C69  1  0.11561410  0.40033148  0.42647841  1  1.576345  0  0.207297  0.602383  0  4.137249  0
C  C70  1  0.28506210  0.40022361  0.92649570  1  1.600456  0  0.208022  0.603439  0  4.135023  0
C  C71  1  0.88438914  0.59967120  0.57352306  1  1.57633  0  0.207283  0.602336  0  4.13727  0
C  C72  1  0.36256355  0.17304274  0.10945657  1  0.304762  0  -0.066695  -0.148024  0  3.93836  0
C  C73  1  0.19004121  0.82678484  0.39057666  1  0.276418  0  -0.066832  -0.146873  0  3.937687  0
C  C74  1  0.63743009  0.82695378  0.89054317  1  0.30461  0  -0.066657  -0.147984  0  3.938387  0
C  C75  1  0.80996361  0.17321580  0.60942380  1  0.276446  0  -0.066841  -0.146853  0  3.937727  0
C  C76  1  0.84513940  0.64001783  0.11306053  1  0.316179  0  -0.061755  -0.148215  0  3.929139  0
C  C77  1  0.20600927  0.36018979  0.38695919  1  0.313682  0  -0.060884  -0.147336  0  3.927673  0
C  C78  1  0.15485737  0.35997972  0.88693923  1  0.316252  0  -0.061726  -0.148163  0  3.928997  0
C  C79  1  0.79399112  0.63980980  0.61304190  1  0.313625  0  -0.060904  -0.147343  0  3.927602  0
C  C80  1  0.15378223  0.65440189  0.08759108  1  1.389422  0  0.235334  0.479898  0  4.122362  0
C  C81  1  0.50016705  0.34574854  0.41246233  1  1.409233  0  0.23438  0.480333  0  4.123685  0
C  C82  1  0.84621765  0.34559669  0.91240902  1  1.389412  0  0.235383  0.479983  0  4.1223  0
C  C83  1  0.49983073  0.65425106  0.58753843  1  1.409226  0  0.234314  0.480217  0  4.123796  0
C  C84  1  0.22083720  0.28475780  0.16055831  1  1.409395  0  0.226785  0.477655  0  4.148061  0
C  C85  1  0.93711366  0.71521232  0.33936046  1  1.428859  0  0.227398  0.477869  0  4.147999  0
C  C86  1  0.77916166  0.71523873  0.83944142  1  1.409172  0  0.226738  0.477503  0  4.148126  0
C  C87  1  0.06289531  0.28479143  0.66063911  1  1.429112  0  0.227367  0.477849  0  4.14798  0
C  C88  1  0.22197986  0.41917554  0.18057361  1  -0.034621  0  -0.015224  -0.045899  0  3.953443  0
C  C89  1  0.80374033  0.58076724  0.31933831  1  0.018236  0  -0.015535  -0.04601  0  3.953025  0
C  C90  1  0.77802211  0.58082201  0.81942647  1  -0.034277  0  -0.015209  -0.045886  0  3.953455  0
C  C91  1  0.19626553  0.41923547  0.68066124  1  0.018123  0  -0.015525  -0.045966  0  3.952942  0
C  C92  1  0.34696836  0.75719514  0.08056517  1  -0.040967  0  -0.019113  -0.053916  0  3.993422  0
C  C93  1  0.59046371  0.24294454  0.41946543  1  -0.024433  0  -0.018822  -0.053362  0  3.991119  0
C  C94  1  0.65302814  0.24280448  0.91943399  1  -0.040891  0  -0.019132  -0.053882  0  3.99327  0
C  C95  1  0.40953641  0.75705712  0.58053538  1  -0.024413  0  -0.018803  -0.053216  0  3.990981  0
C  C96  1  0.40917799  0.79723950  0.03969064  1  -0.231974  0  -0.047713  0.018469  0  3.885764  0
C  C97  1  0.61250255  0.20283297  0.46033135  1  -0.244356  0  -0.04639  0.020142  0  3.88188  0
C  C98  1  0.59081434  0.20275701  0.96030942  1  -0.233414  0  -0.047704  0.018453  0  3.885792  0
C  C99  1  0.38749705  0.79716767  0.53966880  1  -0.244319  0  -0.046383  0.020126  0  3.881874  0
C  C100  1  0.05659155  0.44406205  0.18796180  1  -0.228592  0  -0.039999  0.038933  0  3.864561  0
C  C101  1  0.61346249  0.55582190  0.31197576  1  -0.270348  0  -0.039535  0.038703  0  3.863717  0
C  C102  1  0.94340652  0.55593551  0.81203764  1  -0.228565  0  -0.040029  0.038963  0  3.864621  0
C  C103  1  0.38654700  0.44418287  0.68802415  1  -0.270255  0  -0.039563  0.038608  0  3.863616  0
C  C104  1  0.06177676  0.56828126  0.20830993  1  0.031799  0  -0.097544  -0.121873  0  4.011797  0
C  C105  1  0.49432109  0.43153501  0.29168263  1  0.036835  0  -0.098016  -0.120823  0  4.010357  0
C  C106  1  0.93822261  0.43171631  0.79168919  1  0.03148  0  -0.097536  -0.121892  0  4.011778  0
C  C107  1  0.50568709  0.56846976  0.70831729  1  0.036889  0  -0.09796  -0.120681  0  4.010174  0
C  C108  1  0.58146817  0.90262916  0.03436027  1  0.002838  0  -0.107264  -0.127988  0  4.031474  0
C  C109  1  0.67933813  0.09743197  0.46563938  1  -0.030429  0  -0.107821  -0.129015  0  4.031359  0
C  C110  1  0.41852782  0.09736943  0.96563887  1  0.004027  0  -0.107236  -0.127821  0  4.031429  0
C  C111  1  0.32066147  0.90256867  0.53436109  1  -0.03082  0  -0.107833  -0.129052  0  4.031445  0
C  C112  1  0.69580975  0.96582203  0.07026911  1  -0.019135  0  -0.099253  -0.081155  0  4.024266  0
C  C113  1  0.73054924  0.03430953  0.42971471  1  -0.00558  0  -0.099155  -0.081026  0  4.024737  0
C  C114  1  0.30418623  0.03417656  0.92972971  1  -0.019076  0  -0.09921  -0.081231  0  4.024341  0
C  C115  1  0.26945088  0.96569214  0.57028546  1  -0.005204  0  -0.099159  -0.081036  0  4.024776  0
C  C116  1  0.23323672  0.66833815  0.22223175  1  -0.022656  0  -0.089017  -0.075576  0  4.017167  0
C  C117  1  0.56570879  0.33146767  0.27776931  1  -0.064552  0  -0.088191  -0.076831  0  4.017864  0
C  C118  1  0.76676186  0.33166043  0.77776803  1  -0.02268  0  -0.089002  -0.07553  0  4.017134  0
C  C119  1  0.43429679  0.66853710  0.72223029  1  -0.064782  0  -0.088147  -0.07681  0  4.017862  0
C  C120  1  0.63942152  0.92372603  0.11116728  1  -0.066131  0  -0.09352  -0.078477  0  3.98032  0
C  C121  1  0.71630428  0.07642474  0.38882283  1  -0.021851  0  -0.093033  -0.077544  0  3.979092  0
C  C122  1  0.36057315  0.07627256  0.88883250  1  -0.066167  0  -0.093565  -0.078451  0  3.980331  0
C  C123  1  0.28369636  0.92357796  0.61117736  1  -0.021859  0  -0.093023  -0.07748  0  3.97913  0
C  C124  1  0.39929997  0.64540043  0.21515224  1  -0.063833  0  -0.096925  -0.09919  0  4.049552  0
C  C125  1  0.75475935  0.35449016  0.28481099  1  0.009425  0  -0.09629  -0.097867  0  4.050986  0
C  C126  1  0.60069861  0.35459815  0.78484754  1  -0.063887  0  -0.096967  -0.099232  0  4.049591  0
C  C127  1  0.24524572  0.64551359  0.71518858  1  0.009704  0  -0.09641  -0.098055  0  4.050998  0
C  C128  1  0.46403568  0.82119634  0.11618831  1  -0.039168  0  -0.085746  -0.087789  0  3.945794  0
C  C129  1  0.64352041  0.17895244  0.38382364  1  -0.044578  0  -0.086731  -0.089628  0  3.945243  0
C  C130  1  0.53596081  0.17880328  0.88381086  1  -0.039364  0  -0.085727  -0.08787  0  3.945733  0
C  C131  1  0.35648205  0.82105128  0.61617689  1  -0.044587  0  -0.086776  -0.089778  0  3.945326  0
C  C132  1  0.39313211  0.52225475  0.19417671  1  -0.058908  0  -0.084335  -0.092347  0  3.966216  0
C  C133  1  0.87177777  0.47769260  0.30574772  1  -0.081257  0  -0.084632  -0.092431  0  3.968363  0
C  C134  1  0.60686725  0.47774280  0.80582336  1  -0.059054  0  -0.084333  -0.092344  0  3.966175  0
C  C135  1  0.12822627  0.52230909  0.69425117  1  -0.081101  0  -0.084551  -0.092321  0  3.968227  0
I  I136  1  0.23542601  0.70179477  0.98511525  1  0.18833  0  0.179555  0.079788  0  2.041983  0
I  I137  1  0.53360300  0.29799278  0.51488993  1  0.190873  0  0.179528  0.079586  0  2.04119  0
I  I138  1  0.76456790  0.29819969  0.01488476  1  0.188612  0  0.179523  0.079733  0  2.042009  0
I  I139  1  0.46639660  0.70200785  0.48511085  1  0.1909  0  0.179541  0.079616  0  2.041213  0
I  I140  1  0.79281541  0.30061327  0.16652132  1  0.129587  0  0.131699  0.012029  0  1.729093  0
I  I141  1  0.49321288  0.69931007  0.33343164  1  0.132268  0  0.131255  0.0119  0  1.726841  0
I  I142  1  0.20718317  0.69938533  0.83347783  1  0.129595  0  0.131705  0.012022  0  1.729067  0
I  I143  1  0.50679296  0.30069261  0.66657015  1  0.132293  0  0.131251  0.011896  0  1.726914  0
N  N144  1  0.03991171  0.71512279  0.10503039  1  -1.259339  0  -0.420453  -0.326503  0  3.565069  0
N  N145  1  0.32557087  0.28506910  0.39502693  1  -1.266273  0  -0.421059  -0.329021  0  3.566018  0
N  N146  1  0.96008324  0.28487373  0.89496934  1  -1.259365  0  -0.420476  -0.326496  0  3.564969  0
N  N147  1  0.67442874  0.71493154  0.60497322  1  -1.266247  0  -0.421042  -0.328984  0  3.566001  0
N  N148  1  0.35282119  0.29619307  0.13072882  1  -1.213559  0  -0.432641  -0.356381  0  3.606503  0
N  N149  1  0.05727413  0.70371625  0.36924579  1  -1.244929  0  -0.432393  -0.355262  0  3.608354  0
N  N150  1  0.64717636  0.70380345  0.86927092  1  -1.213431  0  -0.432657  -0.356358  0  3.606449  0
N  N151  1  0.94273172  0.29628644  0.63075472  1  -1.24516  0  -0.432387  -0.355273  0  3.608397  0
O  O152  1  0.15752873  0.97993301  0.06715412  1  -1.122748  0  -0.321539  -0.520204  0  2.392862  0
O  O153  1  0.17796949  0.01985202  0.43287336  1  -1.125606  0  -0.321054  -0.520351  0  2.393637  0
O  O154  1  0.84246283  0.02006455  0.93284564  1  -1.122689  0  -0.321483  -0.520149  0  2.3929  0
O  O155  1  0.82203245  0.98015069  0.56712651  1  -1.125558  0  -0.32107  -0.520319  0  2.39353  0
O  O156  1  0.54796457  0.52022776  0.08013771  1  -1.154956  0  -0.318266  -0.515523  0  2.396031  0
O  O157  1  0.02816019  0.47977805  0.41980852  1  -1.138012  0  -0.317736  -0.514819  0  2.397348  0
O  O158  1  0.45203353  0.47976466  0.91986098  1  -1.154867  0  -0.318235  -0.515497  0  2.396044  0
O  O159  1  0.97184123  0.52022361  0.58019260  1  -1.138033  0  -0.31774  -0.51486  0  2.39739  0
O  O160  1  0.17972181  0.19336371  0.05008339  1  -1.13895  0  -0.325866  -0.510307  0  2.419073  0
O  O161  1  0.98633615  0.80644214  0.44990523  1  -1.14957  0  -0.325737  -0.510435  0  2.4181  0
O  O162  1  0.82027416  0.80663487  0.94991671  1  -1.138901  0  -0.325853  -0.510283  0  2.419068  0
O  O163  1  0.01366450  0.19356057  0.55009432  1  -1.149546  0  -0.325658  -0.510348  0  2.418096  0
O  O164  1  0.78038801  0.64446492  0.03781571  1  -1.151724  0  -0.333791  -0.5391  0  2.543354  0
O  O165  1  0.13607723  0.35562679  0.46217585  1  -1.150367  0  -0.333477  -0.538631  0  2.542926  0
O  O166  1  0.21960825  0.35553161  0.96218339  1  -1.151918  0  -0.333818  -0.539093  0  2.543303  0
O  O167  1  0.86392731  0.64437590  0.53782530  1  -1.150266  0  -0.333444  -0.538571  0  2.542871  0
O  O168  1  0.10719284  0.52800213  0.07883115  1  -1.123204  0  -0.302198  -0.478997  0  2.18489  0
O  O169  1  0.58006564  0.47214759  0.42122900  1  -1.133044  0  -0.301875  -0.479217  0  2.185252  0
O  O170  1  0.89280833  0.47199643  0.92116991  1  -1.123176  0  -0.302245  -0.479078  0  2.184903  0
O  O171  1  0.41993187  0.52785407  0.57877181  1  -1.133018  0  -0.301827  -0.479172  0  2.185334  0
O  O172  1  0.11057555  0.17192366  0.17172168  1  -1.151672  0  -0.327818  -0.511607  0  2.078449  0
O  O173  1  0.94002268  0.82807392  0.32815449  1  -1.145596  0  -0.328779  -0.512392  0  2.07824  0
O  O174  1  0.88942121  0.82807390  0.82827776  1  -1.151608  0  -0.327792  -0.511536  0  2.078565  0
O  O175  1  0.05998838  0.17192879  0.67184538  1  -1.145619  0  -0.328788  -0.512424  0  2.078213  0
