# generated using pymatgen
data_ZnH12C14N2O5
_symmetry_space_group_name_H-M   'P 1'
_cell_length_a   7.43767271
_cell_length_b   9.27282494
_cell_length_c   23.24484177
_cell_angle_alpha   86.34015179
_cell_angle_beta   80.83854311
_cell_angle_gamma   66.36413344
_symmetry_Int_Tables_number   1
_chemical_formula_structural   ZnH12C14N2O5
_chemical_formula_sum   'Zn4 H48 C56 N8 O20'
_cell_volume   1449.93517227
_cell_formula_units_Z   4
loop_
 _symmetry_equiv_pos_site_id
 _symmetry_equiv_pos_as_xyz
  1  'x, y, z'
loop_
 _atom_site_type_symbol
 _atom_site_label
 _atom_site_symmetry_multiplicity
 _atom_site_fract_x
 _atom_site_fract_y
 _atom_site_fract_z
 _atom_site_occupancy
 _atom_site_pbe_bader_charge
 _atom_site_pbe_bader_spin_density
 _atom_site_pbe_cm5_charge
 _atom_site_pbe_ddec_charge
 _atom_site_pbe_ddec_spin_density
 _atom_site_pbe_ddec_sum_bond_order
 _atom_site_pbe_magmom
Zn  Zn0  1  0.47232995  0.83758387  0.25469083  1  1.315963  0  0.684956  0.865505  0  2.296662  0
Zn  Zn1  1  0.56604800  0.16245283  0.74530525  1  1.317091  0  0.684676  0.86469  0  2.297468  0
Zn  Zn2  1  0.06160429  0.66220955  0.75476073  1  1.316627  0  0.684524  0.864966  0  2.295509  0
Zn  Zn3  1  0.47722755  0.33754958  0.24522976  1  1.314973  0  0.684972  0.865587  0  2.294196  0
H  H4  1  0.05392766  0.89803831  0.29182712  1  0.635217  0  0.287382  0.305435  0  1.043848  0
H  H5  1  0.24476423  0.10211999  0.70824213  1  0.634988  0  0.287701  0.30577  0  1.043048  0
H  H6  1  0.70352311  0.60215660  0.79185042  1  0.633772  0  0.287  0.30474  0  1.044408  0
H  H7  1  0.09596008  0.39751652  0.20821914  1  0.637839  0  0.288032  0.306221  0  1.042299  0
H  H8  1  0.43232207  0.09977072  0.33149257  1  0.154237  0  0.117226  0.091413  0  1.059486  0
H  H9  1  0.86368611  0.90050706  0.66847688  1  0.149895  0  0.117934  0.09114  0  1.058719  0
H  H10  1  0.28311391  0.40013785  0.83159368  1  0.149141  0  0.117469  0.091287  0  1.059091  0
H  H11  1  0.51362462  0.59952216  0.16857118  1  0.161142  0  0.117524  0.090873  0  1.060037  0
H  H12  1  0.33282835  0.17500802  0.43567017  1  0.143689  0  0.112081  0.126083  0  1.012174  0
H  H13  1  0.94301044  0.82533686  0.56428996  1  0.138138  0  0.112321  0.12642  0  1.011794  0
H  H14  1  0.25808697  0.32428996  0.93569329  1  0.138804  0  0.111991  0.125938  0  1.012646  0
H  H15  1  0.51792330  0.67537002  0.06443912  1  0.143288  0  0.112069  0.125617  0  1.011946  0
H  H16  1  0.08544813  0.23807773  0.51479073  1  0.100564  0  0.117031  0.134654  0  0.981709  0
H  H17  1  0.83807030  0.76241844  0.48515905  1  0.105786  0  0.117064  0.134936  0  0.981457  0
H  H18  1  0.07365261  0.26087691  0.01477547  1  0.092957  0  0.117141  0.135254  0  0.980663  0
H  H19  1  0.35015851  0.73908150  0.98505355  1  0.09653  0  0.117281  0.135148  0  0.980645  0
H  H20  1  0.03449456  0.29681230  0.61969969  1  0.155797  0  0.11587  0.094278  0  1.025236  0
H  H21  1  0.95077379  0.70359801  0.38025880  1  0.112346  0  0.116072  0.094198  0  1.025592  0
H  H22  1  0.08073704  0.20207449  0.11970663  1  0.141028  0  0.116022  0.094441  0  1.026454  0
H  H23  1  0.40508995  0.79766153  0.88018348  1  0.145893  0  0.115846  0.094179  0  1.027262  0
H  H24  1  0.35606676  0.82935747  0.65961663  1  0.144221  0  0.115631  0.092851  0  1.027343  0
H  H25  1  0.84431670  0.17115487  0.34036265  1  0.142564  0  0.115646  0.092902  0  1.027988  0
H  H26  1  0.93485804  0.66954546  0.15970978  1  0.145042  0  0.115866  0.092876  0  1.026587  0
H  H27  1  0.76552216  0.32992720  0.84043577  1  0.138506  0  0.115979  0.09295  0  1.027015  0
H  H28  1  0.43264812  0.75150543  0.55516291  1  0.07547  0  0.113718  0.12326  0  0.985326  0
H  H29  1  0.73921955  0.24896641  0.44482739  1  0.066419  0  0.11392  0.123646  0  0.985471  0
H  H30  1  0.93438631  0.74735072  0.05524647  1  0.08442  0  0.113649  0.123053  0  0.986205  0
H  H31  1  0.73655533  0.25217672  0.94487271  1  0.105039  0  0.113768  0.123516  0  0.985161  0
H  H32  1  0.30327445  0.71934930  0.47047127  1  0.082243  0  0.115317  0.125179  0  0.984547  0
H  H33  1  0.49302192  0.28130071  0.52951625  1  0.100066  0  0.115231  0.124495  0  0.985132  0
H  H34  1  0.77287168  0.77982998  0.97058727  1  0.089027  0  0.115474  0.125446  0  0.984528  0
H  H35  1  0.52253940  0.22014758  0.02923651  1  0.082629  0  0.115313  0.125264  0  0.984739  0
H  H36  1  0.38809650  0.66962226  0.36355766  1  0.11089  0  0.123359  0.102394  0  0.994041  0
H  H37  1  0.42165054  0.33082017  0.63644429  1  0.144589  0  0.12341  0.102415  0  0.994245  0
H  H38  1  0.80862582  0.83008363  0.86370134  1  0.129454  0  0.123431  0.102306  0  0.994317  0
H  H39  1  0.50072132  0.16982882  0.13611741  1  0.118682  0  0.123371  0.102562  0  0.993588  0
H  H40  1  0.10168635  0.77665765  0.19457423  1  0.059324  0  0.103954  0.056766  0  0.9901  0
H  H41  1  0.07493097  0.22291315  0.80548811  1  0.07253  0  0.104003  0.056581  0  0.990261  0
H  H42  1  0.63042437  0.72307416  0.69472893  1  0.07211  0  0.104011  0.056815  0  0.990411  0
H  H43  1  0.04712813  0.27697561  0.30532693  1  0.057043  0  0.104076  0.057125  0  0.989749  0
H  H44  1  0.88985839  0.03591783  0.14949735  1  0.100551  0  0.109  0.136409  0  0.990867  0
H  H45  1  0.07709306  0.96382511  0.85051644  1  0.065708  0  0.108697  0.136293  0  0.990838  0
H  H46  1  0.67705665  0.46421635  0.64947070  1  0.096252  0  0.108815  0.136334  0  0.991383  0
H  H47  1  0.78968334  0.53572531  0.35056648  1  0.09989  0  0.108793  0.136102  0  0.990832  0
H  H48  1  0.89534661  0.13386708  0.21197498  1  0.115069  0  0.10579  0.142142  0  1.014197  0
H  H49  1  0.24279660  0.86569634  0.78807392  1  0.118343  0  0.105607  0.142284  0  1.014921  0
H  H50  1  0.78078587  0.36581590  0.71184985  1  0.111223  0  0.105919  0.142627  0  1.013681  0
H  H51  1  0.85706016  0.63422640  0.28820310  1  0.11281  0  0.105733  0.14242  0  1.014539  0
C  C52  1  0.39944116  0.02052861  0.36388201  1  0.471366  0  0.047604  0.096139  0  3.9328  0
C  C53  1  0.78389693  0.97979674  0.63607648  1  0.405302  0  0.046294  0.096252  0  3.931147  0
C  C54  1  0.17074773  0.47920633  0.86397843  1  0.468535  0  0.047063  0.096852  0  3.930852  0
C  C55  1  0.51274180  0.52054831  0.13610901  1  0.461908  0  0.046297  0.095611  0  3.93271  0
C  C56  1  0.34658919  0.06005435  0.42244387  1  -0.078207  0  -0.076343  -0.161959  0  3.927527  0
C  C57  1  0.82876681  0.94036353  0.57749578  1  -0.006385  0  -0.076356  -0.16266  0  3.927275  0
C  C58  1  0.15699097  0.43933894  0.92251294  1  -0.06394  0  -0.076818  -0.163544  0  3.927616  0
C  C59  1  0.51829714  0.56040580  0.07756648  1  -0.067108  0  -0.076237  -0.162044  0  3.928494  0
C  C60  1  0.31379165  0.95124728  0.46286110  1  -0.004737  0  0.014261  0.102287  0  3.984752  0
C  C61  1  0.72762285  0.04924753  0.53708138  1  -0.034051  0  0.013854  0.101848  0  3.984363  0
C  C62  1  0.01528427  0.54793967  0.96295678  1  -0.015043  0  0.014599  0.10332  0  3.981507  0
C  C63  1  0.52568475  0.45189846  0.03704833  1  -0.012481  0  0.01432  0.103048  0  3.984837  0
C  C64  1  0.26561808  0.98881221  0.52561402  1  0.018776  0  0.008739  0.091426  0  4.000487  0
C  C65  1  0.77968047  0.01170638  0.47433843  1  0.034125  0  0.009227  0.091741  0  4.00041  0
C  C66  1  0.00435258  0.51015341  0.02569560  1  -0.013714  0  0.008938  0.092668  0  3.999102  0
C  C67  1  0.54044066  0.48961077  0.97431789  1  0.00424  0  0.00871  0.091803  0  4.000792  0
C  C68  1  0.14962181  0.14332920  0.54517507  1  -0.108349  0  -0.079296  -0.175952  0  3.934527  0
C  C69  1  0.83773926  0.85718601  0.45477604  1  -0.126502  0  -0.079112  -0.17537  0  3.933602  0
C  C70  1  0.04277131  0.35561633  0.04520350  1  -0.02784  0  -0.079622  -0.176679  0  3.932986  0
C  C71  1  0.44461029  0.64419630  0.95472199  1  -0.040591  0  -0.079246  -0.17583  0  3.932239  0
C  C72  1  0.11919303  0.17628276  0.60433549  1  0.499083  0  0.047587  0.093073  0  3.955211  0
C  C73  1  0.89949196  0.82417189  0.39562772  1  0.535872  0  0.047801  0.093026  0  3.955787  0
C  C74  1  0.04492711  0.32263184  0.10437042  1  0.449231  0  0.047476  0.092441  0  3.954706  0
C  C75  1  0.47398973  0.67709552  0.89557797  1  0.470297  0  0.047533  0.092593  0  3.954382  0
C  C76  1  0.30076584  0.91667237  0.62592868  1  0.522389  0  0.050354  0.100426  0  3.931907  0
C  C77  1  0.84281097  0.08383901  0.37404391  1  0.462076  0  0.050636  0.100315  0  3.929276  0
C  C78  1  0.96690507  0.58223888  0.12602402  1  0.451503  0  0.049612  0.099555  0  3.932872  0
C  C79  1  0.67655946  0.41731404  0.87407915  1  0.502765  0  0.050253  0.100578  0  3.931255  0
C  C80  1  0.33966183  0.87329283  0.56756931  1  -0.096782  0  -0.077207  -0.167374  0  3.929864  0
C  C81  1  0.78014818  0.12721128  0.43240754  1  -0.015473  0  -0.077684  -0.167987  0  3.93082  0
C  C82  1  0.96279196  0.62563449  0.06766590  1  -0.019341  0  -0.076726  -0.166871  0  3.932705  0
C  C83  1  0.65637374  0.37399824  0.93242064  1  -0.091765  0  -0.077505  -0.167708  0  3.930637  0
C  C84  1  0.33217821  0.80707893  0.44143186  1  0.005197  0  -0.07825  -0.172429  0  3.940742  0
C  C85  1  0.58057998  0.19340601  0.55853735  1  0.020752  0  -0.078524  -0.171587  0  3.93888  0
C  C86  1  0.88962430  0.69219652  0.94154913  1  0.065418  0  -0.079065  -0.173663  0  3.939597  0
C  C87  1  0.52243951  0.30772664  0.05836191  1  0.003413  0  -0.079138  -0.173759  0  3.940522  0
C  C88  1  0.37983788  0.77806883  0.38186296  1  0.48183  0  0.049911  0.096289  0  3.933881  0
C  C89  1  0.53995720  0.22234708  0.61812221  1  0.443817  0  0.049585  0.095606  0  3.931973  0
C  C90  1  0.90861172  0.72151760  0.88199390  1  0.405646  0  0.050432  0.09663  0  3.933359  0
C  C91  1  0.51068960  0.27836478  0.11791532  1  0.474577  0  0.050252  0.095699  0  3.934111  0
C  C92  1  0.26823147  0.90697330  0.15423078  1  1.575791  0  0.189219  0.541966  0  4.211203  0
C  C93  1  0.33166562  0.09259869  0.84577857  1  1.580524  0  0.189281  0.541652  0  4.211448  0
C  C94  1  0.92708266  0.59271950  0.65425372  1  1.57539  0  0.189711  0.542326  0  4.211589  0
C  C95  1  0.17306809  0.40740793  0.34576818  1  1.592133  0  0.189039  0.541153  0  4.212411  0
C  C96  1  0.10623518  0.89173699  0.20178148  1  0.446923  0  -0.009933  0.126095  0  3.880359  0
C  C97  1  0.20169197  0.10782854  0.79825789  1  0.450233  0  -0.010049  0.125453  0  3.882076  0
C  C98  1  0.74994012  0.60785066  0.70183384  1  0.441022  0  -0.010694  0.124313  0  3.879971  0
C  C99  1  0.05839697  0.39226208  0.29821693  1  0.452161  0  -0.009777  0.124765  0  3.880091  0
C  C100  1  0.90441660  0.02170538  0.19622158  1  -0.088474  0  -0.173712  -0.386338  0  3.927274  0
C  C101  1  0.12410828  0.97794816  0.80379119  1  -0.06099  0  -0.173408  -0.386535  0  3.928841  0
C  C102  1  0.67767612  0.47812416  0.69620384  1  -0.082333  0  -0.174099  -0.387458  0  3.928923  0
C  C103  1  0.85076942  0.52187290  0.30384025  1  -0.083027  0  -0.173878  -0.386334  0  3.927368  0
C  C104  1  0.73041145  0.98712664  0.22631157  1  1.563526  0  0.216859  0.649296  0  4.105645  0
C  C105  1  0.94549081  0.01258473  0.77366917  1  1.553772  0  0.217528  0.650685  0  4.105471  0
C  C106  1  0.46921680  0.51277336  0.72637759  1  1.554433  0  0.218207  0.651307  0  4.105347  0
C  C107  1  0.70705227  0.48720665  0.27362578  1  1.550277  0  0.217406  0.649653  0  4.105717  0
N  N108  1  0.41496489  0.88263139  0.34361337  1  -1.24547  0  -0.326467  -0.241336  0  3.561862  0
N  N109  1  0.64152238  0.11773599  0.65637076  1  -1.239656  0  -0.325145  -0.239492  0  3.558765  0
N  N110  1  0.04861998  0.61721760  0.84373092  1  -1.244024  0  -0.326099  -0.240709  0  3.559461  0
N  N111  1  0.50798088  0.38259672  0.15627296  1  -1.244763  0  -0.325312  -0.23881  0  3.558682  0
N  N112  1  0.19523928  0.06588898  0.64425683  1  -1.24229  0  -0.306356  -0.236902  0  3.398956  0
N  N113  1  0.90479149  0.93460455  0.35570771  1  -1.249983  0  -0.306648  -0.236583  0  3.397416  0
N  N114  1  0.01041589  0.43301639  0.14432012  1  -1.236218  0  -0.306256  -0.236793  0  3.398509  0
N  N115  1  0.58994077  0.56657211  0.85571177  1  -1.263051  0  -0.306162  -0.23675  0  3.39843  0
O  O116  1  0.43340267  0.89071095  0.17055134  1  -1.167163  0  -0.343609  -0.563525  0  2.289754  0
O  O117  1  0.49660908  0.10918051  0.82943688  1  -1.170685  0  -0.343063  -0.562773  0  2.290488  0
O  O118  1  0.07604620  0.60884508  0.67061451  1  -1.169615  0  -0.342908  -0.5633  0  2.289894  0
O  O119  1  0.35457357  0.39090302  0.32941175  1  -1.174576  0  -0.342906  -0.56269  0  2.288899  0
O  O120  1  0.23163678  0.92972141  0.10303488  1  -1.188214  0  -0.3522  -0.569124  0  2.083626  0
O  O121  1  0.26701695  0.06969634  0.89698227  1  -1.191272  0  -0.352005  -0.568544  0  2.083611  0
O  O122  1  0.91301475  0.57032076  0.60303792  1  -1.18592  0  -0.352945  -0.568996  0  2.082835  0
O  O123  1  0.08551344  0.43022453  0.39696746  1  -1.19053  0  -0.352659  -0.568772  0  2.083617  0
O  O124  1  0.16213765  0.89238357  0.25773272  1  -1.182417  0  -0.398129  -0.508896  0  2.486263  0
O  O125  1  0.31381409  0.10721179  0.74229235  1  -1.183093  0  -0.398695  -0.509195  0  2.486595  0
O  O126  1  0.80680428  0.60661612  0.75777171  1  -1.181541  0  -0.397469  -0.507487  0  2.485366  0
O  O127  1  0.16972153  0.39346642  0.24226677  1  -1.183928  0  -0.398584  -0.5091  0  2.485915  0
O  O128  1  0.75218607  0.84434024  0.23355912  1  -1.176168  0  -0.306262  -0.537768  0  2.315017  0
O  O129  1  0.83170511  0.15538812  0.76644052  1  -1.182652  0  -0.306985  -0.539337  0  2.315695  0
O  O130  1  0.34817521  0.65556030  0.73355186  1  -1.182056  0  -0.307208  -0.539477  0  2.315296  0
O  O131  1  0.73613024  0.34441434  0.26632932  1  -1.17305  0  -0.306703  -0.538736  0  2.314816  0
O  O132  1  0.56251972  0.09977200  0.24160967  1  -1.198979  0  -0.318405  -0.572139  0  2.371492  0
O  O133  1  0.90544736  0.89996254  0.75834616  1  -1.194128  0  -0.317974  -0.571404  0  2.371577  0
O  O134  1  0.41397636  0.40021452  0.74182154  1  -1.190622  0  -0.318238  -0.57149  0  2.373117  0
O  O135  1  0.55442369  0.59975453  0.25829839  1  -1.20093  0  -0.318186  -0.571468  0  2.372924  0
