# generated using pymatgen
data_Zn8H39C67NO27
_symmetry_space_group_name_H-M   'P 1'
_cell_length_a   18.48899091
_cell_length_b   18.49343698
_cell_length_c   18.49299067
_cell_angle_alpha   120.07310487
_cell_angle_beta   90.13538110
_cell_angle_gamma   119.85795819
_symmetry_Int_Tables_number   1
_chemical_formula_structural   Zn8H39C67NO27
_chemical_formula_sum   'Zn8 H39 C67 N1 O27'
_cell_volume   4470.53382991
_cell_formula_units_Z   1
loop_
 _symmetry_equiv_pos_site_id
 _symmetry_equiv_pos_as_xyz
  1  'x, y, z'
loop_
 _atom_site_type_symbol
 _atom_site_label
 _atom_site_symmetry_multiplicity
 _atom_site_fract_x
 _atom_site_fract_y
 _atom_site_fract_z
 _atom_site_occupancy
 _atom_site_pbe_bader_charge
 _atom_site_pbe_bader_spin_density
 _atom_site_pbe_cm5_charge
 _atom_site_pbe_ddec_charge
 _atom_site_pbe_ddec_spin_density
 _atom_site_pbe_ddec_sum_bond_order
 _atom_site_pbe_magmom
Zn  Zn0  1  0.45661208  0.41184761  0.54221161  1  1.301683  0  0.66983  0.958055  0  2.380691  0
Zn  Zn1  1  0.45495396  0.58349209  0.54165568  1  1.310664  0  0.668577  0.950087  0  2.386601  0
Zn  Zn2  1  0.45706278  0.41179579  0.36866403  1  1.316404  0  0.67104  0.960605  0  2.389988  0
Zn  Zn3  1  0.62972665  0.58618118  0.54220234  1  1.295262  0  0.66987  0.953957  0  2.385242  0
Zn  Zn4  1  0.04272666  0.58478617  0.95488393  1  1.299631  0  0.669384  0.955485  0  2.386594  0
Zn  Zn5  1  0.04270591  0.58550914  0.12837430  1  1.314358  0  0.667452  0.949431  0  2.389372  0
Zn  Zn6  1  0.04079535  0.41018268  0.95410821  1  1.303421  0  0.669643  0.957402  0  2.385776  0
Zn  Zn7  1  0.86862362  0.41234488  0.95480350  1  1.317447  0  0.670728  0.96076  0  2.379517  0
H  H8  1  0.60578504  0.63424361  0.93157420  1  0.060925  0  0.103061  0.099384  0  0.99087  0
H  H9  1  0.97033739  0.71313411  0.37366528  1  0.053035  0  0.097316  0.106154  0  0.983839  0
H  H10  1  0.87028821  0.61249681  0.46579463  1  0.05751  0  0.098852  0.110128  0  0.981719  0
H  H11  1  0.70856975  0.43030494  0.52981187  1  0.083075  0  0.101217  0.104989  0  1.011347  0
H  H12  1  0.87363193  0.71243604  0.46991141  1  0.062796  0  0.09862  0.108721  0  0.981993  0
H  H13  1  0.58348469  0.90286654  0.69829790  1  0.104392  0  0.107067  0.113767  0  0.994603  0
H  H14  1  0.67846653  0.09299057  0.79444473  1  0.100317  0  0.107761  0.11482  0  0.992808  0
H  H15  1  0.96456861  0.09421638  0.74985413  1  0.043985  0  0.098245  0.108629  0  0.981036  0
H  H16  1  0.96430872  0.09435285  0.84627568  1  0.036615  0  0.098261  0.108408  0  0.980255  0
H  H17  1  0.86841174  0.90116464  0.65301609  1  0.051046  0  0.097296  0.106496  0  0.984904  0
H  H18  1  0.86790104  0.90122777  0.74937984  1  0.053391  0  0.100035  0.111743  0  0.978213  0
H  H19  1  0.20105156  0.90289530  0.08506861  1  0.102515  0  0.10742  0.114613  0  0.993784  0
H  H20  1  0.30101810  0.38643513  0.17942393  1  0.069316  0  0.109186  0.115649  0  0.990865  0
H  H21  1  0.20619241  0.38757627  0.08486875  1  0.102193  0  0.108628  0.114778  0  0.992572  0
H  H22  1  0.24263552  0.71285634  0.37270995  1  0.071323  0  0.104061  0.123938  0  0.975101  0
H  H23  1  0.79861899  0.36617946  0.47081089  1  0.063033  0  0.101537  0.097186  0  0.992593  0
H  H24  1  0.14787698  0.61172441  0.36919561  1  0.053257  0  0.104793  0.125833  0  0.972736  0
H  H25  1  0.30637894  0.39187850  0.71029625  1  0.07234  0  0.106578  0.113638  0  0.995589  0
H  H26  1  0.21047242  0.39067391  0.80441783  1  0.115761  0  0.106325  0.113213  0  0.996571  0
H  H27  1  0.14210856  0.60587306  0.73913759  1  0.049571  0  0.098906  0.109736  0  0.979933  0
H  H28  1  0.23821744  0.70761180  0.83555477  1  0.051144  0  0.10029  0.111097  0  0.976743  0
H  H29  1  0.23851772  0.60664711  0.64295689  1  0.063794  0  0.094303  0.107317  0  0.999777  0
H  H30  1  0.15417949  0.90256209  0.37027640  1  0.030317  0  0.097037  0.105798  0  0.985611  0
H  H31  1  0.33464277  0.70814534  0.73913272  1  0.074982  0  0.099593  0.111473  0  0.977637  0
H  H32  1  0.89429099  0.36599746  0.56665225  1  0.053757  0  0.101472  0.097174  0  0.993783  0
H  H33  1  0.89939729  0.43010787  0.72082197  1  0.076594  0  0.101319  0.106441  0  1.010283  0
H  H34  1  0.79263481  0.57165096  0.96905024  1  0.041934  0  0.101166  0.105342  0  1.010922  0
H  H35  1  0.70161530  0.63442378  0.02751632  1  0.050944  0  0.103489  0.099713  0  0.990771  0
H  H36  1  0.60157862  0.57132093  0.77772684  1  0.07348  0  0.101405  0.105725  0  1.01034  0
H  H37  1  0.29571024  0.09308601  0.18018708  1  0.082155  0  0.106618  0.113825  0  0.994202  0
H  H38  1  0.35795545  0.79806274  0.54530728  1  0.064588  0  0.099059  0.032937  0  0.950986  0
H  H39  1  0.17032243  0.54960558  0.44758582  1  0.399269  0  0.285935  0.276247  0  0.965061  0
H  H40  1  0.26668415  0.58687674  0.50079645  1  0.407702  0  0.284083  0.283455  0  0.975541  0
H  H41  1  0.25062572  0.90265832  0.37005941  1  0.036879  0  0.09783  0.107629  0  0.982825  0
H  H42  1  0.25052065  0.09564278  0.46712231  1  0.04673  0  0.098268  0.108367  0  0.980997  0
H  H43  1  0.34689863  0.09571498  0.46674066  1  0.06839  0  0.101202  0.11354  0  0.975119  0
H  H44  1  0.58754069  0.38901986  0.18129011  1  0.103434  0  0.10721  0.114575  0  0.993223  0
H  H45  1  0.68249429  0.39049432  0.08627438  1  0.050425  0  0.107633  0.115192  0  0.993542  0
H  H46  1  0.96638162  0.61254882  0.36890068  1  0.045996  0  0.095986  0.104067  0  0.985655  0
C  C47  1  0.63502780  0.77423180  0.63554232  1  1.506616  0  0.229663  0.612906  0  4.166712  0
C  C48  1  0.70056412  0.60665338  0.95947694  1  -0.02121  0  -0.093394  -0.084466  0  4.045159  0
C  C49  1  0.64610613  0.60652999  0.90496603  1  0.038127  0  -0.093548  -0.08515  0  4.045944  0
C  C50  1  0.36054111  0.22218260  0.36027142  1  1.5169  0  0.227573  0.610058  0  4.174855  0
C  C51  1  0.64399612  0.57172499  0.81916122  1  -0.101366  0  -0.092009  -0.129873  0  3.982645  0
C  C52  1  0.27636210  0.05228323  0.33973645  1  0.052256  0  -0.001944  0.065488  0  3.878467  0
C  C53  1  0.30397365  0.10849643  0.30391158  1  0.075273  0  -0.014113  -0.081052  0  3.980565  0
C  C54  1  0.27530403  0.05152310  0.21037514  1  -0.065327  0  -0.08328  -0.09932  0  3.982351  0
C  C55  1  0.22232412  0.94497367  0.15706446  1  -0.059442  0  -0.08326  -0.098188  0  3.980528  0
C  C56  1  0.19463217  0.88862759  0.19393122  1  0.028195  0  -0.013422  -0.080643  0  3.983682  0
C  C57  1  0.22316300  0.94541406  0.28623023  1  -0.099579  0  -0.002409  0.064638  0  3.88147  0
C  C58  1  0.85716020  0.42996758  0.67948637  1  -0.103732  0  -0.092072  -0.129674  0  3.983153  0
C  C59  1  0.22023266  0.93860740  0.36460618  1  -0.005969  0  -0.15168  -0.200052  0  3.888762  0
C  C60  1  0.28055290  0.05958063  0.42520938  1  0.011087  0  -0.149899  -0.199753  0  3.882779  0
C  C61  1  0.78815040  0.56150758  0.34065586  1  -0.074561  0  -0.00325  0.064258  0  3.882767  0
C  C62  1  0.36178854  0.49879039  0.63797473  1  1.559548  0  0.226451  0.607719  0  4.181571  0
C  C63  1  0.69605387  0.49977809  0.30489417  1  0.015815  0  -0.014448  -0.081698  0  3.981507  0
C  C64  1  0.65935721  0.43803967  0.21144707  1  -0.03078  0  -0.082809  -0.098116  0  3.980931  0
C  C65  1  0.71254507  0.43886350  0.15820956  1  0.042428  0  -0.082991  -0.099045  0  3.982119  0
C  C66  1  0.80583603  0.50127776  0.19499939  1  -0.067754  0  -0.014083  -0.080588  0  3.983317  0
C  C67  1  0.84148609  0.56207187  0.28724674  1  0.060339  0  -0.003342  0.062591  0  3.8815  0
C  C68  1  0.92673980  0.64023062  0.36565723  1  0.012259  0  -0.150948  -0.195765  0  3.884835  0
C  C69  1  0.80539058  0.46720277  0.71626276  1  -0.020966  0  -0.000206  0.061684  0  3.975691  0
C  C70  1  0.86635435  0.63982155  0.42612478  1  -0.058257  0  -0.150731  -0.201032  0  3.884269  0
C  C71  1  0.78416388  0.94429252  0.72186134  1  0.014319  0  -0.002131  0.064821  0  3.879801  0
C  C72  1  0.69200715  0.88786978  0.69267879  1  -0.028991  0  -0.01316  -0.08028  0  3.97698  0
C  C73  1  0.65531314  0.94459870  0.72043738  1  -0.055254  0  -0.080849  -0.093627  0  3.973008  0
C  C74  1  0.63866780  0.49806385  0.36105687  1  1.497146  0  0.227454  0.609774  0  4.174409  0
C  C75  1  0.70858116  0.05118568  0.77421417  1  -0.026178  0  -0.081546  -0.096323  0  3.974969  0
C  C76  1  0.80193219  0.10778291  0.80348458  1  0.056489  0  -0.014168  -0.082526  0  3.98213  0
C  C77  1  0.83752942  0.05112780  0.77563489  1  -0.035437  0  -0.002106  0.064889  0  3.88262  0
C  C78  1  0.92284423  0.05819161  0.77982541  1  0.025671  0  -0.15165  -0.200481  0  3.888206  0
C  C79  1  0.86248278  0.93722578  0.71910144  1  -0.032024  0  -0.150768  -0.200671  0  3.886791  0
C  C80  1  0.75007537  0.46719108  0.66089508  1  0.060479  0  -0.001309  0.061061  0  3.977839  0
C  C81  1  0.27542247  0.56121471  0.33881679  1  -0.035716  0  -0.006855  -0.03355  0  3.887585  0
C  C82  1  0.30522679  0.49889690  0.30322730  1  -0.065533  0  -0.008101  -0.050769  0  3.967733  0
C  C83  1  0.27903929  0.43633469  0.20986054  1  0.012106  0  -0.07884  -0.094045  0  3.961215  0
C  C84  1  0.22599354  0.43710796  0.15687573  1  -0.049401  0  -0.078621  -0.090836  0  3.964514  0
C  C85  1  0.19603537  0.50050491  0.19383665  1  0.091654  0  -0.011034  -0.073579  0  3.963914  0
C  C86  1  0.36047253  0.49701939  0.35989482  1  1.574532  0  0.229348  0.608606  0  4.16905  0
C  C87  1  0.22250984  0.56217438  0.28617856  1  -0.015423  0  -0.001266  0.078052  0  3.910633  0
C  C88  1  0.21445788  0.63970148  0.36405896  1  -0.022108  0  -0.137973  -0.264411  0  3.800982  0
C  C89  1  0.27552873  0.63938530  0.42541087  1  0.349139  0  0.077885  0.198269  0  3.865646  0
C  C90  1  0.27206312  0.55835287  0.71865103  1  0.015558  0  -0.003482  0.062369  0  3.882935  0
C  C91  1  0.80466128  0.50112446  0.80340698  1  -0.016868  0  -0.006163  -0.114054  0  3.89835  0
C  C92  1  0.30496918  0.49913130  0.69473972  1  0.0275  0  -0.014723  -0.08168  0  3.98433  0
C  C93  1  0.28140419  0.43871938  0.72742499  1  -0.011328  0  -0.084426  -0.099622  0  3.983615  0
C  C94  1  0.22770610  0.43809119  0.78018595  1  -0.077072  0  -0.084261  -0.100372  0  3.986349  0
C  C95  1  0.19435774  0.49803535  0.80382594  1  -0.069614  0  -0.014035  -0.080371  0  3.981945  0
C  C96  1  0.21847652  0.55796631  0.77184398  1  -0.042805  0  -0.003481  0.06338  0  3.882431  0
C  C97  1  0.20963886  0.63457163  0.77062960  1  0.016898  0  -0.149512  -0.19651  0  3.878599  0
C  C98  1  0.63903666  0.50040329  0.63779981  1  1.561612  0  0.232207  0.621522  0  4.172225  0
C  C99  1  0.27013186  0.63490686  0.71031897  1  -0.075272  0  -0.152427  -0.201693  0  3.883286  0
C  C100  1  0.86190565  0.50093560  0.13747499  1  1.531681  0  0.226219  0.6068  0  4.177748  0
C  C101  1  0.13652685  0.49648097  0.85959006  1  1.585884  0  0.2267  0.60672  0  4.181181  0
C  C102  1  0.75157215  0.53520341  0.83806137  1  0.008592  0  -0.000221  0.061579  0  3.976114  0
C  C103  1  0.13805821  0.77495987  0.13659427  1  1.530783  0  0.227585  0.609738  0  4.178223  0
C  C104  1  0.85853354  0.22148167  0.86036072  1  1.526052  0  0.227689  0.609677  0  4.176046  0
C  C105  1  0.13822607  0.49939165  0.13660916  1  1.555258  0  0.226855  0.608187  0  4.181355  0
C  C106  1  0.86161750  0.50041703  0.86057702  1  1.562652  0  0.232436  0.620668  0  4.171746  0
C  C107  1  0.74971602  0.43010752  0.57190723  1  -0.078055  0  -0.092461  -0.129611  0  3.984368  0
C  C108  1  0.80030761  0.39475418  0.53911238  1  -0.0254  0  -0.095856  -0.08798  0  4.052826  0
C  C109  1  0.85462284  0.39463289  0.59352062  1  -0.007183  0  -0.095147  -0.086933  0  4.053633  0
C  C110  1  0.36319700  0.74421733  0.48385195  1  0.968303  0  0.110008  0.270081  0  3.889778  0
C  C111  1  0.69622931  0.53513205  0.78265731  1  0.05209  0  -0.001306  0.06165  0  3.976625  0
C  C112  1  0.69686945  0.50106975  0.69549340  1  -0.051712  0  -0.006304  -0.115361  0  3.902323  0
C  C113  1  0.75163435  0.57194756  0.92691991  1  -0.054503  0  -0.091615  -0.128739  0  3.981559  0
N  N114  1  0.23515385  0.61024650  0.48204533  1  -1.106522  0  -0.625304  -0.669947  0  3.184647  0
O  O115  1  0.49967804  0.49829977  0.49880492  1  -1.205403  0  -0.572425  -1.026783  0  2.543715  0
O  O116  1  0.94221474  0.26485831  0.88153752  1  -1.152994  0  -0.311956  -0.542625  0  2.33325  0
O  O117  1  0.11698322  0.56184264  0.17698481  1  -1.161793  0  -0.312178  -0.53945  0  2.32712  0
O  O118  1  0.67545429  0.73100249  0.61261200  1  -1.180122  0  -0.311117  -0.540155  0  2.33605  0
O  O119  1  0.82161335  0.43752890  0.88087512  1  -1.168098  0  -0.309078  -0.540901  0  2.32573  0
O  O120  1  0.11462540  0.43653837  0.05288444  1  -1.181336  0  -0.313724  -0.544784  0  2.339982  0
O  O121  1  0.94507744  0.56270054  0.88373395  1  -1.161586  0  -0.3101  -0.542392  0  2.325484  0
O  O122  1  0.11736512  0.73048282  0.05281583  1  -1.181556  0  -0.314776  -0.544321  0  2.341492  0
O  O123  1  0.81956857  0.26635076  0.88326053  1  -1.18125  0  -0.314785  -0.544366  0  2.336578  0
O  O124  1  0.94558153  0.55958725  0.17729480  1  -1.156994  0  -0.312732  -0.541424  0  2.330537  0
O  O125  1  0.11568452  0.43630882  0.88298826  1  -1.179004  0  -0.315501  -0.545947  0  2.338277  0
O  O126  1  0.38795851  0.44122615  0.61936082  1  -1.171951  0  -0.315454  -0.546982  0  2.338559  0
O  O127  1  0.38259299  0.26617909  0.44412421  1  -1.183043  0  -0.310633  -0.539368  0  2.332601  0
O  O128  1  0.37964417  0.55671435  0.61244073  1  -1.175116  0  -0.314347  -0.543484  0  2.332736  0
O  O129  1  0.55507797  0.43658475  0.32128999  1  -1.158555  0  -0.314832  -0.545717  0  2.338084  0
O  O130  1  0.37423380  0.55068065  0.44324800  1  -1.177155  0  -0.308745  -0.542178  0  2.346065  0
O  O131  1  0.67822732  0.56419773  0.61830393  1  -1.151379  0  -0.310076  -0.542631  0  2.325703  0
O  O132  1  0.38873550  0.44193927  0.32116139  1  -1.174878  0  -0.311042  -0.539647  0  2.335635  0
O  O133  1  0.55579566  0.43598841  0.61331650  1  -1.171198  0  -0.310065  -0.542604  0  2.325374  0
O  O134  1  0.43203558  0.76987021  0.46755139  1  -1.08255  0  -0.26244  -0.343386  0  2.109427  0
O  O135  1  0.67846790  0.55866571  0.44496436  1  -1.154622  0  -0.311081  -0.540119  0  2.328794  0
O  O136  1  0.55126048  0.72938428  0.61442908  1  -1.15065  0  -0.314757  -0.544544  0  2.337157  0
O  O137  1  0.38227219  0.26623960  0.32073978  1  -1.160623  0  -0.31606  -0.548409  0  2.338031  0
O  O138  1  0.99869200  0.49822018  0.99816040  1  -1.215632  0  -0.572153  -1.027006  0  2.540633  0
O  O139  1  0.82230008  0.44265954  0.05377972  1  -1.169371  0  -0.314813  -0.5454  0  2.336849  0
O  O140  1  0.11226186  0.55593500  0.87903329  1  -1.172424  0  -0.311152  -0.539408  0  2.335066  0
O  O141  1  0.11490431  0.73137323  0.17659787  1  -1.160395  0  -0.312694  -0.542284  0  2.332749  0
