# generated using pymatgen
data_ZnH6C6(SN4)2
_symmetry_space_group_name_H-M   'P 1'
_cell_length_a   8.01470378
_cell_length_b   9.79744650
_cell_length_c   15.83480971
_cell_angle_alpha   90.00029299
_cell_angle_beta   90.00014684
_cell_angle_gamma   90.00003478
_symmetry_Int_Tables_number   1
_chemical_formula_structural   ZnH6C6(SN4)2
_chemical_formula_sum   'Zn4 H24 C24 S8 N32'
_cell_volume   1243.40676160
_cell_formula_units_Z   4
loop_
 _symmetry_equiv_pos_site_id
 _symmetry_equiv_pos_as_xyz
  1  'x, y, z'
loop_
 _atom_site_type_symbol
 _atom_site_label
 _atom_site_symmetry_multiplicity
 _atom_site_fract_x
 _atom_site_fract_y
 _atom_site_fract_z
 _atom_site_occupancy
 _atom_site_hle17_bader_spin_density
 _atom_site_hle17_ddec_charge
 _atom_site_hle17_ddec_spin_density
 _atom_site_hle17_ddec_sum_bond_order
 _atom_site_hle17_magmom
 _atom_site_hse06_10hf_bader_spin_density
 _atom_site_hse06_10hf_ddec_charge
 _atom_site_hse06_10hf_ddec_spin_density
 _atom_site_hse06_10hf_ddec_sum_bond_order
 _atom_site_hse06_10hf_magmom
 _atom_site_hse06_bader_spin_density
 _atom_site_hse06_ddec_charge
 _atom_site_hse06_ddec_spin_density
 _atom_site_hse06_ddec_sum_bond_order
 _atom_site_hse06_magmom
 _atom_site_pbe_bader_spin_density
 _atom_site_pbe_cm5_charge
 _atom_site_pbe_ddec_charge
 _atom_site_pbe_ddec_spin_density
 _atom_site_pbe_ddec_sum_bond_order
 _atom_site_pbe_magmom
Zn  Zn0  1  0.49999692  0.71249089  0.24999877  1  0  0.922254  0  2.096003  0  0  0.735145  0  2.564519  0  0  0.775282  0  2.521502  0  0  0.720097  0.706994  0  2.594002  0
Zn  Zn1  1  0.99999798  0.78750855  0.75000080  1  0  0.922289  0  2.096015  0  0  0.735156  0  2.564551  0  0  0.77529  0  2.521533  0  0  0.720087  0.706998  0  2.594037  0
Zn  Zn2  1  0.50000302  0.28750875  0.74999969  1  0  0.92224  0  2.096075  0  0  0.73514  0  2.564598  0  0  0.775273  0  2.521581  0  0  0.720097  0.706993  0  2.594081  0
Zn  Zn3  1  0.99999899  0.21249134  0.25000146  1  0  0.92223  0  2.096003  0  0  0.735107  0  2.56454  0  0  0.775246  0  2.521519  0  0  0.720093  0.706961  0  2.594023  0
H  H4  1  0.25875007  0.46282652  0.18401132  1  0  0.102996  0  0.934851  0  0  0.110705  0  0.996875  0  0  0.111902  0  0.995779  0  0  0.137763  0.109725  0  0.997837  0
H  H5  1  0.24125334  0.03717278  0.68400717  1  0  0.103075  0  0.93485  0  0  0.110781  0  0.996854  0  0  0.111979  0  0.995758  0  0  0.13778  0.1098  0  0.997817  0
H  H6  1  0.74124983  0.46282821  0.31598922  1  0  0.103001  0  0.93484  0  0  0.11071  0  0.996857  0  0  0.111906  0  0.995761  0  0  0.137757  0.109731  0  0.997817  0
H  H7  1  0.75874753  0.03716835  0.81599015  1  0  0.103014  0  0.934914  0  0  0.110705  0  0.996942  0  0  0.111902  0  0.995846  0  0  0.137756  0.109726  0  0.997905  0
H  H8  1  0.74125362  0.53716904  0.81598903  1  0  0.102955  0  0.934993  0  0  0.110655  0  0.997004  0  0  0.111852  0  0.995908  0  0  0.137764  0.109677  0  0.997963  0
H  H9  1  0.75874661  0.96283298  0.31599128  1  0  0.102992  0  0.934907  0  0  0.110691  0  0.996927  0  0  0.111888  0  0.99583  0  0  0.137762  0.109711  0  0.997888  0
H  H10  1  0.25875136  0.53717654  0.68400860  1  0  0.103008  0  0.934753  0  0  0.110719  0  0.996781  0  0  0.111916  0  0.995685  0  0  0.137752  0.109739  0  0.997742  0
H  H11  1  0.24124618  0.96282619  0.18401020  1  0  0.103085  0  0.934855  0  0  0.110786  0  0.996868  0  0  0.111984  0  0.995772  0  0  0.137805  0.109806  0  0.99783  0
H  H12  1  0.13845051  0.36792421  0.42955556  1  0  0.272501  0  0.947891  0  0  0.245878  0  1.027248  0  0  0.253738  0  1.022062  0  0  0.29447  0.240282  0  1.031088  0
H  H13  1  0.36155289  0.13207713  0.92955187  1  0  0.272501  0  0.947867  0  0  0.245909  0  1.027204  0  0  0.253764  0  1.022024  0  0  0.294496  0.240314  0  1.031042  0
H  H14  1  0.86155181  0.36792494  0.07044594  1  0  0.272558  0  0.947792  0  0  0.245923  0  1.027176  0  0  0.253782  0  1.02199  0  0  0.294526  0.240329  0  1.031013  0
H  H15  1  0.63845304  0.13207469  0.57044764  1  0  0.272608  0  0.947783  0  0  0.245949  0  1.027176  0  0  0.253805  0  1.021995  0  0  0.294547  0.240354  0  1.031014  0
H  H16  1  0.86154819  0.63207543  0.57044731  1  0  0.272497  0  0.947889  0  0  0.245919  0  1.027206  0  0  0.253777  0  1.022021  0  0  0.294524  0.240324  0  1.031043  0
H  H17  1  0.63845080  0.86792353  0.07044721  1  0  0.272575  0  0.947781  0  0  0.245943  0  1.027165  0  0  0.2538  0  1.021979  0  0  0.294546  0.240347  0  1.031002  0
H  H18  1  0.13845063  0.63207674  0.92955315  1  0  0.272499  0  0.94788  0  0  0.245901  0  1.027209  0  0  0.253758  0  1.022024  0  0  0.29451  0.240306  0  1.031046  0
H  H19  1  0.36154940  0.86792393  0.42955334  1  0  0.272607  0  0.947775  0  0  0.245954  0  1.027169  0  0  0.253813  0  1.021983  0  0  0.294543  0.240359  0  1.031007  0
H  H20  1  0.33918541  0.57742275  0.43694860  1  0  0.094157  0  0.964622  0  0  0.09725  0  1.039953  0  0  0.099925  0  1.036721  0  0  0.126196  0.095095  0  1.042641  0
H  H21  1  0.16082089  0.92257696  0.93694367  1  0  0.094207  0  0.964462  0  0  0.097208  0  1.039928  0  0  0.099887  0  1.036689  0  0  0.126147  0.095054  0  1.042617  0
H  H22  1  0.66081582  0.57742435  0.06305230  1  0  0.094171  0  0.964635  0  0  0.097264  0  1.039972  0  0  0.099941  0  1.036738  0  0  0.126196  0.095109  0  1.042659  0
H  H23  1  0.83919187  0.92257864  0.56305202  1  0  0.09417  0  0.964579  0  0  0.097245  0  1.039945  0  0  0.099922  0  1.03671  0  0  0.126191  0.09509  0  1.042633  0
H  H24  1  0.66081079  0.42257791  0.56305112  1  0  0.094174  0  0.964578  0  0  0.097257  0  1.039927  0  0  0.099934  0  1.036692  0  0  0.126206  0.095102  0  1.042616  0
H  H25  1  0.83918903  0.07742064  0.06305352  1  0  0.094178  0  0.964494  0  0  0.097257  0  1.039869  0  0  0.099936  0  1.03663  0  0  0.1262  0.095102  0  1.042557  0
H  H26  1  0.33918538  0.42257734  0.93694615  1  0  0.094141  0  0.964576  0  0  0.097236  0  1.039924  0  0  0.099914  0  1.036686  0  0  0.126193  0.09508  0  1.042611  0
H  H27  1  0.16081432  0.07742202  0.43694769  1  0  0.094156  0  0.964622  0  0  0.097249  0  1.039955  0  0  0.099925  0  1.036721  0  0  0.126211  0.095095  0  1.042642  0
C  C28  1  0.76293404  0.72502035  0.40079079  1  0  0.299104  0  4.029387  0  0  0.284293  0  4.328315  0  0  0.306733  0  4.339599  0  0  0.137553  0.268914  0  4.32039  0
C  C29  1  0.73705165  0.77497931  0.90078992  1  0  0.298989  0  4.029464  0  0  0.284182  0  4.328392  0  0  0.306622  0  4.339677  0  0  0.137447  0.268803  0  4.320467  0
C  C30  1  0.23705857  0.72502203  0.09920931  1  0  0.299115  0  4.029256  0  0  0.284306  0  4.328174  0  0  0.306747  0  4.339456  0  0  0.137531  0.268928  0  4.320249  0
C  C31  1  0.26294228  0.77497897  0.59920847  1  0  0.299133  0  4.029296  0  0  0.28433  0  4.328206  0  0  0.306768  0  4.339492  0  0  0.137549  0.26895  0  4.320282  0
C  C32  1  0.23705717  0.27498235  0.59920956  1  0  0.299041  0  4.029403  0  0  0.284243  0  4.328319  0  0  0.30668  0  4.339606  0  0  0.137507  0.268863  0  4.320395  0
C  C33  1  0.26294705  0.22502646  0.09921043  1  0  0.298999  0  4.029444  0  0  0.284195  0  4.328366  0  0  0.306635  0  4.33965  0  0  0.137475  0.268817  0  4.320442  0
C  C34  1  0.76294387  0.27497965  0.90079041  1  0  0.299088  0  4.02944  0  0  0.284283  0  4.32836  0  0  0.306722  0  4.339644  0  0  0.137534  0.268904  0  4.320436  0
C  C35  1  0.73704768  0.22501863  0.40079125  1  0  0.299157  0  4.029752  0  0  0.284345  0  4.328664  0  0  0.306784  0  4.339951  0  0  0.13758  0.268966  0  4.320739  0
C  C36  1  0.25334393  0.46605213  0.25228053  1  0  0.224026  0  3.655606  0  0  0.166413  0  3.930278  0  0  0.179023  0  3.943704  0  0  0.154901  0.158277  0  3.920852  0
C  C37  1  0.24666606  0.03394774  0.75227638  1  0  0.223943  0  3.655541  0  0  0.166328  0  3.930178  0  0  0.178939  0  3.943603  0  0  0.154889  0.158187  0  3.920749  0
C  C38  1  0.74665722  0.46605734  0.24771938  1  0  0.224051  0  3.655425  0  0  0.166465  0  3.930061  0  0  0.179078  0  3.943486  0  0  0.154984  0.158326  0  3.920637  0
C  C39  1  0.75333980  0.03394172  0.74772219  1  0  0.224111  0  3.655475  0  0  0.166541  0  3.930099  0  0  0.179154  0  3.943521  0  0  0.154946  0.158398  0  3.920674  0
C  C40  1  0.74666226  0.53394138  0.74772108  1  0  0.22415  0  3.65547  0  0  0.166576  0  3.930082  0  0  0.179189  0  3.943504  0  0  0.154974  0.158438  0  3.920658  0
C  C41  1  0.75334013  0.96606313  0.24772081  1  0  0.224145  0  3.655427  0  0  0.166576  0  3.930038  0  0  0.179188  0  3.943461  0  0  0.154955  0.158439  0  3.920614  0
C  C42  1  0.25334522  0.53394741  0.75228097  1  0  0.22407  0  3.655542  0  0  0.166454  0  3.930209  0  0  0.179063  0  3.943633  0  0  0.154929  0.158319  0  3.920783  0
C  C43  1  0.24665641  0.96605486  0.25228006  1  0  0.223942  0  3.655628  0  0  0.166345  0  3.930261  0  0  0.178957  0  3.943687  0  0  0.154893  0.158209  0  3.920834  0
C  C44  1  0.29562282  0.52619794  0.38005800  1  0  0.244978  0  3.633978  0  0  0.174613  0  3.91238  0  0  0.190382  0  3.922258  0  0  0.167791  0.164433  0  3.905495  0
C  C45  1  0.20438819  0.97380131  0.88005203  1  0  0.245077  0  3.633825  0  0  0.174734  0  3.912299  0  0  0.190503  0  3.922176  0  0  0.167868  0.164546  0  3.905413  0
C  C46  1  0.70438087  0.52619900  0.11994400  1  0  0.244935  0  3.633974  0  0  0.174584  0  3.912408  0  0  0.190353  0  3.922286  0  0  0.167797  0.164404  0  3.905521  0
C  C47  1  0.79562211  0.97380344  0.61994382  1  0  0.245043  0  3.633933  0  0  0.174681  0  3.912346  0  0  0.190449  0  3.922226  0  0  0.167797  0.164496  0  3.905459  0
C  C48  1  0.70438087  0.47380273  0.61994487  1  0  0.244973  0  3.633929  0  0  0.174649  0  3.912356  0  0  0.190414  0  3.922236  0  0  0.167811  0.164467  0  3.905472  0
C  C49  1  0.79562173  0.02620038  0.11994769  1  0  0.24501  0  3.633929  0  0  0.174658  0  3.912394  0  0  0.190426  0  3.92227  0  0  0.167802  0.164478  0  3.905507  0
C  C50  1  0.29562157  0.47380268  0.88005319  1  0  0.24504  0  3.63403  0  0  0.174658  0  3.912464  0  0  0.190421  0  3.922343  0  0  0.167767  0.164477  0  3.905581  0
C  C51  1  0.20437908  0.02619620  0.38005779  1  0  0.245022  0  3.633896  0  0  0.174673  0  3.912295  0  0  0.190443  0  3.922172  0  0  0.167795  0.164493  0  3.905409  0
S  S52  1  0.93834552  0.73576320  0.45165797  1  0  -0.358467  0  2.061826  0  0  -0.34328  0  2.346829  0  0  -0.358273  0  2.341838  0  0  -0.166617  -0.332599  0  2.350609  0
S  S53  1  0.56164167  0.76423790  0.95165557  1  0  -0.358453  0  2.061839  0  0  -0.34325  0  2.346841  0  0  -0.358244  0  2.341852  0  0  -0.166593  -0.332573  0  2.350622  0
S  S54  1  0.06164959  0.73576540  0.04834154  1  0  -0.358498  0  2.061773  0  0  -0.343283  0  2.346765  0  0  -0.35828  0  2.341775  0  0  -0.166618  -0.332606  0  2.350547  0
S  S55  1  0.43835350  0.76423620  0.54834468  1  0  -0.358495  0  2.061861  0  0  -0.343295  0  2.346867  0  0  -0.358286  0  2.341878  0  0  -0.166613  -0.332617  0  2.350649  0
S  S56  1  0.06164444  0.26423746  0.54834554  1  0  -0.358423  0  2.061809  0  0  -0.343237  0  2.346817  0  0  -0.35823  0  2.341829  0  0  -0.166587  -0.332556  0  2.350598  0
S  S57  1  0.43835578  0.23576378  0.04834352  1  0  -0.358456  0  2.061869  0  0  -0.343266  0  2.346874  0  0  -0.358262  0  2.341885  0  0  -0.166592  -0.332586  0  2.350655  0
S  S58  1  0.93835535  0.26423527  0.95165755  1  0  -0.35849  0  2.061795  0  0  -0.343282  0  2.346789  0  0  -0.358277  0  2.3418  0  0  -0.166618  -0.332602  0  2.350571  0
S  S59  1  0.56163397  0.23575834  0.45165946  1  0  -0.358496  0  2.061722  0  0  -0.343294  0  2.346748  0  0  -0.35829  0  2.341757  0  0  -0.166604  -0.332613  0  2.350529  0
N  N60  1  0.63469215  0.71959630  0.36341545  1  0  -0.553849  0  2.940506  0  0  -0.49938  0  3.228195  0  0  -0.518543  0  3.231476  0  0  -0.40009  -0.486376  0  3.225982  0
N  N61  1  0.86529086  0.78040713  0.86341097  1  0  -0.55375  0  2.940588  0  0  -0.499291  0  3.228292  0  0  -0.518453  0  3.231571  0  0  -0.400009  -0.486288  0  3.226083  0
N  N62  1  0.36529921  0.71959734  0.13658653  1  0  -0.553844  0  2.940483  0  0  -0.49939  0  3.228203  0  0  -0.518552  0  3.231479  0  0  -0.400059  -0.486387  0  3.225993  0
N  N63  1  0.13470183  0.78040091  0.63658807  1  0  -0.553882  0  2.940423  0  0  -0.49943  0  3.228147  0  0  -0.518591  0  3.231426  0  0  -0.400092  -0.486425  0  3.225939  0
N  N64  1  0.36529283  0.28040538  0.63659058  1  0  -0.553828  0  2.940615  0  0  -0.499367  0  3.228297  0  0  -0.518526  0  3.231575  0  0  -0.400066  -0.486361  0  3.226087  0
N  N65  1  0.13471034  0.21959761  0.13658938  1  0  -0.553743  0  2.940551  0  0  -0.499285  0  3.228257  0  0  -0.518448  0  3.231534  0  0  -0.400032  -0.486283  0  3.226048  0
N  N66  1  0.63470822  0.28040537  0.86341066  1  0  -0.55382  0  2.940644  0  0  -0.499366  0  3.228344  0  0  -0.518525  0  3.231621  0  0  -0.400059  -0.486361  0  3.226135  0
N  N67  1  0.86528064  0.21959261  0.36341418  1  0  -0.553868  0  2.940901  0  0  -0.499418  0  3.228619  0  0  -0.518579  0  3.231898  0  0  -0.40011  -0.486416  0  3.226409  0
N  N68  1  0.33635901  0.55849583  0.30051434  1  0  -0.393355  0  3.208043  0  0  -0.320528  0  3.497455  0  0  -0.341464  0  3.50974  0  0  -0.334811  -0.306225  0  3.488608  0
N  N69  1  0.16364661  0.94150276  0.80051011  1  0  -0.393436  0  3.208073  0  0  -0.320523  0  3.497388  0  0  -0.341462  0  3.509676  0  0  -0.334805  -0.306204  0  3.488529  0
N  N70  1  0.66364221  0.55849651  0.19948713  1  0  -0.393357  0  3.208177  0  0  -0.3205  0  3.497547  0  0  -0.341438  0  3.509833  0  0  -0.334841  -0.306194  0  3.4887  0
N  N71  1  0.83636367  0.94150352  0.69948691  1  0  -0.393474  0  3.208145  0  0  -0.320606  0  3.497499  0  0  -0.341544  0  3.509783  0  0  -0.33479  -0.306294  0  3.488647  0
N  N72  1  0.66364219  0.44150075  0.69948601  1  0  -0.393369  0  3.20809  0  0  -0.320537  0  3.49746  0  0  -0.341474  0  3.509746  0  0  -0.334841  -0.306234  0  3.488616  0
N  N73  1  0.83635833  0.05849689  0.19948709  1  0  -0.393438  0  3.208404  0  0  -0.320578  0  3.497762  0  0  -0.341517  0  3.510048  0  0  -0.334855  -0.306275  0  3.488917  0
N  N74  1  0.33635773  0.44150415  0.80051196  1  0  -0.393416  0  3.208282  0  0  -0.320566  0  3.497678  0  0  -0.341494  0  3.509957  0  0  -0.3348  -0.306264  0  3.488835  0
N  N75  1  0.16363752  0.05849510  0.30051281  1  0  -0.393418  0  3.208085  0  0  -0.320562  0  3.497458  0  0  -0.341501  0  3.509744  0  0  -0.334818  -0.30626  0  3.488614  0
N  N76  1  0.16387969  0.37925826  0.29799418  1  0  -0.232634  0  3.098314  0  0  -0.186853  0  3.379815  0  0  -0.199901  0  3.395569  0  0  -0.220592  -0.177865  0  3.3691  0
N  N77  1  0.33612054  0.12074403  0.79798979  1  0  -0.232658  0  3.097965  0  0  -0.186839  0  3.379468  0  0  -0.199886  0  3.39522  0  0  -0.220624  -0.177852  0  3.368757  0
N  N78  1  0.83612139  0.37925598  0.20200672  1  0  -0.232703  0  3.09791  0  0  -0.186918  0  3.379465  0  0  -0.199969  0  3.395216  0  0  -0.220615  -0.17793  0  3.368755  0
N  N79  1  0.66388163  0.12074269  0.70200779  1  0  -0.232743  0  3.098023  0  0  -0.186996  0  3.379567  0  0  -0.200044  0  3.395317  0  0  -0.220632  -0.178008  0  3.368856  0
N  N80  1  0.83612025  0.62074036  0.70200680  1  0  -0.232781  0  3.097991  0  0  -0.18696  0  3.379522  0  0  -0.200007  0  3.39527  0  0  -0.220641  -0.177971  0  3.368808  0
N  N81  1  0.66388065  0.87925867  0.20200803  1  0  -0.232839  0  3.09791  0  0  -0.187032  0  3.37944  0  0  -0.200081  0  3.395191  0  0  -0.220614  -0.178044  0  3.368728  0
N  N82  1  0.16388230  0.62074264  0.79799236  1  0  -0.232695  0  3.098221  0  0  -0.186903  0  3.379748  0  0  -0.199951  0  3.395501  0  0  -0.220612  -0.177914  0  3.369033  0
N  N83  1  0.33611582  0.87925593  0.29799256  1  0  -0.232645  0  3.098161  0  0  -0.186846  0  3.379669  0  0  -0.199894  0  3.395421  0  0  -0.220612  -0.177857  0  3.368954  0
N  N84  1  0.19160770  0.41938232  0.37873031  1  0  -0.160592  0  3.47593  0  0  -0.096693  0  3.708672  0  0  -0.11117  0  3.727013  0  0  -0.256623  -0.087166  0  3.696328  0
N  N85  1  0.30839918  0.08061860  0.87872892  1  0  -0.160608  0  3.475539  0  0  -0.096782  0  3.708364  0  0  -0.111262  0  3.726709  0  0  -0.256652  -0.087256  0  3.696024  0
N  N86  1  0.80839591  0.41938140  0.12126756  1  0  -0.160546  0  3.475585  0  0  -0.096716  0  3.708497  0  0  -0.111195  0  3.72684  0  0  -0.256699  -0.087191  0  3.696153  0
N  N87  1  0.69160795  0.08061967  0.62126791  1  0  -0.160651  0  3.47563  0  0  -0.096745  0  3.70848  0  0  -0.111224  0  3.726821  0  0  -0.256721  -0.087221  0  3.696138  0
N  N88  1  0.80839599  0.58061732  0.62126688  1  0  -0.160527  0  3.4757  0  0  -0.096761  0  3.708552  0  0  -0.111241  0  3.726896  0  0  -0.2567  -0.087235  0  3.696208  0
N  N89  1  0.69160450  0.91938002  0.12126891  1  0  -0.16052  0  3.475458  0  0  -0.096703  0  3.708372  0  0  -0.111181  0  3.726716  0  0  -0.256687  -0.087176  0  3.696028  0
N  N90  1  0.19160529  0.58062028  0.87873026  1  0  -0.160584  0  3.475732  0  0  -0.096727  0  3.708531  0  0  -0.111205  0  3.726877  0  0  -0.256655  -0.087201  0  3.696186  0
N  N91  1  0.30839324  0.91937997  0.37873118  1  0  -0.160636  0  3.475728  0  0  -0.096775  0  3.708602  0  0  -0.111252  0  3.72694  0  0  -0.256694  -0.087248  0  3.696258  0
