# generated using pymatgen
data_AlH13C18O5
_symmetry_space_group_name_H-M   'P 1'
_cell_length_a   6.60905393
_cell_length_b   23.84341393
_cell_length_c   25.31699686
_cell_angle_alpha   90.03411382
_cell_angle_beta   90.29007814
_cell_angle_gamma   89.98939970
_symmetry_Int_Tables_number   1
_chemical_formula_structural   AlH13C18O5
_chemical_formula_sum   'Al4 H52 C72 O20'
_cell_volume   3989.46143938
_cell_formula_units_Z   4
loop_
 _symmetry_equiv_pos_site_id
 _symmetry_equiv_pos_as_xyz
  1  'x, y, z'
loop_
 _atom_site_type_symbol
 _atom_site_label
 _atom_site_symmetry_multiplicity
 _atom_site_fract_x
 _atom_site_fract_y
 _atom_site_fract_z
 _atom_site_occupancy
 _atom_site_pbe_bader_charge
 _atom_site_pbe_bader_spin_density
 _atom_site_pbe_cm5_charge
 _atom_site_pbe_ddec_charge
 _atom_site_pbe_ddec_spin_density
 _atom_site_pbe_ddec_sum_bond_order
 _atom_site_pbe_magmom
Al  Al0  1  0.88892812  0.99762253  0.49875495  1  2.500503  0  0.396764  1.644269  0  2.580757  0
Al  Al1  1  0.38810793  0.00281019  0.49823707  1  2.50086  0  0.397814  1.644933  0  2.577733  0
Al  Al2  1  0.11435891  0.49766258  0.00208075  1  2.500734  0  0.39737  1.641175  0  2.579896  0
Al  Al3  1  0.61363670  0.50348273  0.00111296  1  2.498971  0  0.396789  1.642195  0  2.578574  0
H  H4  1  0.12782212  0.06802106  0.52422153  1  0.608184  0  0.349453  0.424637  0  0.867713  0
H  H5  1  0.62546257  0.92750884  0.51170289  1  0.633977  0  0.35379  0.431606  0  0.852088  0
H  H6  1  0.37542580  0.43352483  0.97472947  1  0.612816  0  0.34837  0.423024  0  0.871417  0
H  H7  1  0.87868581  0.56995514  0.98020358  1  0.609813  0  0.350169  0.426444  0  0.863815  0
H  H8  1  0.52188591  0.37197761  0.09196732  1  0.099292  0  0.112264  0.121346  0  0.991817  0
H  H9  1  0.48412675  0.29685382  0.16016411  1  0.077216  0  0.104638  0.107562  0  1.006839  0
H  H10  1  0.13690107  0.39845888  0.14213467  1  0.077179  0  0.109272  0.118548  0  0.994203  0
H  H11  1  0.36041916  0.10042171  0.35870469  1  0.062494  0  0.110087  0.120436  0  0.993547  0
H  H12  1  0.97457611  0.13126720  0.40727295  1  0.074265  0  0.112008  0.120671  0  0.990837  0
H  H13  1  0.00431276  0.20561125  0.33803079  1  0.067439  0  0.104579  0.10724  0  1.005915  0
H  H14  1  0.03996449  0.63428685  0.91075379  1  0.073774  0  0.107714  0.110688  0  1.00346  0
H  H15  1  0.99735097  0.70579082  0.83979546  1  0.08168  0  0.105381  0.108675  0  0.999109  0
H  H16  1  0.63877533  0.59807785  0.85500114  1  0.075964  0  0.106742  0.114975  0  1.001446  0
H  H17  1  0.86018910  0.90285777  0.64389220  1  0.110095  0  0.107404  0.118497  0  0.998802  0
H  H18  1  0.46012493  0.86599832  0.58942724  1  0.078466  0  0.108134  0.112082  0  1.001842  0
H  H19  1  0.49821040  0.79378447  0.66007339  1  0.098071  0  0.105395  0.108719  0  1.000309  0
H  H20  1  0.62880017  0.64602432  0.10052398  1  0.113163  0  0.110984  0.118167  0  0.989744  0
H  H21  1  0.58434496  0.72049336  0.16934161  1  0.061669  0  0.105044  0.107208  0  0.994718  0
H  H22  1  0.05008293  0.57708782  0.14135738  1  0.1055  0  0.111885  0.123744  0  0.995579  0
H  H23  1  0.45186893  0.92328971  0.35866057  1  0.097837  0  0.111407  0.123147  0  0.995415  0
H  H24  1  0.87285940  0.85451298  0.39948292  1  0.116966  0  0.109709  0.115955  0  0.991397  0
H  H25  1  0.91762902  0.77984399  0.33091508  1  0.077448  0  0.105284  0.107703  0  0.995203  0
H  H26  1  0.54737886  0.36596464  0.91090313  1  0.056038  0  0.108014  0.110852  0  1.00338  0
H  H27  1  0.50862491  0.29298502  0.84110056  1  0.076871  0  0.105884  0.109387  0  0.996791  0
H  H28  1  0.14285118  0.40422327  0.85392430  1  0.093959  0  0.107113  0.115316  0  1.001052  0
H  H29  1  0.36102962  0.09580586  0.64720424  1  0.091184  0  0.106699  0.115936  0  0.999588  0
H  H30  1  0.95968438  0.13161960  0.59112128  1  0.07525  0  0.107934  0.110451  0  1.005474  0
H  H31  1  0.00190411  0.20392537  0.66136673  1  0.072449  0  0.105636  0.108863  0  0.999164  0
H  H32  1  0.26682915  0.35514760  0.22062887  1  0.012939  0  0.094097  0.132165  0  1.001891  0
H  H33  1  0.08729366  0.32930172  0.26705032  1  0.070213  0  0.094715  0.133334  0  0.989492  0
H  H34  1  0.19960830  0.28292114  0.22164746  1  0.043879  0  0.091683  0.124808  0  1.018966  0
H  H35  1  0.28915626  0.21464753  0.27690785  1  0.038228  0  0.091754  0.125169  0  1.020617  0
H  H36  1  0.40008022  0.16669180  0.23275718  1  0.07521  0  0.095136  0.134295  0  0.988151  0
H  H37  1  0.22309391  0.14243154  0.28057253  1  0.017147  0  0.093988  0.132273  0  1.002124  0
H  H38  1  0.76606902  0.63973185  0.77600043  1  0.069133  0  0.094335  0.132963  0  0.998885  0
H  H39  1  0.58374661  0.66538918  0.72971105  1  0.038975  0  0.095726  0.135051  0  0.988465  0
H  H40  1  0.70423144  0.71225927  0.77352745  1  0.026572  0  0.091508  0.124967  0  1.019493  0
H  H41  1  0.79114639  0.78834334  0.72554927  1  0.038672  0  0.091304  0.124094  0  1.020003  0
H  H42  1  0.90978341  0.83579191  0.76914374  1  0.042725  0  0.095644  0.134933  0  0.987513  0
H  H43  1  0.72857696  0.86079707  0.72226600  1  0.037743  0  0.094157  0.132573  0  0.99851  0
H  H44  1  0.85082096  0.61497976  0.21070536  1  0.051477  0  0.09437  0.133487  0  0.996664  0
H  H45  1  0.00184579  0.63913444  0.26472454  1  0.02971  0  0.09537  0.133484  0  0.98575  0
H  H46  1  0.88123635  0.68806371  0.22311671  1  0.051844  0  0.090428  0.124266  0  1.013137  0
H  H47  1  0.62098594  0.81199438  0.27725342  1  0.052237  0  0.090453  0.124451  0  1.012385  0
H  H48  1  0.50092182  0.86096060  0.23557828  1  0.071518  0  0.095622  0.133952  0  0.985373  0
H  H49  1  0.65168118  0.88507584  0.28965628  1  0.041895  0  0.094394  0.133641  0  0.995914  0
H  H50  1  0.21205498  0.28868905  0.77326271  1  0.044423  0  0.091305  0.12412  0  1.020754  0
H  H51  1  0.09090590  0.33567969  0.72970281  1  0.068333  0  0.096015  0.135442  0  0.986157  0
H  H52  1  0.27322789  0.36124868  0.77603147  1  0.063513  0  0.09426  0.13251  0  0.998476  0
H  H53  1  0.23322773  0.13851334  0.72565140  1  0.049664  0  0.094372  0.133204  0  0.997381  0
H  H54  1  0.41505767  0.16474572  0.77178520  1  0.048835  0  0.095715  0.135066  0  0.986978  0
H  H55  1  0.29497704  0.21105433  0.72739319  1  0.045637  0  0.091352  0.124135  0  1.020248  0
C  C56  1  0.63647591  0.06772416  0.57122152  1  1.57958  0  0.264775  0.639113  0  4.098541  0
C  C57  1  0.65174173  0.06886083  0.42935495  1  1.559783  0  0.267684  0.637566  0  4.100937  0
C  C58  1  0.14902151  0.93496540  0.42649014  1  1.551717  0  0.267649  0.636474  0  4.098801  0
C  C59  1  0.13693081  0.92998076  0.56859349  1  1.572043  0  0.262538  0.635106  0  4.104869  0
C  C60  1  0.86654073  0.43194452  0.92959875  1  1.569942  0  0.263323  0.638131  0  4.101764  0
C  C61  1  0.84958953  0.43254291  0.07110197  1  1.582691  0  0.26815  0.63788  0  4.097613  0
C  C62  1  0.35274177  0.56577191  0.07334609  1  1.560227  0  0.268643  0.637225  0  4.097877  0
C  C63  1  0.36461086  0.57054601  0.93094205  1  1.552503  0  0.263567  0.638027  0  4.100815  0
C  C64  1  0.83241905  0.38893875  0.11289303  1  -0.098758  0  -0.013253  -0.032423  0  4.000285  0
C  C65  1  0.64681344  0.36101739  0.11826973  1  -0.033645  0  -0.085376  -0.106358  0  4.007921  0
C  C66  1  0.62551066  0.31994456  0.15650258  1  -0.002918  0  -0.085381  -0.125574  0  3.988702  0
C  C67  1  0.78535976  0.30792596  0.19194235  1  0.046481  0  -0.001598  0.074934  0  4.082622  0
C  C68  1  0.97238141  0.33709129  0.18754902  1  0.023567  0  -0.000169  0.132381  0  3.926654  0
C  C69  1  0.99382313  0.37619443  0.14690616  1  0.033613  0  -0.082857  -0.159949  0  3.939528  0
C  C70  1  0.75637444  0.26736675  0.23193039  1  -0.011077  0  -0.041128  -0.098819  0  4.125262  0
C  C71  1  0.72893593  0.23249181  0.26655230  1  -0.362337  0  -0.041429  -0.097498  0  4.12383  0
C  C72  1  0.70328244  0.19221541  0.30695715  1  0.064082  0  -0.001847  0.073497  0  4.083518  0
C  C73  1  0.51877102  0.16204319  0.31209925  1  0.039366  0  -0.000339  0.132609  0  3.928155  0
C  C74  1  0.50158334  0.12342558  0.35329513  1  -0.031318  0  -0.08336  -0.162239  0  3.939851  0
C  C75  1  0.66491166  0.11209989  0.38713275  1  0.010449  0  -0.01353  -0.031413  0  4.000137  0
C  C76  1  0.84812540  0.14104327  0.38104884  1  0.030656  0  -0.086027  -0.107388  0  4.008423  0
C  C77  1  0.86502108  0.18166577  0.34224668  1  -0.093192  0  -0.084928  -0.124228  0  3.988222  0
C  C78  1  0.34274311  0.61228244  0.88739135  1  0.007524  0  -0.016417  -0.037915  0  3.990019  0
C  C79  1  0.16081043  0.64223497  0.88270509  1  -0.021291  0  -0.08599  -0.098794  0  4.014277  0
C  C80  1  0.13696055  0.68171743  0.84311677  1  -0.069765  0  -0.084146  -0.125438  0  3.985865  0
C  C81  1  0.29281072  0.69141727  0.80631089  1  0.107951  0  -0.000568  0.078835  0  4.077638  0
C  C82  1  0.47650955  0.66047198  0.80993277  1  0.03782  0  0.000255  0.131548  0  3.923753  0
C  C83  1  0.49851160  0.62192368  0.85107913  1  -0.054138  0  -0.083155  -0.156657  0  3.939178  0
C  C84  1  0.26256118  0.73208615  0.76643757  1  -0.427704  0  -0.039825  -0.098011  0  4.122316  0
C  C85  1  0.23083287  0.76783387  0.73280402  1  0.013596  0  -0.039928  -0.096308  0  4.123209  0
C  C86  1  0.20216293  0.80862919  0.69295794  1  0.102395  0  -4.8e-05  0.076283  0  4.08106  0
C  C87  1  0.01942510  0.83996461  0.68912318  1  -0.020293  0  0.000403  0.132621  0  3.922803  0
C  C88  1  0.99969930  0.87872126  0.64807269  1  -0.046447  0  -0.083544  -0.160535  0  3.938601  0
C  C89  1  0.15690428  0.88819250  0.61214085  1  -0.037785  0  -0.015866  -0.035355  0  3.990606  0
C  C90  1  0.33803200  0.85792915  0.61708278  1  -0.023133  0  -0.086479  -0.100061  0  4.013589  0
C  C91  1  0.35941488  0.81816155  0.65651876  1  -0.056359  0  -0.084495  -0.12508  0  3.988231  0
C  C92  1  0.34039629  0.60760502  0.11685067  1  0.024897  0  -0.015362  -0.040025  0  3.998021  0
C  C93  1  0.49378051  0.64732422  0.12504117  1  -0.064013  0  -0.083857  -0.101267  0  4.003823  0
C  C94  1  0.46914128  0.68836174  0.16344055  1  -0.028087  0  -0.084017  -0.125127  0  3.97942  0
C  C95  1  0.29425596  0.68952361  0.19529636  1  0.066375  0  -0.000727  0.075199  0  4.082091  0
C  C96  1  0.14181189  0.64795029  0.18852986  1  0.025611  0  0.000463  0.133862  0  3.932335  0
C  C97  1  0.16715336  0.60838292  0.14868145  1  -0.040916  0  -0.081784  -0.156814  0  3.941111  0
C  C98  1  0.26761671  0.73199646  0.23360040  1  0.033904  0  -0.039864  -0.09759  0  4.123182  0
C  C99  1  0.23455506  0.76814339  0.26674941  1  -0.45056  0  -0.04063  -0.098515  0  4.123137  0
C  C100  1  0.20788771  0.81069045  0.30497643  1  0.075695  0  -0.000705  0.075791  0  4.081095  0
C  C101  1  0.36039200  0.85224909  0.31170506  1  0.015799  0  5.2e-05  0.133319  0  3.931424  0
C  C102  1  0.33486441  0.89195690  0.35141987  1  -0.052477  0  -0.082001  -0.156578  0  3.942476  0
C  C103  1  0.16143587  0.89289959  0.38318184  1  0.015859  0  -0.016243  -0.041852  0  4.002049  0
C  C104  1  0.00808398  0.85315021  0.37504507  1  -0.059428  0  -0.083952  -0.099778  0  4.005097  0
C  C105  1  0.03284722  0.81198105  0.33677292  1  -0.028503  0  -0.084046  -0.126145  0  3.979305  0
C  C106  1  0.84793313  0.38928085  0.88672242  1  0.011297  0  -0.015665  -0.036722  0  3.991934  0
C  C107  1  0.66816147  0.35823838  0.88277132  1  0.016945  0  -0.086005  -0.099289  0  4.016011  0
C  C108  1  0.64647913  0.31788287  0.84386681  1  -0.061532  0  -0.083869  -0.125133  0  3.984728  0
C  C109  1  0.80220158  0.30839037  0.80696396  1  0.111429  0  -0.000371  0.079326  0  4.076233  0
C  C110  1  0.98400097  0.34023477  0.80996761  1  0.041329  0  0.000679  0.131243  0  3.923124  0
C  C111  1  0.00404018  0.37964807  0.85051047  1  -0.093625  0  -0.084125  -0.158723  0  3.94094  0
C  C112  1  0.77228761  0.26709671  0.76758996  1  -0.22954  0  -0.039648  -0.097297  0  4.122561  0
C  C113  1  0.73781378  0.23089435  0.73452917  1  -0.196654  0  -0.039864  -0.097943  0  4.122426  0
C  C114  1  0.70668339  0.18978546  0.69504654  1  0.117836  0  0.000111  0.080154  0  4.074521  0
C  C115  1  0.52308568  0.15878876  0.69167376  1  -0.008556  0  0.000121  0.130261  0  3.924703  0
C  C116  1  0.50125944  0.11970188  0.65089336  1  -0.008241  0  -0.083066  -0.157867  0  3.940232  0
C  C117  1  0.65711675  0.10965890  0.61471010  1  -0.027206  0  -0.01596  -0.037979  0  3.991002  0
C  C118  1  0.83884665  0.13977025  0.61912443  1  -0.040703  0  -0.086112  -0.098803  0  4.016428  0
C  C119  1  0.86251152  0.17973143  0.65830512  1  -0.050821  0  -0.084111  -0.12551  0  3.985273  0
C  C120  1  0.14083868  0.32585973  0.22611901  1  -0.059024  0  -0.236768  -0.412426  0  3.985378  0
C  C121  1  0.34835816  0.17163508  0.27371597  1  -0.065954  0  -0.237156  -0.413838  0  3.985853  0
C  C122  1  0.64164900  0.66959859  0.77032451  1  -0.052212  0  -0.236538  -0.413479  0  3.985324  0
C  C123  1  0.85313442  0.83109110  0.72846307  1  -0.035286  0  -0.236272  -0.412008  0  3.982787  0
C  C124  1  0.95878279  0.64726187  0.22337584  1  -0.057243  0  -0.236725  -0.410602  0  3.988464  0
C  C125  1  0.54366140  0.85283063  0.27694509  1  -0.093393  0  -0.2367  -0.410934  0  3.986537  0
C  C126  1  0.14907948  0.33131779  0.77027489  1  -0.113302  0  -0.235971  -0.411551  0  3.983708  0
C  C127  1  0.35760638  0.16843286  0.73109491  1  -0.068894  0  -0.235937  -0.412147  0  3.983553  0
O  O128  1  0.80002318  0.05482254  0.54767424  1  -1.260946  0  -0.237909  -0.605545  0  2.382794  0
O  O129  1  0.48161499  0.06046772  0.45157391  1  -1.254488  0  -0.235631  -0.58799  0  2.318702  0
O  O130  1  0.31118972  0.96153055  0.43716265  1  -1.259584  0  -0.23281  -0.582818  0  2.35972  0
O  O131  1  0.96161605  0.94976307  0.55827927  1  -1.251377  0  -0.241109  -0.596238  0  2.315989  0
O  O132  1  0.98156323  0.94105098  0.45077275  1  -1.262073  0  -0.236797  -0.592616  0  2.325144  0
O  O133  1  0.29948165  0.94232226  0.54422486  1  -1.262651  0  -0.240027  -0.608945  0  2.369306  0
O  O134  1  0.46130944  0.04849878  0.55986522  1  -1.252825  0  -0.241169  -0.595908  0  2.303799  0
O  O135  1  0.81659378  0.04392504  0.44067096  1  -1.258491  0  -0.233152  -0.582083  0  2.35356  0
O  O136  1  0.13573013  0.03532222  0.50159655  1  -1.41227  0  -0.448727  -0.989914  0  2.212429  0
O  O137  1  0.63488162  0.96555797  0.49867848  1  -1.437826  0  -0.447684  -0.993487  0  2.215627  0
O  O138  1  0.04154766  0.45132966  0.94094534  1  -1.261207  0  -0.241838  -0.597831  0  2.309885  0
O  O139  1  0.68659471  0.45837814  0.05976309  1  -1.257848  0  -0.232749  -0.582215  0  2.353938  0
O  O140  1  0.51957878  0.56012865  0.04872011  1  -1.26511  0  -0.235502  -0.590002  0  2.324517  0
O  O141  1  0.20261064  0.55786740  0.95537376  1  -1.266901  0  -0.239877  -0.609533  0  2.372595  0
O  O142  1  0.19087706  0.53895396  0.06287477  1  -1.259748  0  -0.231968  -0.58155  0  2.360655  0
O  O143  1  0.54047842  0.55101668  0.94119016  1  -1.254905  0  -0.241903  -0.598041  0  2.310505  0
O  O144  1  0.70214698  0.44534579  0.95252822  1  -1.27044  0  -0.23868  -0.606978  0  2.378011  0
O  O145  1  0.02045024  0.44039094  0.04911267  1  -1.257159  0  -0.235369  -0.586426  0  2.316306  0
O  O146  1  0.36735699  0.46536875  0.99843356  1  -1.417267  0  -0.448965  -0.987609  0  2.20938  0
O  O147  1  0.86790376  0.53552611  0.00030044  1  -1.414167  0  -0.448245  -0.988505  0  2.201843  0
