# generated using pymatgen
data_ZnH8C15S2NO4
_symmetry_space_group_name_H-M   'P 1'
_cell_length_a   9.33180374
_cell_length_b   14.10714096
_cell_length_c   14.01570000
_cell_angle_alpha   101.65289931
_cell_angle_beta   101.50597473
_cell_angle_gamma   101.29392895
_symmetry_Int_Tables_number   1
_chemical_formula_structural   ZnH8C15S2NO4
_chemical_formula_sum   'Zn4 H32 C60 S8 N4 O16'
_cell_volume   1716.31780731
_cell_formula_units_Z   4
loop_
 _symmetry_equiv_pos_site_id
 _symmetry_equiv_pos_as_xyz
  1  'x, y, z'
loop_
 _atom_site_type_symbol
 _atom_site_label
 _atom_site_symmetry_multiplicity
 _atom_site_fract_x
 _atom_site_fract_y
 _atom_site_fract_z
 _atom_site_occupancy
 _atom_site_hle17_bader_spin_density
 _atom_site_hle17_ddec_charge
 _atom_site_hle17_ddec_spin_density
 _atom_site_hle17_ddec_sum_bond_order
 _atom_site_hle17_magmom
 _atom_site_hse06_10hf_bader_spin_density
 _atom_site_hse06_10hf_ddec_charge
 _atom_site_hse06_10hf_ddec_spin_density
 _atom_site_hse06_10hf_ddec_sum_bond_order
 _atom_site_hse06_10hf_magmom
 _atom_site_hse06_bader_spin_density
 _atom_site_hse06_ddec_charge
 _atom_site_hse06_ddec_spin_density
 _atom_site_hse06_ddec_sum_bond_order
 _atom_site_hse06_magmom
 _atom_site_pbe_bader_charge
 _atom_site_pbe_bader_spin_density
 _atom_site_pbe_cm5_charge
 _atom_site_pbe_ddec_charge
 _atom_site_pbe_ddec_spin_density
 _atom_site_pbe_ddec_sum_bond_order
 _atom_site_pbe_magmom
Zn  Zn0  1  0.90769649  0.27474749  0.82572287  1  0  1.043216  0  1.871389  0  0  0.872868  0  2.340167  0  0  0.924467  0  2.274979  0  1.299815  0  0.673186  0.836948  0  2.384814  0
Zn  Zn1  1  0.59220850  0.17614718  0.72465227  1  0  1.043365  0  1.87438  0  0  0.873264  0  2.343319  0  0  0.924763  0  2.278125  0  1.297356  0  0.674243  0.837424  0  2.387949  0
Zn  Zn2  1  0.09230537  0.72525237  0.17427649  1  0  1.043238  0  1.871382  0  0  0.872882  0  2.340154  0  0  0.924481  0  2.274969  0  1.299879  0  0.673187  0.836963  0  2.384801  0
Zn  Zn3  1  0.40779144  0.82385342  0.27534699  1  0  1.043322  0  1.874438  0  0  0.873229  0  2.343376  0  0  0.924729  0  2.278179  0  1.297332  0  0.674214  0.837387  0  2.38801  0
H  H4  1  0.06108922  0.49054179  0.89682844  1  0  0.093131  0  0.947589  0  0  0.097909  0  1.015401  0  0  0.101344  0  1.011819  0  0.133847  0  0.116794  0.095347  0  1.0181  0
H  H5  1  0.43751111  0.10291643  0.50829066  1  0  0.092399  0  0.946141  0  0  0.097546  0  1.013673  0  0  0.100887  0  1.010209  0  0.128425  0  0.117057  0.095019  0  1.016327  0
H  H6  1  0.93891263  0.50945807  0.10317307  1  0  0.093121  0  0.947602  0  0  0.097908  0  1.01541  0  0  0.101345  0  1.011826  0  0.133811  0  0.116779  0.095346  0  1.01811  0
H  H7  1  0.56248993  0.89708417  0.49170946  1  0  0.0924  0  0.946133  0  0  0.097549  0  1.013664  0  0  0.10089  0  1.010201  0  0.128407  0  0.117077  0.095022  0  1.016318  0
H  H8  1  0.31938729  0.59592842  0.96999338  1  0  0.105168  0  0.985845  0  0  0.112231  0  1.052852  0  0  0.114856  0  1.052512  0  0.075075  0  0.104125  0.110303  0  1.053326  0
H  H9  1  0.17888296  0.02937653  0.40287826  1  0  0.105391  0  0.987348  0  0  0.11212  0  1.054813  0  0  0.114747  0  1.054442  0  0.064775  0  0.103942  0.110206  0  1.055232  0
H  H10  1  0.68061348  0.40407144  0.03000869  1  0  0.105123  0  0.985912  0  0  0.112189  0  1.052916  0  0  0.114812  0  1.052578  0  0.075068  0  0.104113  0.110266  0  1.053376  0
H  H11  1  0.82111808  0.97062407  0.59712257  1  0  0.105385  0  0.987355  0  0  0.112109  0  1.054821  0  0  0.114741  0  1.054434  0  0.06477  0  0.103935  0.110195  0  1.055239  0
H  H12  1  0.46809972  0.32383706  0.97581263  1  0  0.108161  0  0.968393  0  0  0.117788  0  1.030005  0  0  0.120061  0  1.030248  0  0.103215  0  0.109094  0.116128  0  1.030017  0
H  H13  1  0.03360329  0.02454143  0.67776906  1  0  0.108952  0  0.967709  0  0  0.118328  0  1.029626  0  0  0.12056  0  1.029873  0  0.103314  0  0.109349  0.11668  0  1.029642  0
H  H14  1  0.53190077  0.67616205  0.02418925  1  0  0.108116  0  0.968407  0  0  0.117768  0  1.030001  0  0  0.120041  0  1.030241  0  0.103242  0  0.109086  0.116107  0  1.030013  0
H  H15  1  0.96639857  0.97545843  0.32223101  1  0  0.10895  0  0.967697  0  0  0.11833  0  1.029606  0  0  0.120569  0  1.029854  0  0.103302  0  0.109337  0.116685  0  1.029625  0
H  H16  1  0.20195899  0.23095376  0.90378201  1  0  0.088935  0  0.92939  0  0  0.099363  0  0.988019  0  0  0.101967  0  0.985647  0  0.129376  0  0.122396  0.0974  0  0.98983  0
H  H17  1  0.30000051  0.09716135  0.77058131  1  0  0.089084  0  0.930515  0  0  0.099649  0  0.98907  0  0  0.102313  0  0.986623  0  0.108357  0  0.122313  0.097626  0  0.99096  0
H  H18  1  0.79804150  0.76904535  0.09621845  1  0  0.088924  0  0.929324  0  0  0.099347  0  0.987969  0  0  0.101951  0  0.985596  0  0.129387  0  0.12239  0.097384  0  0.989781  0
H  H19  1  0.69999997  0.90283776  0.22941914  1  0  0.089082  0  0.930519  0  0  0.099667  0  0.989049  0  0  0.102333  0  0.986601  0  0.108366  0  0.122302  0.097643  0  0.990941  0
H  H20  1  0.08444905  0.27338619  0.52762325  1  0  0.123296  0  0.92067  0  0  0.136907  0  0.971322  0  0  0.140267  0  0.969053  0  0.144921  0  0.115121  0.134487  0  0.973021  0
H  H21  1  0.41687668  0.47423535  0.72684799  1  0  0.12199  0  0.921466  0  0  0.136598  0  0.971299  0  0  0.139985  0  0.968987  0  0.108542  0  0.114132  0.13416  0  0.973022  0
H  H22  1  0.91554571  0.72661516  0.47237761  1  0  0.123324  0  0.920722  0  0  0.136946  0  0.971345  0  0  0.140307  0  0.969074  0  0.144902  0  0.115155  0.134526  0  0.973044  0
H  H23  1  0.58312189  0.52576451  0.27315379  1  0  0.121995  0  0.921474  0  0  0.136598  0  0.971311  0  0  0.139985  0  0.969  0  0.108562  0  0.11414  0.134161  0  0.973034  0
H  H24  1  0.03382382  0.25489182  0.33035930  1  0  0.10873  0  0.962658  0  0  0.115011  0  1.030256  0  0  0.117787  0  1.029627  0  0.084992  0  0.097618  0.113065  0  1.030711  0
H  H25  1  0.46632245  0.66969458  0.74495690  1  0  0.108791  0  0.961974  0  0  0.115543  0  1.028936  0  0  0.118331  0  1.028275  0  0.081371  0  0.097497  0.11359  0  1.02941  0
H  H26  1  0.96617531  0.74510953  0.66964214  1  0  0.108718  0  0.962636  0  0  0.115001  0  1.030237  0  0  0.117777  0  1.029608  0  0.084984  0  0.097604  0.113055  0  1.030692  0
H  H27  1  0.53367803  0.33030453  0.25504427  1  0  0.108785  0  0.962001  0  0  0.11554  0  1.028962  0  0  0.118327  0  1.028302  0  0.08136  0  0.0975  0.113587  0  1.029436  0
H  H28  1  0.45651482  0.07435160  0.99973464  1  0  0.115344  0  0.940348  0  0  0.128682  0  0.995545  0  0  0.131258  0  0.993946  0  0.106643  0  0.109324  0.126796  0  0.996728  0
H  H29  1  0.04316130  0.99826743  0.92589427  1  0  0.115898  0  0.940429  0  0  0.129001  0  0.995685  0  0  0.13161  0  0.994064  0  0.109964  0  0.108949  0.127118  0  0.996852  0
H  H30  1  0.54348595  0.92564826  0.00026315  1  0  0.115368  0  0.940329  0  0  0.128703  0  0.995526  0  0  0.131281  0  0.993925  0  0.106563  0  0.109333  0.126817  0  0.99671  0
H  H31  1  0.95683946  0.00173242  0.07410637  1  0  0.115904  0  0.940416  0  0  0.129007  0  0.995669  0  0  0.131615  0  0.994048  0  0.109985  0  0.108951  0.127123  0  0.996838  0
H  H32  1  0.52598432  0.05976340  0.18808729  1  0  0.121856  0  0.957115  0  0  0.127887  0  1.023437  0  0  0.131597  0  1.021427  0  0.10876  0  0.101612  0.125254  0  1.024937  0
H  H33  1  0.97485731  0.81161146  0.94057551  1  0  0.12287  0  0.956018  0  0  0.128629  0  1.023019  0  0  0.132313  0  1.021048  0  0.100246  0  0.101401  0.12599  0  1.024539  0
H  H34  1  0.47401588  0.94023497  0.81190941  1  0  0.121941  0  0.957012  0  0  0.127952  0  1.023348  0  0  0.131662  0  1.021338  0  0.108754  0  0.101658  0.125319  0  1.024849  0
H  H35  1  0.02514345  0.18838840  0.05942513  1  0  0.122875  0  0.956025  0  0  0.12865  0  1.023012  0  0  0.132334  0  1.02104  0  0.10025  0  0.101391  0.126009  0  1.024534  0
C  C36  1  0.15559596  0.45732331  0.91587949  1  0  0.13994  0  3.672875  0  0  0.108677  0  3.92206  0  0  0.115804  0  3.939557  0  0.466108  0  0.053822  0.104099  0  3.910164  0
C  C37  1  0.34368591  0.08418609  0.54212288  1  0  0.140413  0  3.675821  0  0  0.109192  0  3.925115  0  0  0.116304  0  3.942685  0  0.472646  0  0.054473  0.104653  0  3.913172  0
C  C38  1  0.84440481  0.54267655  0.08412115  1  0  0.139931  0  3.672862  0  0  0.108649  0  3.922054  0  0  0.115776  0  3.93955  0  0.465986  0  0.053819  0.104071  0  3.910158  0
C  C39  1  0.65631513  0.91581451  0.45787724  1  0  0.140473  0  3.67582  0  0  0.109247  0  3.925107  0  0  0.116358  0  3.942674  0  0.472668  0  0.054454  0.104708  0  3.913164  0
C  C40  1  0.30186532  0.51545808  0.95628110  1  0  -0.142124  0  3.687705  0  0  -0.162069  0  3.937857  0  0  -0.169843  0  3.960052  0  0.071814  0  -0.076084  -0.157083  0  3.922982  0
C  C41  1  0.19730244  0.04344426  0.48396310  1  0  -0.142684  0  3.691625  0  0  -0.162841  0  3.941564  0  0  -0.17063  0  3.963739  0  0.055569  0  -0.076292  -0.15782  0  3.92666  0
C  C42  1  0.69813544  0.48454178  0.04372168  1  0  -0.142066  0  3.687841  0  0  -0.162003  0  3.937944  0  0  -0.169772  0  3.960136  0  0.071922  0  -0.076053  -0.157015  0  3.923071  0
C  C43  1  0.80269751  0.95655634  0.51603687  1  0  -0.142743  0  3.691586  0  0  -0.162862  0  3.941508  0  0  -0.170648  0  3.963685  0  0.055568  0  -0.076283  -0.15784  0  3.926602  0
C  C44  1  0.42114675  0.47009545  0.97900608  1  0  0.101701  0  3.729549  0  0  0.11143  0  3.963571  0  0  0.114977  0  3.985829  0  0.041681  0  0.021632  0.109226  0  3.948407  0
C  C45  1  0.07888081  0.02099967  0.53005317  1  0  0.100927  0  3.73343  0  0  0.111484  0  3.965577  0  0  0.115068  0  3.987701  0  0.074069  0  0.021485  0.109251  0  3.950512  0
C  C46  1  0.57885511  0.52990440  0.02099685  1  0  0.101609  0  3.729676  0  0  0.111386  0  3.963655  0  0  0.114933  0  3.985915  0  0.004865  0  0.021626  0.109181  0  3.94849  0
C  C47  1  0.92112023  0.97900094  0.46994694  1  0  0.10099  0  3.733387  0  0  0.111487  0  3.965576  0  0  0.115068  0  3.987705  0  0.037687  0  0.02151  0.109255  0  3.95051  0
C  C48  1  0.38360020  0.36546825  0.96006206  1  0  -0.132428  0  3.677832  0  0  -0.151254  0  3.925235  0  0  -0.158254  0  3.946876  0  -0.032011  0  -0.071979  -0.146806  0  3.910765  0
C  C49  1  0.11735858  0.04017954  0.63548523  1  0  -0.133127  0  3.677268  0  0  -0.152009  0  3.924684  0  0  -0.158932  0  3.946325  0  -0.035539  0  -0.072033  -0.147592  0  3.910192  0
C  C50  1  0.61640166  0.63453160  0.03993872  1  0  -0.132361  0  3.677705  0  0  -0.151207  0  3.925074  0  0  -0.158208  0  3.946717  0  -0.03202  0  -0.071982  -0.14676  0  3.910607  0
C  C51  1  0.88264218  0.95982032  0.36451469  1  0  -0.133175  0  3.677315  0  0  -0.152044  0  3.924733  0  0  -0.158978  0  3.946383  0  -0.035542  0  -0.072048  -0.147633  0  3.910247  0
C  C52  1  0.23461686  0.31218801  0.91958701  1  0  0.135103  0  3.690503  0  0  0.103934  0  3.939895  0  0  0.110755  0  3.958155  0  0.455634  0  0.055009  0.099544  0  3.927508  0
C  C53  1  0.26643618  0.08108192  0.68876280  1  0  0.13575  0  3.686103  0  0  0.104501  0  3.935682  0  0  0.111248  0  3.953897  0  0.467921  0  0.055293  0.100171  0  3.923302  0
C  C54  1  0.76538500  0.68781185  0.08041450  1  0  0.135117  0  3.6903  0  0  0.103932  0  3.93972  0  0  0.110754  0  3.957978  0  0.455483  0  0.055022  0.099541  0  3.927335  0
C  C55  1  0.73356458  0.91891794  0.31123785  1  0  0.135762  0  3.686098  0  0  0.104499  0  3.935677  0  0  0.111245  0  3.953893  0  0.467931  0  0.055301  0.100168  0  3.9233  0
C  C56  1  0.81785898  0.22055399  0.60529910  1  0  0.676505  0  3.930208  0  0  0.625737  0  4.219636  0  0  0.661865  0  4.21138  0  1.558524  0  0.206569  0.601276  0  4.224346  0
C  C57  1  0.68352646  0.39620758  0.77949284  1  0  0.67353  0  3.933904  0  0  0.623111  0  4.224243  0  0  0.65916  0  4.216079  0  1.580719  0  0.204872  0.598741  0  4.228887  0
C  C58  1  0.18213550  0.77944662  0.39469872  1  0  0.676523  0  3.930154  0  0  0.625743  0  4.219594  0  0  0.661872  0  4.211338  0  1.558255  0  0.206532  0.601282  0  4.224305  0
C  C59  1  0.31647184  0.60379153  0.22050804  1  0  0.673564  0  3.933994  0  0  0.623144  0  4.224332  0  0  0.659198  0  4.216165  0  1.580585  0  0.204859  0.598775  0  4.228975  0
C  C60  1  0.84282578  0.21872523  0.50461292  1  0  -0.14905  0  3.739772  0  0  -0.131661  0  4.008039  0  0  -0.139443  0  4.028172  0  -0.184426  0  -0.029007  -0.126602  0  3.994437  0
C  C61  1  0.65879758  0.49659781  0.78107395  1  0  -0.148334  0  3.734549  0  0  -0.131383  0  4.00372  0  0  -0.139064  0  4.023923  0  -0.190265  0  -0.029842  -0.126505  0  3.990232  0
C  C62  1  0.15717225  0.78127612  0.49538624  1  0  -0.149052  0  3.739848  0  0  -0.131662  0  4.008127  0  0  -0.139443  0  4.028258  0  -0.184446  0  -0.028949  -0.126603  0  3.994526  0
C  C63  1  0.34120263  0.50340056  0.21892631  1  0  -0.148359  0  3.734661  0  0  -0.131405  0  4.003833  0  0  -0.139099  0  4.024052  0  -0.190194  0  -0.029844  -0.12653  0  3.990347  0
C  C64  1  0.97403628  0.24698689  0.47464623  1  0  -0.066614  0  3.752945  0  0  -0.09608  0  4.010652  0  0  -0.093319  0  4.027395  0  -0.027396  0  -0.094961  -0.097645  0  3.998997  0
C  C65  1  0.52733185  0.52660309  0.75292654  1  0  -0.065487  0  3.75552  0  0  -0.095643  0  4.013399  0  0  -0.092983  0  4.030269  0  0.030766  0  -0.094357  -0.097108  0  4.001684  0
C  C66  1  0.02595929  0.75301371  0.52535245  1  0  -0.066676  0  3.752956  0  0  -0.096148  0  4.010661  0  0  -0.093388  0  4.027406  0  -0.027433  0  -0.09502  -0.097712  0  3.999007  0
C  C67  1  0.47266810  0.47339751  0.24707414  1  0  -0.065441  0  3.755538  0  0  -0.095593  0  4.013423  0  0  -0.092928  0  4.030294  0  0.030753  0  -0.094356  -0.097057  0  4.001709  0
C  C68  1  0.94664068  0.23757281  0.36999580  1  0  -0.129456  0  3.746122  0  0  -0.152831  0  4.006065  0  0  -0.155923  0  4.025251  0  -0.050542  0  -0.108716  -0.150661  0  3.992751  0
C  C69  1  0.55409391  0.63047833  0.76218592  1  0  -0.133106  0  3.749748  0  0  -0.156803  0  4.009951  0  0  -0.159867  0  4.029121  0  -0.055084  0  -0.109944  -0.154644  0  3.996628  0
C  C70  1  0.05335899  0.76242705  0.63000398  1  0  -0.129462  0  3.746061  0  0  -0.152843  0  4.006009  0  0  -0.155935  0  4.025196  0  -0.050303  0  -0.108715  -0.150673  0  3.992694  0
C  C71  1  0.44590576  0.36952153  0.23781387  1  0  -0.13318  0  3.749721  0  0  -0.156888  0  4.009941  0  0  -0.159952  0  4.02911  0  -0.055061  0  -0.109973  -0.154728  0  3.996619  0
C  C72  1  0.79408763  0.20136515  0.32098473  1  0  -0.023525  0  3.82491  0  0  -0.011793  0  4.089488  0  0  -0.011458  0  4.113173  0  -0.152862  0  -0.021194  -0.011889  0  4.073222  0
C  C73  1  0.70655643  0.67928862  0.79818026  1  0  -0.021109  0  3.818537  0  0  -0.009765  0  4.083328  0  0  -0.009383  0  4.106954  0  -0.151354  0  -0.02159  -0.009894  0  4.067081  0
C  C74  1  0.20591148  0.79863321  0.67901396  1  0  -0.023419  0  3.824985  0  0  -0.011684  0  4.089569  0  0  -0.011346  0  4.113254  0  -0.153147  0  -0.021136  -0.011781  0  4.073304  0
C  C75  1  0.29344159  0.32070974  0.20181972  1  0  -0.021137  0  3.818433  0  0  -0.009787  0  4.083213  0  0  -0.009404  0  4.106839  0  -0.151353  0  -0.021638  -0.009917  0  4.06697  0
C  C76  1  0.72208436  0.18468385  0.21591901  1  0  -0.01092  0  3.817554  0  0  -0.000361  0  4.082248  0  0  0.00199  0  4.104508  0  -0.199122  0  -0.017209  -0.001812  0  4.066984  0
C  C77  1  0.77784265  0.78376424  0.81487548  1  0  -0.013555  0  3.814085  0  0  -0.001769  0  4.077613  0  0  0.000561  0  4.099826  0  -0.202075  0  -0.018031  -0.003193  0  4.06234  0
C  C78  1  0.27791284  0.81531526  0.78407887  1  0  -0.010935  0  3.817626  0  0  -0.00039  0  4.082323  0  0  0.001954  0  4.104595  0  -0.199138  0  -0.017202  -0.001838  0  4.067052  0
C  C79  1  0.22215756  0.21623413  0.18512478  1  0  -0.013504  0  3.814101  0  0  -0.001716  0  4.077623  0  0  0.000615  0  4.099837  0  -0.202084  0  -0.017983  -0.003138  0  4.062348  0
C  C80  1  0.65819868  0.19510080  0.03865096  1  0  -0.172088  0  3.758759  0  0  -0.154061  0  4.028424  0  0  -0.163072  0  4.048872  0  -0.241555  0  -0.037374  -0.148222  0  4.014638  0
C  C81  1  0.84048364  0.96037066  0.80474626  1  0  -0.170449  0  3.748527  0  0  -0.151665  0  4.017059  0  0  -0.160571  0  4.037555  0  -0.240563  0  -0.037182  -0.145874  0  4.003218  0
C  C82  1  0.34180236  0.80489981  0.96134774  1  0  -0.172032  0  3.758694  0  0  -0.154041  0  4.028385  0  0  -0.163036  0  4.048816  0  -0.241532  0  -0.037325  -0.148202  0  4.014599  0
C  C83  1  0.15951657  0.03962770  0.19525329  1  0  -0.17045  0  3.748499  0  0  -0.151675  0  4.017047  0  0  -0.16058  0  4.037542  0  -0.240567  0  -0.037203  -0.145884  0  4.003207  0
C  C84  1  0.55288974  0.12238230  0.05819566  1  0  -0.058996  0  3.758525  0  0  -0.087902  0  4.015264  0  0  -0.08434  0  4.033168  0  0.001217  0  -0.095644  -0.089935  0  4.002864  0
C  C85  1  0.94647366  0.94051499  0.87756139  1  0  -0.061593  0  3.761058  0  0  -0.090236  0  4.017589  0  0  -0.086815  0  4.035573  0  0.012208  0  -0.096742  -0.092202  0  4.005126  0
C  C86  1  0.44711130  0.87761830  0.94180231  1  0  -0.059026  0  3.758562  0  0  -0.087921  0  4.015305  0  0  -0.084362  0  4.0332  0  0.001199  0  -0.095658  -0.089954  0  4.002905  0
C  C87  1  0.05352710  0.05948486  0.12243854  1  0  -0.061585  0  3.761029  0  0  -0.090225  0  4.017561  0  0  -0.086804  0  4.035544  0  0.012214  0  -0.096729  -0.092191  0  4.005097  0
C  C88  1  0.58977466  0.11521813  0.15857200  1  0  -0.151651  0  3.771266  0  0  -0.176948  0  4.037167  0  0  -0.181551  0  4.056582  0  -0.026826  0  -0.113861  -0.173853  0  4.023859  0
C  C89  1  0.91033561  0.84077965  0.88467177  1  0  -0.151771  0  3.771403  0  0  -0.177363  0  4.037225  0  0  -0.181894  0  4.056591  0  -0.031682  0  -0.113588  -0.17431  0  4.023947  0
C  C90  1  0.41022474  0.88478097  0.84142617  1  0  -0.151827  0  3.771241  0  0  -0.177099  0  4.037152  0  0  -0.1817  0  4.05657  0  -0.026665  0  -0.113967  -0.174004  0  4.02384  0
C  C91  1  0.08966516  0.15922021  0.11532816  1  0  -0.151783  0  3.771451  0  0  -0.177393  0  4.037269  0  0  -0.181924  0  4.056635  0  -0.03168  0  -0.113583  -0.174337  0  4.023988  0
C  C92  1  0.67468966  0.21218235  0.94102177  1  0  0.656197  0  3.963545  0  0  0.606435  0  4.25372  0  0  0.642375  0  4.245554  0  1.581744  0  0.198847  0.582108  0  4.258436  0
C  C93  1  0.82378264  0.05784205  0.78790334  1  0  0.654318  0  3.961331  0  0  0.605426  0  4.251554  0  0  0.641261  0  4.243473  0  1.590961  0  0.197802  0.581158  0  4.256196  0
C  C94  1  0.32531220  0.78781751  0.05897688  1  0  0.656352  0  3.963401  0  0  0.606614  0  4.253555  0  0  0.642549  0  4.245385  0  1.581748  0  0.198937  0.582287  0  4.258273  0
C  C95  1  0.17621566  0.94215706  0.21209540  1  0  0.6543  0  3.961357  0  0  0.605402  0  4.251592  0  0  0.641238  0  4.243509  0  1.590932  0  0.197788  0.581134  0  4.256235  0
S  S96  1  0.68620613  0.18045957  0.40471294  1  0  0.137462  0  2.632154  0  0  0.132327  0  2.952712  0  0  0.13116  0  2.961528  0  0.268441  0  0.09361  0.132777  0  2.947032  0
S  S97  1  0.81503817  0.59594783  0.81908746  1  0  0.134108  0  2.624964  0  0  0.129439  0  2.945241  0  0  0.128172  0  2.954075  0  0.247469  0  0.092285  0.129992  0  2.939583  0
S  S98  1  0.31378970  0.81953879  0.59528460  1  0  0.137438  0  2.632229  0  0  0.1323  0  2.952772  0  0  0.131133  0  2.961587  0  0.268569  0  0.093563  0.132749  0  2.947094  0
S  S99  1  0.18496231  0.40405128  0.18091228  1  0  0.134121  0  2.624963  0  0  0.12945  0  2.94524  0  0  0.128188  0  2.954078  0  0.24754  0  0.092304  0.130005  0  2.939584  0
S  S100  1  0.79863404  0.25817820  0.14533067  1  0  0.135522  0  2.644277  0  0  0.137717  0  2.966185  0  0  0.136605  0  2.974373  0  0.254112  0  0.099706  0.138213  0  2.960897  0
S  S101  1  0.70019879  0.85425298  0.74124752  1  0  0.132598  0  2.639288  0  0  0.134344  0  2.960711  0  0  0.133157  0  2.968955  0  0.243089  0  0.098109  0.134902  0  2.955366  0
S  S102  1  0.20136535  0.74182091  0.85466821  1  0  0.135534  0  2.644202  0  0  0.137752  0  2.966113  0  0  0.136635  0  2.974299  0  0.254086  0  0.0997  0.138246  0  2.960823  0
S  S103  1  0.29980279  0.14574613  0.25875308  1  0  0.132612  0  2.639252  0  0  0.134359  0  2.960678  0  0  0.133174  0  2.968922  0  0.243067  0  0.098114  0.134916  0  2.955333  0
N  N104  1  0.12185306  0.35694727  0.89711623  1  0  -0.31407  0  3.286555  0  0  -0.231754  0  3.557845  0  0  -0.251291  0  3.572624  0  -1.298418  0  -0.326228  -0.21861  0  3.547695  0
N  N105  1  0.37821700  0.10366615  0.64323899  1  0  -0.314164  0  3.285989  0  0  -0.232816  0  3.55873  0  0  -0.252241  0  3.573377  0  -1.292668  0  -0.327772  -0.219743  0  3.548648  0
N  N106  1  0.87814880  0.64305259  0.10288456  1  0  -0.314042  0  3.286515  0  0  -0.231716  0  3.55781  0  0  -0.251253  0  3.572589  0  -1.298298  0  -0.326204  -0.218571  0  3.547661  0
N  N107  1  0.62178376  0.89633370  0.35676165  1  0  -0.314202  0  3.285973  0  0  -0.23286  0  3.558729  0  0  -0.252282  0  3.573373  0  -1.292664  0  -0.327786  -0.219788  0  3.548649  0
O  O108  1  0.93177366  0.24294482  0.67979005  1  0  -0.613957  0  2.025816  0  0  -0.551286  0  2.274621  0  0  -0.579187  0  2.26189  0  -1.144081  0  -0.317072  -0.531974  0  2.282727  0
O  O109  1  0.56923442  0.32258778  0.75656379  1  0  -0.61491  0  2.016857  0  0  -0.553106  0  2.264822  0  0  -0.580893  0  2.252169  0  -1.157372  0  -0.317916  -0.533856  0  2.272851  0
O  O110  1  0.06822165  0.75705803  0.32020833  1  0  -0.613962  0  2.025783  0  0  -0.551271  0  2.274575  0  0  -0.579173  0  2.261849  0  -1.143994  0  -0.317035  -0.53196  0  2.282678  0
O  O111  1  0.43076553  0.67741283  0.24343690  1  0  -0.614909  0  2.016791  0  0  -0.553105  0  2.264757  0  0  -0.580893  0  2.252103  0  -1.157342  0  -0.317901  -0.533856  0  2.272786  0
O  O112  1  0.82217893  0.39302051  0.80128046  1  0  -0.649026  0  2.09872  0  0  -0.580512  0  2.360722  0  0  -0.609284  0  2.346375  0  -1.1653  0  -0.32251  -0.56039  0  2.369682  0
O  O113  1  0.67890315  0.19946247  0.60766340  1  0  -0.64836  0  2.105707  0  0  -0.578739  0  2.369471  0  0  -0.607685  0  2.354952  0  -1.162736  0  -0.322181  -0.558547  0  2.378665  0
O  O114  1  0.17782183  0.60697934  0.19872018  1  0  -0.649033  0  2.098867  0  0  -0.580517  0  2.360874  0  0  -0.609291  0  2.346532  0  -1.165319  0  -0.322504  -0.560394  0  2.369832  0
O  O115  1  0.32109187  0.80053664  0.39233490  1  0  -0.648344  0  2.105675  0  0  -0.578738  0  2.369454  0  0  -0.607683  0  2.354935  0  -1.162637  0  -0.322183  -0.558544  0  2.378647  0
O  O116  1  0.79638863  0.27267679  0.94163214  1  0  -0.642517  0  2.063538  0  0  -0.580258  0  2.328534  0  0  -0.607044  0  2.313471  0  -1.168078  0  -0.323012  -0.561487  0  2.337977  0
O  O117  1  0.70218788  0.05773751  0.72693269  1  0  -0.64172  0  2.049272  0  0  -0.580947  0  2.311321  0  0  -0.607589  0  2.296941  0  -1.174188  0  -0.323359  -0.562359  0  2.320532  0
O  O118  1  0.20361460  0.72732381  0.05836827  1  0  -0.642626  0  2.063597  0  0  -0.580374  0  2.328605  0  0  -0.607159  0  2.313539  0  -1.16804  0  -0.323085  -0.561608  0  2.338062  0
O  O119  1  0.29781151  0.94226160  0.27306690  1  0  -0.641719  0  2.049268  0  0  -0.580941  0  2.311325  0  0  -0.607583  0  2.296944  0  -1.174158  0  -0.323352  -0.562354  0  2.320536  0
O  O120  1  0.56804168  0.16381934  0.86392028  1  0  -0.625595  0  2.053668  0  0  -0.557552  0  2.31106  0  0  -0.58648  0  2.298309  0  -1.171766  0  -0.317075  -0.537461  0  2.319072  0
O  O121  1  0.93045591  0.13426285  0.83712929  1  0  -0.628224  0  2.036942  0  0  -0.561635  0  2.292896  0  0  -0.590509  0  2.280227  0  -1.171173  0  -0.318898  -0.54155  0  2.300825  0
O  O122  1  0.43196292  0.83618201  0.13607975  1  0  -0.625664  0  2.053566  0  0  -0.557636  0  2.310966  0  0  -0.586566  0  2.298219  0  -1.171762  0  -0.317101  -0.53753  0  2.318948  0
O  O123  1  0.06954376  0.86573701  0.16286978  1  0  -0.628228  0  2.036982  0  0  -0.561634  0  2.292932  0  0  -0.590508  0  2.280266  0  -1.171208  0  -0.318895  -0.541544  0  2.300849  0
