# generated using pymatgen
data_Al2H5C19O10
_symmetry_space_group_name_H-M   'P 1'
_cell_length_a   6.69488192
_cell_length_b   19.56839007
_cell_length_c   21.37437713
_cell_angle_alpha   86.66392269
_cell_angle_beta   89.42653205
_cell_angle_gamma   89.50477094
_symmetry_Int_Tables_number   1
_chemical_formula_structural   Al2H5C19O10
_chemical_formula_sum   'Al4 H10 C38 O20'
_cell_volume   2795.23921877
_cell_formula_units_Z   2
loop_
 _symmetry_equiv_pos_site_id
 _symmetry_equiv_pos_as_xyz
  1  'x, y, z'
loop_
 _atom_site_type_symbol
 _atom_site_label
 _atom_site_symmetry_multiplicity
 _atom_site_fract_x
 _atom_site_fract_y
 _atom_site_fract_z
 _atom_site_occupancy
 _atom_site_pbe_bader_charge
 _atom_site_pbe_bader_spin_density
 _atom_site_pbe_cm5_charge
 _atom_site_pbe_ddec_charge
 _atom_site_pbe_ddec_spin_density
 _atom_site_pbe_ddec_sum_bond_order
 _atom_site_pbe_magmom
Al  Al0  1  0.75703963  0.26495107  0.26217935  1  2.506604  0  0.408308  1.64848  0  2.575356  0
Al  Al1  1  0.24295970  0.73504904  0.73781980  1  2.506653  0  0.408276  1.64842  0  2.575518  0
Al  Al2  1  0.25599921  0.26487763  0.26218259  1  2.504638  0  0.407887  1.648241  0  2.574936  0
Al  Al3  1  0.74400160  0.73512248  0.73781515  1  2.504585  0  0.407888  1.648312  0  2.574865  0
H  H4  1  0.33924386  0.95607716  0.98222418  1  0.066099  0  0.102819  0.092019  0  0.993938  0
H  H5  1  0.66075550  0.04392192  0.01777549  1  0.066095  0  0.102815  0.092011  0  0.993921  0
H  H6  1  0.21674331  0.09504791  0.96399624  1  0.087974  0  0.105043  0.093315  0  0.986692  0
H  H7  1  0.78325903  0.90495168  0.03600339  1  0.087981  0  0.105034  0.093333  0  0.986695  0
H  H8  1  0.87060667  0.05243183  0.90149579  1  0.084495  0  0.106721  0.095918  0  0.9833  0
H  H9  1  0.12939265  0.94756879  0.09850381  1  0.084431  0  0.106736  0.095956  0  0.983284  0
H  H10  1  0.50900316  0.17572685  0.25877432  1  0.634022  0  0.363503  0.444803  0  0.830525  0
H  H11  1  0.49099923  0.82427171  0.74122817  1  0.634022  0  0.363559  0.444858  0  0.830476  0
H  H12  1  0.00398669  0.35273918  0.27455599  1  0.6512  0  0.362245  0.444143  0  0.833565  0
H  H13  1  0.99601422  0.64725885  0.72544794  1  0.651906  0  0.362206  0.44408  0  0.833618  0
C  C14  1  0.50740614  0.34875704  0.17459625  1  1.701141  0  0.275882  0.698757  0  4.185747  0
C  C15  1  0.49259473  0.65124102  0.82540206  1  1.701531  0  0.275887  0.698674  0  4.185801  0
C  C16  1  0.50146828  0.34526192  0.34437552  1  1.687765  0  0.279167  0.704195  0  4.172373  0
C  C17  1  0.49853107  0.65473716  0.65562321  1  1.687923  0  0.27919  0.704209  0  4.172313  0
C  C18  1  0.00597840  0.17771496  0.34766142  1  1.658484  0  0.274392  0.698332  0  4.184922  0
C  C19  1  0.99401945  0.82228514  0.65233867  1  1.658457  0  0.274443  0.698438  0  4.18497  0
C  C20  1  0.01126410  0.18481462  0.18045145  1  1.65832  0  0.277226  0.724526  0  4.153562  0
C  C21  1  0.98873669  0.81518652  0.81954671  1  1.658142  0  0.277189  0.724586  0  4.153397  0
C  C22  1  0.92806996  0.02977580  0.94575628  1  -0.028365  0  -0.065146  -0.071792  0  3.621171  0
C  C23  1  0.07192637  0.97022482  0.05424286  1  -0.028296  0  -0.065161  -0.071813  0  3.621315  0
C  C24  1  0.12063128  0.05233906  0.97950153  1  -0.041735  0  -0.066607  -0.075131  0  3.629061  0
C  C25  1  0.87936955  0.94766053  0.02049764  1  -0.041737  0  -0.066629  -0.075222  0  3.629201  0
C  C26  1  0.01250756  0.13758884  0.13144886  1  0.195163  0  -0.047258  -0.213503  0  3.991418  0
C  C27  1  0.98749169  0.86241383  0.86854783  1  0.195178  0  -0.04722  -0.213549  0  3.991401  0
C  C28  1  0.81118439  0.02395530  0.00946625  1  -0.028608  0  -0.069716  -0.080968  0  3.637552  0
C  C29  1  0.18881495  0.97604480  0.99053290  1  -0.028595  0  -0.069738  -0.081034  0  3.637619  0
C  C30  1  0.00322602  0.04796499  0.04441734  1  0.152739  0  0.008569  0.118517  0  3.802987  0
C  C31  1  0.99677180  0.95203563  0.95558132  1  0.152885  0  0.008517  0.118523  0  3.802934  0
C  C32  1  0.00903341  0.09638297  0.09086917  1  -0.503184  0  -0.02277  -0.030871  0  4.088396  0
C  C33  1  0.99096586  0.90361919  0.90912848  1  -0.50318  0  -0.022784  -0.030822  0  4.088381  0
C  C34  1  0.99481916  0.87589243  0.60319107  1  0.2157  0  0.001209  -0.132671  0  3.824449  0
C  C35  1  0.00517719  0.12410868  0.39681226  1  0.216132  0  0.00125  -0.132587  0  3.824338  0
C  C36  1  0.99674790  0.92363531  0.56338836  1  -0.26589  0  -0.006906  0.027903  0  4.256372  0
C  C37  1  0.00324685  0.07636989  0.43661431  1  -0.266858  0  -0.006951  0.027901  0  4.256351  0
C  C38  1  0.99892808  0.97589539  0.51992329  1  -0.112738  0  0.001327  -0.001526  0  4.189182  0
C  C39  1  0.00106971  0.02410878  0.48008175  1  0.078053  0  0.001407  -0.001518  0  4.189104  0
C  C40  1  0.50729383  0.39525888  0.11978178  1  0.018123  0  0.00294  -0.130186  0  3.821646  0
C  C41  1  0.49271148  0.60474072  0.88021597  1  0.017632  0  0.003001  -0.130019  0  3.821878  0
C  C42  1  0.50482070  0.43538550  0.07349777  1  -0.133847  0  -0.006971  0.02657  0  4.25443  0
C  C43  1  0.49518314  0.56461257  0.92649818  1  -0.134043  0  -0.007012  0.026479  0  4.254704  0
C  C44  1  0.50167027  0.47954380  0.02307463  1  -0.08632  0  0.00121  -0.001491  0  4.185587  0
C  C45  1  0.49833357  0.52045376  0.97692042  1  0.110412  0  0.0013  -0.001459  0  4.185599  0
C  C46  1  0.49938243  0.39269748  0.39346798  1  0.226486  0  0.001994  -0.135547  0  3.823731  0
C  C47  1  0.50061838  0.60730263  0.60652976  1  0.226533  0  0.001955  -0.135534  0  3.82366  0
C  C48  1  0.49946924  0.43407798  0.43444784  1  -0.342552  0  -0.004234  0.031513  0  4.251411  0
C  C49  1  0.50053753  0.56592265  0.56554892  1  -0.342312  0  -0.004165  0.031551  0  4.251401  0
C  C50  1  0.49977242  0.47925308  0.47933257  1  0.130464  0  0.003532  0.000712  0  4.174631  0
C  C51  1  0.50023587  0.52074653  0.52066470  1  -0.075053  0  0.003672  0.00087  0  4.174727  0
O  O52  1  0.33205009  0.32694341  0.32495352  1  -1.224184  0  -0.22233  -0.57469  0  2.280176  0
O  O53  1  0.66794925  0.67305618  0.67504565  1  -1.22423  0  -0.22236  -0.574738  0  2.28008  0
O  O54  1  0.67777401  0.33089841  0.19613744  1  -1.226918  0  -0.22393  -0.572957  0  2.284218  0
O  O55  1  0.32222834  0.66910067  0.80386175  1  -1.226971  0  -0.223927  -0.572904  0  2.284254  0
O  O56  1  0.84025043  0.20331110  0.20051700  1  -1.238306  0  -0.229515  -0.588326  0  2.284365  0
O  O57  1  0.15975189  0.79668901  0.79948214  1  -1.238301  0  -0.229554  -0.588395  0  2.284311  0
O  O58  1  0.67289810  0.32707086  0.32469294  1  -1.226918  0  -0.223319  -0.575304  0  2.278423  0
O  O59  1  0.32709978  0.67292771  0.67530723  1  -1.226918  0  -0.223296  -0.575287  0  2.278409  0
O  O60  1  0.83536435  0.19824236  0.32815950  1  -1.230993  0  -0.225316  -0.576725  0  2.282235  0
O  O61  1  0.16463647  0.80175825  0.67184009  1  -1.230976  0  -0.225355  -0.576777  0  2.28217  0
O  O62  1  0.33668217  0.33094072  0.19631906  1  -1.230914  0  -0.223762  -0.573374  0  2.28267  0
O  O63  1  0.66331866  0.66905888  0.80367870  1  -1.230921  0  -0.223767  -0.573385  0  2.282638  0
O  O64  1  0.50754080  0.22467853  0.26341218  1  -1.432367  0  -0.445731  -0.999538  0  2.200933  0
O  O65  1  0.49246005  0.77532055  0.73658702  1  -1.432358  0  -0.445774  -0.999562  0  2.200907  0
O  O66  1  0.17684984  0.19797149  0.32801507  1  -1.22386  0  -0.225049  -0.576453  0  2.283506  0
O  O67  1  0.82314802  0.80202759  0.67198367  1  -1.223873  0  -0.225035  -0.576451  0  2.283506  0
O  O68  1  0.18035928  0.20333547  0.20024234  1  -1.242219  0  -0.230079  -0.588738  0  2.282366  0
O  O69  1  0.81964302  0.79666516  0.79975631  1  -1.242215  0  -0.230012  -0.58875  0  2.282326  0
O  O70  1  0.00552843  0.30591205  0.26210868  1  -1.450248  0  -0.445476  -0.998306  0  2.194424  0
O  O71  1  0.99447242  0.69408755  0.73789096  1  -1.450961  0  -0.445443  -0.998241  0  2.194448  0
