# generated using pymatgen
data_Cd3H22C24(NCl)6
_symmetry_space_group_name_H-M   'P 1'
_cell_length_a   10.68969528
_cell_length_b   16.15346449
_cell_length_c   19.91821039
_cell_angle_alpha   89.99980471
_cell_angle_beta   91.93866222
_cell_angle_gamma   90.00058744
_symmetry_Int_Tables_number   1
_chemical_formula_structural   Cd3H22C24(NCl)6
_chemical_formula_sum   'Cd12 H88 C96 N24 Cl24'
_cell_volume   3437.42053861
_cell_formula_units_Z   4
loop_
 _symmetry_equiv_pos_site_id
 _symmetry_equiv_pos_as_xyz
  1  'x, y, z'
loop_
 _atom_site_type_symbol
 _atom_site_label
 _atom_site_symmetry_multiplicity
 _atom_site_fract_x
 _atom_site_fract_y
 _atom_site_fract_z
 _atom_site_occupancy
 _atom_site_pbe_bader_charge
 _atom_site_pbe_bader_spin_density
 _atom_site_pbe_cm5_charge
 _atom_site_pbe_ddec_charge
 _atom_site_pbe_ddec_spin_density
 _atom_site_pbe_ddec_sum_bond_order
 _atom_site_pbe_magmom
Cd  Cd0  1  0.36479159  0.54137231  0.04937246  1  1.125593  0  0.580358  0.734772  0  2.487819  0
Cd  Cd1  1  0.13521735  0.04136215  0.45062930  1  1.125498  0  0.580369  0.734745  0  2.487774  0
Cd  Cd2  1  0.63521381  0.45862932  0.95062902  1  1.125524  0  0.58036  0.734759  0  2.487809  0
Cd  Cd3  1  0.86477966  0.95863453  0.54936899  1  1.125451  0  0.580337  0.734654  0  2.487966  0
Cd  Cd4  1  0.30417156  0.77128930  0.07270564  1  1.082725  0  0.505793  0.774248  0  2.55185  0
Cd  Cd5  1  0.19582407  0.27128275  0.42729319  1  1.082542  0  0.505781  0.774222  0  2.551912  0
Cd  Cd6  1  0.69582545  0.22871172  0.92729316  1  1.082798  0  0.5058  0.774262  0  2.551853  0
Cd  Cd7  1  0.80417295  0.72871703  0.57270410  1  1.082493  0  0.505796  0.774245  0  2.551878  0
Cd  Cd8  1  0.39977345  0.94765404  0.18055096  1  1.131731  0  0.693977  0.681072  0  2.456532  0
Cd  Cd9  1  0.10023046  0.44765534  0.31945056  1  1.131614  0  0.693974  0.681052  0  2.45661  0
Cd  Cd10  1  0.60021980  0.05234326  0.81944926  1  1.131795  0  0.694019  0.68114  0  2.456482  0
Cd  Cd11  1  0.89977029  0.55234877  0.68054831  1  1.131704  0  0.693942  0.681008  0  2.456736  0
H  H12  1  0.39221483  0.46978376  0.18219423  1  0.438081  0  0.303604  0.267299  0  0.925418  0
H  H13  1  0.10779315  0.96977185  0.31780882  1  0.438141  0  0.30365  0.267373  0  0.925239  0
H  H14  1  0.60778965  0.53021911  0.81780723  1  0.438125  0  0.303604  0.267263  0  0.925368  0
H  H15  1  0.89220851  0.03022298  0.68219309  1  0.438158  0  0.303609  0.267362  0  0.925191  0
H  H16  1  0.01253808  0.57132423  0.43988674  1  0.14247  0  0.103714  0.087859  0  1.022982  0
H  H17  1  0.48745263  0.07133050  0.06011154  1  0.142534  0  0.103702  0.087864  0  1.023119  0
H  H18  1  0.98744583  0.42867554  0.56011178  1  0.141775  0  0.103682  0.087837  0  1.022992  0
H  H19  1  0.51254906  0.92865875  0.93988685  1  0.143154  0  0.103713  0.087904  0  1.023066  0
H  H20  1  0.99853285  0.72337108  0.46237944  1  0.071672  0  0.096386  0.108367  0  1.031115  0
H  H21  1  0.50146005  0.22337971  0.03762301  1  0.07169  0  0.096339  0.108344  0  1.031004  0
H  H22  1  0.00145100  0.27662993  0.53762410  1  0.071693  0  0.096342  0.108296  0  1.031171  0
H  H23  1  0.49854255  0.77660892  0.96237841  1  0.071369  0  0.096351  0.108402  0  1.030945  0
H  H24  1  0.99857858  0.82157561  0.36521046  1  0.09178  0  0.090737  0.10334  0  1.035783  0
H  H25  1  0.50141954  0.32157826  0.13479384  1  0.091895  0  0.090748  0.103324  0  1.035735  0
H  H26  1  0.00142027  0.17842107  0.63479138  1  0.091754  0  0.090764  0.103426  0  1.035652  0
H  H27  1  0.49858496  0.67841285  0.86520411  1  0.091897  0  0.090727  0.103353  0  1.035724  0
H  H28  1  0.02188822  0.76328535  0.24844198  1  0.079564  0  0.097765  0.11896  0  1.015608  0
H  H29  1  0.47811193  0.26328641  0.25156149  1  0.079461  0  0.09775  0.118915  0  1.01554  0
H  H30  1  0.97811344  0.23671629  0.75156043  1  0.079586  0  0.097762  0.118991  0  1.015556  0
H  H31  1  0.52189164  0.73671027  0.74843694  1  0.079378  0  0.097793  0.118911  0  1.01557  0
H  H32  1  0.94021357  0.57440030  0.20071173  1  0.076912  0  0.118362  0.114683  0  0.947689  0
H  H33  1  0.55978457  0.07440079  0.29928824  1  0.076928  0  0.118361  0.114686  0  0.947699  0
H  H34  1  0.05979092  0.42560629  0.79928722  1  0.077394  0  0.118326  0.114631  0  0.947644  0
H  H35  1  0.44020957  0.92559960  0.70071652  1  0.076872  0  0.118354  0.114663  0  0.947654  0
H  H36  1  0.05556430  0.64736497  0.17758561  1  0.082219  0  0.100645  0.09607  0  1.012589  0
H  H37  1  0.44443597  0.14735869  0.32241567  1  0.08128  0  0.100673  0.096093  0  1.012648  0
H  H38  1  0.94443830  0.35263914  0.82241531  1  0.081318  0  0.100636  0.096015  0  1.012574  0
H  H39  1  0.55556479  0.85263922  0.67758320  1  0.082233  0  0.100646  0.096048  0  1.01264  0
H  H40  1  0.33018434  0.47170338  0.42216024  1  0.116894  0  0.104099  0.081117  0  1.038781  0
H  H41  1  0.16981807  0.97170528  0.07784069  1  0.116871  0  0.104111  0.081098  0  1.038859  0
H  H42  1  0.66981547  0.52829764  0.57783912  1  0.116862  0  0.104103  0.081116  0  1.03883  0
H  H43  1  0.83018083  0.02830007  0.92215564  1  0.116819  0  0.104123  0.081113  0  1.038888  0
H  H44  1  0.51411461  0.56837177  0.44094444  1  0.139341  0  0.099012  0.123928  0  1.027251  0
H  H45  1  0.98589746  0.06837804  0.05905785  1  0.139345  0  0.098962  0.123831  0  1.027218  0
H  H46  1  0.48589083  0.43162367  0.55905403  1  0.139329  0  0.09898  0.123896  0  1.027242  0
H  H47  1  0.01410606  0.93163288  0.94094510  1  0.139302  0  0.09898  0.123891  0  1.027324  0
H  H48  1  0.57031144  0.66412375  0.34944621  1  0.086653  0  0.101998  0.103702  0  1.020711  0
H  H49  1  0.92970675  0.16412739  0.15055744  1  0.086795  0  0.102  0.103571  0  1.020803  0
H  H50  1  0.42969491  0.33587355  0.65055379  1  0.086684  0  0.101989  0.103624  0  1.020774  0
H  H51  1  0.07029301  0.83587734  0.84944643  1  0.086862  0  0.10199  0.103619  0  1.020743  0
H  H52  1  0.44523082  0.65911720  0.23882959  1  0.098661  0  0.096989  0.117678  0  1.039179  0
H  H53  1  0.05478177  0.15911411  0.26117443  1  0.098699  0  0.096949  0.117714  0  1.039152  0
H  H54  1  0.55477272  0.34088195  0.76117135  1  0.098661  0  0.096963  0.117659  0  1.039217  0
H  H55  1  0.94521517  0.84088443  0.73883089  1  0.098767  0  0.096996  0.117754  0  1.039102  0
H  H56  1  0.25920724  0.61554338  0.18077219  1  0.123613  0  0.101963  0.050644  0  1.028331  0
H  H57  1  0.24079627  0.11553388  0.31923025  1  0.123508  0  0.1019  0.050588  0  1.028434  0
H  H58  1  0.74079539  0.38446135  0.81922672  1  0.12359  0  0.101936  0.050561  0  1.028422  0
H  H59  1  0.75920162  0.88446528  0.68077308  1  0.12362  0  0.101908  0.050581  0  1.028489  0
H  H60  1  0.88360400  0.31375487  0.30490011  1  0.136993  0  0.10751  0.083909  0  1.020606  0
H  H61  1  0.61639125  0.81375529  0.19509963  1  0.137001  0  0.107513  0.083935  0  1.020648  0
H  H62  1  0.11638924  0.68625667  0.69510112  1  0.13733  0  0.107494  0.083897  0  1.020583  0
H  H63  1  0.38360950  0.18624634  0.80490025  1  0.137005  0  0.107525  0.083907  0  1.02056  0
H  H64  1  0.73780478  0.25110051  0.21615149  1  0.101171  0  0.105721  0.112212  0  1.007247  0
H  H65  1  0.76219609  0.75109784  0.28384554  1  0.101158  0  0.105798  0.112314  0  1.007403  0
H  H66  1  0.26219876  0.74890607  0.78384996  1  0.101001  0  0.105769  0.112317  0  1.007365  0
H  H67  1  0.23780094  0.24890256  0.71615175  1  0.101111  0  0.105792  0.112298  0  1.007302  0
H  H68  1  0.75699824  0.29816132  0.09619341  1  0.144539  0  0.099608  0.104838  0  1.023453  0
H  H69  1  0.74300897  0.79815987  0.40380261  1  0.144491  0  0.099624  0.10484  0  1.023423  0
H  H70  1  0.24301279  0.70183660  0.90380719  1  0.144424  0  0.099641  0.104824  0  1.023577  0
H  H71  1  0.25698617  0.20183619  0.59619564  1  0.144456  0  0.099612  0.104763  0  1.023593  0
H  H72  1  0.91627471  0.40402342  0.07003171  1  0.161068  0  0.097093  0.124068  0  1.029536  0
H  H73  1  0.58373316  0.90401768  0.42996604  1  0.161099  0  0.097097  0.123996  0  1.029679  0
H  H74  1  0.08373167  0.59597635  0.92996578  1  0.161099  0  0.097099  0.124049  0  1.02959  0
H  H75  1  0.41625915  0.09597653  0.57003417  1  0.161005  0  0.09713  0.124104  0  1.029576  0
H  H76  1  0.07289216  0.50164225  0.10977718  1  0.068294  0  0.105716  0.08323  0  0.98652  0
H  H77  1  0.42711802  0.00163805  0.39022673  1  0.068682  0  0.105731  0.083315  0  0.986402  0
H  H78  1  0.92711045  0.49835938  0.89022274  1  0.068758  0  0.105748  0.083299  0  0.98649  0
H  H79  1  0.57288551  0.99835987  0.60977471  1  0.068679  0  0.10572  0.083321  0  0.986459  0
H  H80  1  0.22450100  0.37864730  0.19649264  1  0.092616  0  0.097896  0.071917  0  1.025367  0
H  H81  1  0.27550748  0.87863906  0.30350867  1  0.092477  0  0.097945  0.071955  0  1.025236  0
H  H82  1  0.77550067  0.62135619  0.80350775  1  0.092535  0  0.097893  0.071875  0  1.0254  0
H  H83  1  0.72449421  0.12135701  0.69649023  1  0.092597  0  0.097953  0.071996  0  1.02528  0
H  H84  1  0.15642752  0.26179734  0.13322947  1  0.094942  0  0.104403  0.11455  0  1.015099  0
H  H85  1  0.34357917  0.76178930  0.36677163  1  0.094897  0  0.104487  0.114655  0  1.014969  0
H  H86  1  0.84357319  0.73820801  0.86677292  1  0.094851  0  0.104397  0.114537  0  1.015136  0
H  H87  1  0.65641973  0.23820738  0.63322520  1  0.094887  0  0.104399  0.114527  0  1.015132  0
H  H88  1  0.14052627  0.18853274  0.02215396  1  0.105828  0  0.110398  0.105518  0  0.995231  0
H  H89  1  0.35948025  0.68851753  0.47784583  1  0.105485  0  0.110382  0.105478  0  0.995238  0
H  H90  1  0.85947632  0.81147137  0.97784846  1  0.10573  0  0.110431  0.105544  0  0.995159  0
H  H91  1  0.64051676  0.31147667  0.52215246  1  0.105603  0  0.110419  0.105549  0  0.995177  0
H  H92  1  0.20640573  0.26479769  0.91885627  1  0.050335  0  0.111451  0.118763  0  0.976673  0
H  H93  1  0.29360170  0.76478184  0.58114506  1  0.050158  0  0.111426  0.118596  0  0.976712  0
H  H94  1  0.79360152  0.73520395  0.08114776  1  0.050236  0  0.111427  0.118661  0  0.976638  0
H  H95  1  0.70639533  0.23521360  0.41885223  1  0.050175  0  0.111421  0.118569  0  0.976673  0
H  H96  1  0.28396166  0.41109781  0.93179437  1  0.114452  0  0.100062  0.082443  0  1.029664  0
H  H97  1  0.21605175  0.91108087  0.56820717  1  0.114918  0  0.100076  0.082435  0  1.029554  0
H  H98  1  0.71604561  0.58890197  0.06820815  1  0.114639  0  0.100049  0.082419  0  1.02969  0
H  H99  1  0.78394715  0.08891271  0.43178965  1  0.114678  0  0.100085  0.082462  0  1.029642  0
C  C100  1  0.01427167  0.61618776  0.39897565  1  0.456476  0  0.047923  0.1085  0  3.928321  0
C  C101  1  0.48571878  0.11619261  0.10102350  1  0.456544  0  0.047854  0.108448  0  3.928327  0
C  C102  1  0.98571130  0.38381449  0.60102234  1  0.45688  0  0.047942  0.108585  0  3.927992  0
C  C103  1  0.51428102  0.88379726  0.89897736  1  0.455649  0  0.047757  0.108334  0  3.928455  0
C  C104  1  0.00528438  0.70091566  0.41110319  1  0.028496  0  -0.084938  -0.116774  0  3.954731  0
C  C105  1  0.49470827  0.20092062  0.08889979  1  0.028738  0  -0.084841  -0.116784  0  3.954741  0
C  C106  1  0.99470698  0.29908721  0.58889950  1  0.028916  0  -0.084913  -0.116801  0  3.954611  0
C  C107  1  0.50529619  0.79906987  0.91110368  1  0.028587  0  -0.084756  -0.116712  0  3.954534  0
C  C108  1  0.00682470  0.75506949  0.35676794  1  -0.033425  0  -0.072193  -0.022046  0  3.961287  0
C  C109  1  0.49317719  0.25507112  0.14323609  1  -0.034146  0  -0.07217  -0.021932  0  3.961071  0
C  C110  1  0.99316857  0.24492905  0.64323078  1  -0.033741  0  -0.072103  -0.021928  0  3.961066  0
C  C111  1  0.50682918  0.74492061  0.85676340  1  -0.032891  0  -0.072205  -0.022152  0  3.961131  0
C  C112  1  0.01744024  0.72292176  0.29215760  1  -0.048817  0  -0.092073  -0.180947  0  3.957752  0
C  C113  1  0.48256396  0.22292180  0.20784707  1  -0.048508  0  -0.09205  -0.180907  0  3.957596  0
C  C114  1  0.98256425  0.27708111  0.70784185  1  -0.048705  0  -0.09209  -0.181128  0  3.957622  0
C  C115  1  0.51744428  0.77707488  0.79215247  1  -0.048776  0  -0.092044  -0.180852  0  3.957948  0
C  C116  1  0.02680136  0.63745346  0.28397008  1  0.511286  0  0.111433  0.229001  0  3.962303  0
C  C117  1  0.47319407  0.13745464  0.21603163  1  0.511182  0  0.111507  0.2291  0  3.96235  0
C  C118  1  0.97319287  0.36254941  0.71602664  1  0.511299  0  0.111515  0.229279  0  3.962103  0
C  C119  1  0.52681042  0.86254204  0.78396783  1  0.511008  0  0.111374  0.228974  0  3.962616  0
C  C120  1  0.03332605  0.59947725  0.21479868  1  0.252288  0  -0.059825  -0.1389  0  3.908904  0
C  C121  1  0.46667538  0.09947810  0.28520025  1  0.253198  0  -0.059913  -0.139022  0  3.909135  0
C  C122  1  0.96667846  0.40052562  0.78519927  1  0.252822  0  -0.059865  -0.138959  0  3.908597  0
C  C123  1  0.53331974  0.90051920  0.71479951  1  0.252315  0  -0.059854  -0.138857  0  3.908919  0
C  C124  1  0.35974790  0.51423623  0.38296026  1  0.430675  0  0.047005  0.099292  0  3.929544  0
C  C125  1  0.14025783  0.01423495  0.11704051  1  0.430967  0  0.0471  0.099448  0  3.929355  0
C  C126  1  0.64025286  0.48576416  0.61703862  1  0.430934  0  0.046984  0.099297  0  3.929579  0
C  C127  1  0.85974573  0.98576792  0.88295843  1  0.430775  0  0.047029  0.099366  0  3.929409  0
C  C128  1  0.46087201  0.56748767  0.39331453  1  -0.01048  0  -0.080767  -0.119467  0  3.940233  0
C  C129  1  0.03913733  0.06749255  0.10668767  1  -0.010564  0  -0.080767  -0.119385  0  3.939883  0
C  C130  1  0.53912968  0.43251087  0.60668487  1  -0.010605  0  -0.080779  -0.119469  0  3.940069  0
C  C131  1  0.96086901  0.93251589  0.89331383  1  -0.010383  0  -0.080565  -0.119165  0  3.939928  0
C  C132  1  0.49285451  0.62092844  0.34159291  1  -0.024602  0  -0.063633  -0.010457  0  3.936471  0
C  C133  1  0.00716126  0.12093040  0.15840928  1  -0.024653  0  -0.063675  -0.010394  0  3.936751  0
C  C134  1  0.50715279  0.37906824  0.65840660  1  -0.024705  0  -0.063656  -0.010446  0  3.936576  0
C  C135  1  0.99283666  0.87907309  0.84159255  1  -0.02487  0  -0.063794  -0.010634  0  3.93689  0
C  C136  1  0.42410911  0.61855423  0.28078806  1  0.002849  0  -0.084157  -0.162829  0  3.925546  0
C  C137  1  0.07590382  0.11855269  0.21921357  1  0.002769  0  -0.084139  -0.16291  0  3.925579  0
C  C138  1  0.57589163  0.38144617  0.71921232  1  0.00297  0  -0.084069  -0.162702  0  3.925629  0
C  C139  1  0.92409313  0.88144646  0.78079075  1  0.002904  0  -0.084248  -0.162972  0  3.925544  0
C  C140  1  0.32476933  0.56261915  0.27385278  1  0.48233  0  0.114228  0.173883  0  3.923807  0
C  C141  1  0.17523807  0.06261703  0.22614839  1  0.481557  0  0.114286  0.174058  0  3.923504  0
C  C142  1  0.67522953  0.43738248  0.72614756  1  0.481503  0  0.11425  0.173884  0  3.923641  0
C  C143  1  0.82476079  0.93738275  0.77385295  1  0.481484  0  0.114309  0.174073  0  3.92359  0
C  C144  1  0.25360180  0.55520454  0.20641789  1  0.555262  0  0.099335  0.139983  0  3.809564  0
C  C145  1  0.24640077  0.05519519  0.29358621  1  0.555173  0  0.099533  0.140064  0  3.809725  0
C  C146  1  0.74639892  0.44480142  0.79358400  1  0.555157  0  0.099528  0.140239  0  3.80933  0
C  C147  1  0.75359807  0.94480273  0.70641614  1  0.555329  0  0.099485  0.139984  0  3.809866  0
C  C148  1  0.88651869  0.33144222  0.25201119  1  0.440382  0  0.047442  0.100383  0  3.944617  0
C  C149  1  0.61348246  0.83143745  0.24798662  1  0.439894  0  0.047398  0.100301  0  3.944629  0
C  C150  1  0.11347828  0.66856746  0.74799112  1  0.439896  0  0.047507  0.100481  0  3.944629  0
C  C151  1  0.38651737  0.16856171  0.75201073  1  0.440306  0  0.04746  0.100497  0  3.944427  0
C  C152  1  0.80669449  0.29736391  0.20269552  1  -0.072343  0  -0.083315  -0.131544  0  3.962734  0
C  C153  1  0.69331460  0.79735948  0.29729954  1  -0.072278  0  -0.083422  -0.131678  0  3.962703  0
C  C154  1  0.19330999  0.70264081  0.79730594  1  -0.072259  0  -0.083454  -0.131807  0  3.963039  0
C  C155  1  0.30668337  0.20263659  0.70269677  1  -0.072296  0  -0.083418  -0.131742  0  3.962822  0
C  C156  1  0.81660664  0.32376647  0.13640545  1  -0.002546  0  -0.060715  0.003758  0  3.93949  0
C  C157  1  0.68340472  0.82376293  0.36358908  1  -0.002678  0  -0.060728  0.003736  0  3.939155  0
C  C158  1  0.18339969  0.67623454  0.86359756  1  -0.002671  0  -0.060754  0.003811  0  3.939587  0
C  C159  1  0.31659699  0.17623809  0.63640730  1  -0.002633  0  -0.06074  0.003821  0  3.939408  0
C  C160  1  0.90658137  0.38292564  0.12158790  1  -0.042612  0  -0.082494  -0.162434  0  3.926742  0
C  C161  1  0.59342899  0.88292018  0.37840996  1  -0.042449  0  -0.082493  -0.162173  0  3.926591  0
C  C162  1  0.09342032  0.61707723  0.87841100  1  -0.042579  0  -0.082485  -0.162392  0  3.927035  0
C  C163  1  0.40656522  0.11707527  0.62158727  1  -0.042447  0  -0.082496  -0.162323  0  3.92669  0
C  C164  1  0.98462676  0.41321899  0.17330258  1  0.440111  0  0.115466  0.189673  0  3.968872  0
C  C165  1  0.51538031  0.91321569  0.32669663  1  0.440156  0  0.115435  0.1895  0  3.969028  0
C  C166  1  0.01537304  0.58678698  0.82669828  1  0.440137  0  0.115397  0.189622  0  3.969227  0
C  C167  1  0.48462046  0.08678594  0.67330124  1  0.440058  0  0.11547  0.189634  0  3.969051  0
C  C168  1  0.09209607  0.47034800  0.15833054  1  0.328536  0  0.01477  -0.011331  0  3.848698  0
C  C169  1  0.40791006  0.97034483  0.34167147  1  0.328323  0  0.014707  -0.01159  0  3.848887  0
C  C170  1  0.90790654  0.52965611  0.84166988  1  0.328081  0  0.014743  -0.011527  0  3.848794  0
C  C171  1  0.59208413  0.02965371  0.65832877  1  0.328277  0  0.014737  -0.011616  0  3.848864  0
C  C172  1  0.21712898  0.42277659  0.15430020  1  0.284927  0  0.011684  0.029324  0  3.837707  0
C  C173  1  0.28287830  0.92276761  0.34570147  1  0.284558  0  0.011593  0.029172  0  3.837375  0
C  C174  1  0.78287175  0.57722752  0.84570069  1  0.284623  0  0.011682  0.029363  0  3.837609  0
C  C175  1  0.71711592  0.07723155  0.65429626  1  0.284608  0  0.011548  0.029148  0  3.837413  0
C  C176  1  0.22246027  0.37487804  0.08934054  1  0.536361  0  0.117553  0.198974  0  3.953204  0
C  C177  1  0.27754436  0.87486689  0.41066471  1  0.536711  0  0.117589  0.19915  0  3.95266  0
C  C178  1  0.77754231  0.62512606  0.91066289  1  0.536702  0  0.117578  0.199006  0  3.953321  0
C  C179  1  0.72245357  0.12512855  0.58933511  1  0.536301  0  0.117593  0.19915  0  3.952948  0
C  C180  1  0.18154890  0.29288745  0.08699791  1  -0.062286  0  -0.082338  -0.166166  0  3.947279  0
C  C181  1  0.31845169  0.79287223  0.41300548  1  -0.061638  0  -0.082688  -0.166693  0  3.946955  0
C  C182  1  0.81845555  0.70711914  0.91300556  1  -0.062095  0  -0.082456  -0.166245  0  3.947206  0
C  C183  1  0.68153689  0.20712012  0.58699314  1  -0.061442  0  -0.082501  -0.166345  0  3.94704  0
C  C184  1  0.17364671  0.25227831  0.02520652  1  -0.049355  0  -0.057173  -0.00267  0  3.944902  0
C  C185  1  0.32635979  0.75226288  0.47479912  1  -0.050404  0  -0.057015  -0.002481  0  3.944739  0
C  C186  1  0.82635866  0.74772518  0.97479848  1  -0.049467  0  -0.057164  -0.002726  0  3.944771  0
C  C187  1  0.67363160  0.24772885  0.52520006  1  -0.050391  0  -0.057096  -0.002744  0  3.944821  0
C  C188  1  0.20883847  0.29453239  0.96792066  1  0.068996  0  -0.078283  -0.114348  0  3.958247  0
C  C189  1  0.29118252  0.79452045  0.53208087  1  0.069361  0  -0.078137  -0.113952  0  3.957955  0
C  C190  1  0.79117068  0.70546801  0.03208091  1  0.069157  0  -0.07823  -0.114137  0  3.958035  0
C  C191  1  0.70881916  0.20547561  0.46791902  1  0.069601  0  -0.078136  -0.113841  0  3.957987  0
C  C192  1  0.25130080  0.37574482  0.97444801  1  0.455786  0  0.044797  0.106314  0  3.947623  0
C  C193  1  0.24871766  0.87573200  0.52555625  1  0.455408  0  0.044778  0.106354  0  3.947222  0
C  C194  1  0.74870646  0.62425620  0.02555602  1  0.455256  0  0.044816  0.106388  0  3.947338  0
C  C195  1  0.75128496  0.12426406  0.47444316  1  0.455109  0  0.044773  0.106303  0  3.947312  0
N  N196  1  0.02512942  0.58540816  0.33679186  1  -1.244736  0  -0.333411  -0.283103  0  3.473016  0
N  N197  1  0.47486802  0.08541019  0.16320954  1  -1.244589  0  -0.33345  -0.283169  0  3.472826  0
N  N198  1  0.97486665  0.41459905  0.66320692  1  -1.244733  0  -0.333499  -0.283295  0  3.472911  0
N  N199  1  0.52513270  0.91458215  0.83679185  1  -1.244632  0  -0.333344  -0.282994  0  3.472862  0
N  N200  1  0.29328232  0.51244209  0.32444616  1  -1.241761  0  -0.334739  -0.2589  0  3.534929  0
N  N201  1  0.20671870  0.01243791  0.17555501  1  -1.241183  0  -0.334786  -0.259081  0  3.535073  0
N  N202  1  0.70671469  0.48756140  0.67555314  1  -1.241085  0  -0.334734  -0.258947  0  3.53486  0
N  N203  1  0.79328111  0.98756186  0.82444484  1  -1.241193  0  -0.334793  -0.259099  0  3.535103  0
N  N204  1  0.12183135  0.53009802  0.21202440  1  -1.029468  0  -0.325305  -0.161009  0  3.469098  0
N  N205  1  0.37817275  0.03009639  0.28797679  1  -1.029481  0  -0.325266  -0.160866  0  3.469085  0
N  N206  1  0.87817221  0.46990609  0.78797504  1  -1.029502  0  -0.325286  -0.160878  0  3.468825  0
N  N207  1  0.62182143  0.96990091  0.71202445  1  -1.029464  0  -0.325236  -0.160926  0  3.46916  0
N  N208  1  0.30854968  0.49070721  0.16251049  1  -1.037572  0  -0.460474  -0.376677  0  3.348034  0
N  N209  1  0.19145860  0.99069454  0.33749351  1  -1.037347  0  -0.460571  -0.376695  0  3.347895  0
N  N210  1  0.69145478  0.50929938  0.83749197  1  -1.037315  0  -0.460566  -0.376709  0  3.348027  0
N  N211  1  0.80854214  0.00930338  0.66250586  1  -1.037509  0  -0.46058  -0.376709  0  3.347648  0
N  N212  1  0.97339051  0.38798522  0.23722415  1  -1.241047  0  -0.337492  -0.26337  0  3.531243  0
N  N213  1  0.52661335  0.88798103  0.26277607  1  -1.240819  0  -0.337401  -0.263233  0  3.531325  0
N  N214  1  0.02660273  0.61202261  0.76277658  1  -1.240742  0  -0.33743  -0.263315  0  3.531179  0
N  N215  1  0.47338461  0.11201442  0.73722174  1  -1.24104  0  -0.337497  -0.263368  0  3.53117  0
N  N216  1  0.25707136  0.41500589  0.03385265  1  -1.238378  0  -0.331749  -0.269295  0  3.504358  0
N  N217  1  0.24293764  0.91499613  0.46615158  1  -1.237961  0  -0.331769  -0.269401  0  3.504401  0
N  N218  1  0.74293591  0.58499450  0.96614987  1  -1.238133  0  -0.331744  -0.269355  0  3.504333  0
N  N219  1  0.75706404  0.08499931  0.53384832  1  -1.237685  0  -0.331773  -0.269417  0  3.504321  0
Cl  Cl220  1  0.57589478  0.45101403  0.07552546  1  -0.651093  0  -0.312238  -0.497941  0  1.252858  0
Cl  Cl221  1  0.92410069  0.95101496  0.42447340  1  -0.651008  0  -0.312224  -0.497923  0  1.252906  0
Cl  Cl222  1  0.42410969  0.54898637  0.92447550  1  -0.651117  0  -0.312239  -0.497933  0  1.252846  0
Cl  Cl223  1  0.07589166  0.04898482  0.57552278  1  -0.651136  0  -0.312241  -0.497935  0  1.252872  0
Cl  Cl224  1  0.48248426  0.66923310  0.10041836  1  -0.616487  0  -0.296382  -0.473131  0  1.358719  0
Cl  Cl225  1  0.01752200  0.16922669  0.39957897  1  -0.616331  0  -0.296377  -0.473097  0  1.358674  0
Cl  Cl226  1  0.51751932  0.33076915  0.89957856  1  -0.616544  0  -0.296361  -0.473088  0  1.358692  0
Cl  Cl227  1  0.98247595  0.83077247  0.60041985  1  -0.616357  0  -0.296387  -0.473096  0  1.358695  0
Cl  Cl228  1  0.16381454  0.63607082  0.04922722  1  -0.653225  0  -0.303038  -0.491947  0  1.278453  0
Cl  Cl229  1  0.33618932  0.13606760  0.45077216  1  -0.653169  0  -0.303049  -0.491962  0  1.278421  0
Cl  Cl230  1  0.83618715  0.36392834  0.95077168  1  -0.653162  0  -0.303038  -0.491938  0  1.278451  0
Cl  Cl231  1  0.66380675  0.86393094  0.54922661  1  -0.653087  0  -0.303036  -0.49192  0  1.278469  0
Cl  Cl232  1  0.49577329  0.88847408  0.07893429  1  -0.626852  0  -0.312631  -0.476756  0  1.246999  0
Cl  Cl233  1  0.00422601  0.38846997  0.42106379  1  -0.626816  0  -0.312608  -0.476732  0  1.247018  0
Cl  Cl234  1  0.50422280  0.11152693  0.92106298  1  -0.626841  0  -0.312633  -0.476769  0  1.247013  0
Cl  Cl235  1  0.99577472  0.61153352  0.57893759  1  -0.626825  0  -0.312608  -0.476732  0  1.24706  0
Cl  Cl236  1  0.24484231  0.80590742  0.19178816  1  -0.659673  0  -0.32511  -0.517529  0  1.239352  0
Cl  Cl237  1  0.25515853  0.30591168  0.30821069  1  -0.659693  0  -0.325119  -0.517544  0  1.239326  0
Cl  Cl238  1  0.75515005  0.19409421  0.80820753  1  -0.659699  0  -0.325161  -0.5176  0  1.239345  0
Cl  Cl239  1  0.74484222  0.69408995  0.69178869  1  -0.659685  0  -0.325124  -0.517559  0  1.239346  0
Cl  Cl240  1  0.20451063  0.85122531  0.98160471  1  -0.646042  0  -0.352441  -0.534676  0  1.137178  0
Cl  Cl241  1  0.29548881  0.35122302  0.51839118  1  -0.646003  0  -0.352429  -0.534668  0  1.137221  0
Cl  Cl242  1  0.79548827  0.14877447  0.01839211  1  -0.646047  0  -0.35244  -0.534681  0  1.13719  0
Cl  Cl243  1  0.70450914  0.64877614  0.48160763  1  -0.646018  0  -0.352417  -0.534674  0  1.137268  0
