# generated using pymatgen
data_Cu3H7C9(IN)3
_symmetry_space_group_name_H-M   'P 1'
_cell_length_a   8.29025047
_cell_length_b   8.54166346
_cell_length_c   19.77640673
_cell_angle_alpha   90.00056641
_cell_angle_beta   89.99959714
_cell_angle_gamma   100.70016929
_symmetry_Int_Tables_number   1
_chemical_formula_structural   Cu3H7C9(IN)3
_chemical_formula_sum   'Cu12 H28 C36 I12 N12'
_cell_volume   1376.06727478
_cell_formula_units_Z   4
loop_
 _symmetry_equiv_pos_site_id
 _symmetry_equiv_pos_as_xyz
  1  'x, y, z'
loop_
 _atom_site_type_symbol
 _atom_site_label
 _atom_site_symmetry_multiplicity
 _atom_site_fract_x
 _atom_site_fract_y
 _atom_site_fract_z
 _atom_site_occupancy
 _atom_site_hle17_bader_spin_density
 _atom_site_hle17_ddec_charge
 _atom_site_hle17_ddec_spin_density
 _atom_site_hle17_ddec_sum_bond_order
 _atom_site_hle17_magmom
 _atom_site_hse06_10hf_bader_charge
 _atom_site_hse06_10hf_bader_spin_density
 _atom_site_hse06_10hf_ddec_charge
 _atom_site_hse06_10hf_ddec_spin_density
 _atom_site_hse06_10hf_ddec_sum_bond_order
 _atom_site_hse06_10hf_magmom
 _atom_site_hse06_bader_spin_density
 _atom_site_hse06_ddec_charge
 _atom_site_hse06_ddec_spin_density
 _atom_site_hse06_ddec_sum_bond_order
 _atom_site_hse06_magmom
 _atom_site_pbe_bader_spin_density
 _atom_site_pbe_cm5_charge
 _atom_site_pbe_ddec_charge
 _atom_site_pbe_ddec_spin_density
 _atom_site_pbe_ddec_sum_bond_order
 _atom_site_pbe_magmom
Cu  Cu0  1  0.92214258  0.12461359  0.46726478  1  0  0.255455  0  2.099234  0  0.429754  0  0.175665  0  2.562871  0  0  0.184676  0  2.514614  0  0  0.246984  0.172778  0  2.593216  0
Cu  Cu1  1  0.57785847  0.87538815  0.96726724  1  0  0.255463  0  2.099189  0  0.429768  0  0.175664  0  2.562856  0  0  0.184668  0  2.514594  0  0  0.24698  0.172772  0  2.593204  0
Cu  Cu2  1  0.07785886  0.87538700  0.53273455  1  0  0.255509  0  2.099303  0  0.429763  0  0.175735  0  2.562939  0  0  0.184737  0  2.514689  0  0  0.247015  0.172848  0  2.593287  0
Cu  Cu3  1  0.42214495  0.12461007  0.03273259  1  0  0.255404  0  2.099319  0  0.429754  0  0.175604  0  2.562989  0  0  0.184602  0  2.51473  0  0  0.246957  0.17271  0  2.593338  0
Cu  Cu4  1  0.77317284  0.87812225  0.62732705  1  0  0.252914  0  2.124777  0  0.417294  0  0.168683  0  2.601773  0  0  0.18191  0  2.545984  0  0  0.245793  0.162684  0  2.637341  0
Cu  Cu5  1  0.72683179  0.12187494  0.12732515  1  0  0.252978  0  2.124772  0  0.417035  0  0.168738  0  2.60176  0  0  0.181961  0  2.545932  0  0  0.245806  0.162737  0  2.637326  0
Cu  Cu6  1  0.22682739  0.12187833  0.37267329  1  0  0.252887  0  2.124796  0  0.417293  0  0.168697  0  2.601793  0  0  0.181907  0  2.545981  0  0  0.245791  0.162703  0  2.637361  0
Cu  Cu7  1  0.27316877  0.87812088  0.87267418  1  0  0.25292  0  2.124801  0  0.417164  0  0.168712  0  2.601807  0  0  0.181904  0  2.546012  0  0  0.245793  0.162714  0  2.637371  0
Cu  Cu8  1  0.09126237  0.27257108  0.28387912  1  0  0.264523  0  2.17578  0  0.413219  0  0.190486  0  2.646859  0  0  0.198927  0  2.598173  0  0  0.250115  0.188  0  2.677405  0
Cu  Cu9  1  0.40873779  0.72742872  0.78388148  1  0  0.264504  0  2.175777  0  0.413278  0  0.190453  0  2.646838  0  0  0.198909  0  2.598131  0  0  0.250094  0.187969  0  2.677375  0
Cu  Cu10  1  0.90873698  0.72742473  0.71612020  1  0  0.264479  0  2.175847  0  0.413269  0  0.190444  0  2.646918  0  0  0.198899  0  2.598159  0  0  0.250108  0.187962  0  2.677454  0
Cu  Cu11  1  0.59126542  0.27256831  0.21612037  1  0  0.264485  0  2.175757  0  0.413261  0  0.190438  0  2.646837  0  0  0.198868  0  2.598118  0  0  0.250085  0.187949  0  2.677379  0
H  H12  1  0.24976798  0.64563496  0.65490766  1  0  0.06072  0  1.005462  0  0.108005  0  0.065851  0  1.081824  0  0  0.068795  0  1.078771  0  0  0.08818  0.063426  0  1.084396  0
H  H13  1  0.25023438  0.35437173  0.15490417  1  0  0.060781  0  1.005549  0  0.107832  0  0.065915  0  1.08184  0  0  0.06886  0  1.078786  0  0  0.088196  0.063492  0  1.08441  0
H  H14  1  0.75023555  0.35437040  0.34509470  1  0  0.060731  0  1.005486  0  0.108093  0  0.065843  0  1.081821  0  0  0.06879  0  1.078764  0  0  0.088188  0.063417  0  1.084393  0
H  H15  1  0.74976937  0.64563482  0.84509617  1  0  0.060785  0  1.005396  0  0.107777  0  0.065902  0  1.081745  0  0  0.068847  0  1.078691  0  0  0.088176  0.063475  0  1.084314  0
H  H16  1  0.29534032  0.48519952  0.55486834  1  0  0.104473  0  0.962987  0  0.090099  0  0.112771  0  1.029237  0  0  0.115192  0  1.029659  0  0  0.095964  0.110957  0  1.029248  0
H  H17  1  0.20466496  0.51480753  0.05486719  1  0  0.104442  0  0.963015  0  0.090228  0  0.112748  0  1.029277  0  0  0.115168  0  1.029701  0  0  0.095936  0.110935  0  1.029287  0
H  H18  1  0.70466430  0.51481180  0.44513351  1  0  0.104461  0  0.963059  0  0.090048  0  0.112808  0  1.029259  0  0  0.115229  0  1.029681  0  0  0.095958  0.110994  0  1.029271  0
H  H19  1  0.79534285  0.48520143  0.94513466  1  0  0.104469  0  0.962949  0  0.090075  0  0.112784  0  1.029185  0  0  0.115206  0  1.029608  0  0  0.095967  0.110969  0  1.029197  0
H  H20  1  0.61813824  0.25998133  0.67909217  1  0  0.113301  0  0.945168  0  0.100004  0  0.122235  0  1.008426  0  0  0.125805  0  1.007011  0  0  0.1029  0.119519  0  1.009823  0
H  H21  1  0.88184773  0.74001084  0.17909299  1  0  0.113338  0  0.945095  0  0.099898  0  0.122236  0  1.008382  0  0  0.125807  0  1.006964  0  0  0.10285  0.119519  0  1.009777  0
H  H22  1  0.38184981  0.74001202  0.32090665  1  0  0.113271  0  0.945165  0  0.09995  0  0.122196  0  1.008429  0  0  0.125765  0  1.007012  0  0  0.102845  0.11948  0  1.00982  0
H  H23  1  0.11814768  0.25998971  0.82090735  1  0  0.1133  0  0.945183  0  0.099989  0  0.122232  0  1.008421  0  0  0.125801  0  1.007005  0  0  0.102862  0.119517  0  1.009815  0
H  H24  1  0.55568845  0.42918236  0.77431165  1  0  0.077622  0  0.95216  0  0.08828  0  0.084239  0  1.021181  0  0  0.087062  0  1.018364  0  0  0.104112  0.081967  0  1.023619  0
H  H25  1  0.94429784  0.57080700  0.27430952  1  0  0.07771  0  0.952084  0  0.088239  0  0.084305  0  1.021143  0  0  0.087126  0  1.01834  0  0  0.104134  0.082056  0  1.023528  0
H  H26  1  0.44430399  0.57080865  0.22568869  1  0  0.077689  0  0.952092  0  0.088265  0  0.08429  0  1.021143  0  0  0.087114  0  1.018326  0  0  0.104115  0.082023  0  1.023557  0
H  H27  1  0.05569406  0.42918757  0.72568980  1  0  0.077609  0  0.952212  0  0.088235  0  0.084212  0  1.02126  0  0  0.087038  0  1.01844  0  0  0.104068  0.081941  0  1.023686  0
H  H28  1  0.25946630  0.25607024  0.50267035  1  0  0.067338  0  1.037173  0  0.136769  0  0.072963  0  1.110642  0  0  0.077932  0  1.103297  0  0  0.0866  0.068837  0  1.116556  0
H  H29  1  0.24052637  0.74392256  0.00266857  1  0  0.067393  0  1.037153  0  0.13682  0  0.072997  0  1.110635  0  0  0.077964  0  1.103291  0  0  0.086629  0.06887  0  1.116557  0
H  H30  1  0.74053514  0.74393034  0.49732948  1  0  0.067377  0  1.03714  0  0.136772  0  0.073004  0  1.11061  0  0  0.077974  0  1.103265  0  0  0.086608  0.068878  0  1.116523  0
H  H31  1  0.75947178  0.25607324  0.99733025  1  0  0.067358  0  1.037172  0  0.136836  0  0.072998  0  1.110645  0  0  0.07797  0  1.103291  0  0  0.086638  0.068871  0  1.116564  0
H  H32  1  0.59206803  0.06938169  0.38423945  1  0  0.07757  0  0.933449  0  0.138148  0  0.080612  0  1.009203  0  0  0.084769  0  1.004158  0  0  0.116952  0.077091  0  1.013416  0
H  H33  1  0.90792749  0.93062188  0.88424269  1  0  0.07755  0  0.933417  0  0.138186  0  0.080616  0  1.009161  0  0  0.084765  0  1.004109  0  0  0.116981  0.077095  0  1.013372  0
H  H34  1  0.40793143  0.93062126  0.61576089  1  0  0.07754  0  0.933445  0  0.138122  0  0.080573  0  1.00923  0  0  0.084726  0  1.004177  0  0  0.116927  0.07705  0  1.013441  0
H  H35  1  0.09207308  0.06937394  0.11575714  1  0  0.077537  0  0.933407  0  0.138177  0  0.080591  0  1.009177  0  0  0.084737  0  1.004125  0  0  0.116968  0.077069  0  1.013389  0
H  H36  1  0.75552894  0.26287737  0.57060968  1  0  0.082037  0  0.999583  0  0.152498  0  0.087145  0  1.072926  0  0  0.091691  0  1.067061  0  0  0.092498  0.083371  0  1.077817  0
H  H37  1  0.74447125  0.73712339  0.07061190  1  0  0.082015  0  0.999617  0  0.152158  0  0.08712  0  1.072965  0  0  0.091661  0  1.067091  0  0  0.092482  0.083341  0  1.077852  0
H  H38  1  0.24447261  0.73713035  0.42938863  1  0  0.082011  0  0.999607  0  0.152164  0  0.087124  0  1.072944  0  0  0.09167  0  1.06708  0  0  0.092498  0.083352  0  1.077841  0
H  H39  1  0.25553008  0.26288315  0.92938793  1  0  0.081972  0  0.999641  0  0.152422  0  0.087123  0  1.072939  0  0  0.091664  0  1.067068  0  0  0.092482  0.083346  0  1.077826  0
C  C40  1  0.33199969  0.55991724  0.65779817  1  0  0.116375  0  3.70951  0  0.458547  0  0.088619  0  3.958198  0  0  0.095216  0  3.974521  0  0  0.026429  0.084012  0  3.948286  0
C  C41  1  0.16799989  0.44008117  0.15779630  1  0  0.116113  0  3.709624  0  0.458717  0  0.088426  0  3.958307  0  0  0.095024  0  3.974627  0  0  0.026352  0.083821  0  3.948394  0
C  C42  1  0.66800142  0.44008811  0.34220217  1  0  0.116311  0  3.70962  0  0.457986  0  0.088636  0  3.958291  0  0  0.095234  0  3.97461  0  0  0.026423  0.084031  0  3.948379  0
C  C43  1  0.83200277  0.55991942  0.84220403  1  0  0.116135  0  3.709348  0  0.458653  0  0.088446  0  3.95802  0  0  0.09504  0  3.974344  0  0  0.026358  0.083845  0  3.948105  0
C  C44  1  0.35763767  0.46927552  0.60221858  1  0  -0.148156  0  3.711343  0  -0.020836  0  -0.164368  0  3.954636  0  0  -0.172738  0  3.978345  0  0  -0.0914  -0.15929  0  3.939253  0
C  C45  1  0.14236634  0.53072892  0.10221869  1  0  -0.147987  0  3.711479  0  -0.020968  0  -0.16426  0  3.95471  0  0  -0.17263  0  3.978424  0  0  -0.09131  -0.159184  0  3.939325  0
C  C46  1  0.64236695  0.53073580  0.39778125  1  0  -0.148187  0  3.711378  0  -0.019784  0  -0.164459  0  3.954619  0  0  -0.172829  0  3.978332  0  0  -0.091385  -0.159382  0  3.939238  0
C  C47  1  0.85763675  0.46927405  0.89778164  1  0  -0.148089  0  3.711254  0  -0.020804  0  -0.164314  0  3.954552  0  0  -0.172686  0  3.978267  0  0  -0.091344  -0.159238  0  3.939169  0
C  C48  1  0.46640219  0.36212313  0.60735006  1  0  0.103155  0  3.785663  0  -0.015245  0  0.112548  0  4.013245  0  0  0.117443  0  4.037103  0  0  0.003215  0.10959  0  3.997477  0
C  C49  1  0.03360088  0.63787665  0.10735399  1  0  0.103146  0  3.785814  0  -0.015586  0  0.11263  0  4.013273  0  0  0.117521  0  4.037132  0  0  0.003251  0.109676  0  3.997507  0
C  C50  1  0.53360419  0.63788463  0.39264674  1  0  0.103236  0  3.785526  0  -0.015534  0  0.112647  0  4.013136  0  0  0.117543  0  4.036993  0  0  0.003273  0.109689  0  3.997373  0
C  C51  1  0.96640133  0.36212156  0.89264887  1  0  0.103308  0  3.785621  0  -0.015269  0  0.112649  0  4.013292  0  0  0.117547  0  4.037146  0  0  0.003295  0.109691  0  3.997527  0
C  C52  1  0.53786302  0.34585584  0.67067588  1  0  -0.143955  0  3.683961  0  -0.024548  0  -0.161862  0  3.931902  0  0  -0.168528  0  3.950203  0  0  -0.08378  -0.158282  0  3.920855  0
C  C53  1  0.96212645  0.65413498  0.17067659  1  0  -0.144057  0  3.683952  0  -0.024155  0  -0.161951  0  3.931857  0  0  -0.168613  0  3.950155  0  0  -0.083811  -0.158371  0  3.920819  0
C  C54  1  0.46212788  0.65413991  0.32932344  1  0  -0.143981  0  3.683801  0  -0.024336  0  -0.161864  0  3.931721  0  0  -0.168529  0  3.950023  0  0  -0.0838  -0.158283  0  3.920677  0
C  C55  1  0.03787027  0.34585962  0.82932475  1  0  -0.144014  0  3.683709  0  -0.024529  0  -0.161882  0  3.931674  0  0  -0.168549  0  3.949978  0  0  -0.083786  -0.158301  0  3.920629  0
C  C56  1  0.50339773  0.43975138  0.72428547  1  0  0.136505  0  3.667611  0  0.527741  0  0.104755  0  3.923814  0  0  0.114103  0  3.936102  0  0  0.039946  0.098079  0  3.91687  0
C  C57  1  0.99659403  0.56023699  0.22428416  1  0  0.136387  0  3.667608  0  0.527652  0  0.104659  0  3.923794  0  0  0.114004  0  3.936079  0  0  0.039955  0.09799  0  3.916865  0
C  C58  1  0.49659878  0.56024203  0.27571537  1  0  0.136411  0  3.667615  0  0.528243  0  0.104667  0  3.92383  0  0  0.114012  0  3.936115  0  0  0.039973  0.098001  0  3.916885  0
C  C59  1  0.00340006  0.43975640  0.77571264  1  0  0.136496  0  3.667375  0  0.527646  0  0.104753  0  3.92359  0  0  0.114095  0  3.935883  0  0  0.040006  0.09808  0  3.916648  0
C  C60  1  0.50184258  0.27453237  0.54698041  1  0  -0.038959  0  3.769995  0  -0.042922  0  -0.013868  0  3.998008  0  0  -0.022417  0  4.016735  0  0  -0.00351  -0.009224  0  3.987074  0
C  C61  1  0.99815506  0.72546551  0.04698334  1  0  -0.038768  0  3.769802  0  -0.042877  0  -0.013742  0  3.99782  0  0  -0.022289  0  4.016551  0  0  -0.003478  -0.0091  0  3.986886  0
C  C62  1  0.49815590  0.72547177  0.45301740  1  0  -0.038752  0  3.769691  0  -0.043113  0  -0.013754  0  3.997838  0  0  -0.022304  0  4.016567  0  0  -0.003447  -0.009112  0  3.986906  0
C  C63  1  0.00184594  0.27453269  0.95301699  1  0  -0.038906  0  3.769853  0  -0.042323  0  -0.013836  0  3.997947  0  0  -0.022387  0  4.016678  0  0  -0.003505  -0.009192  0  3.987015  0
C  C64  1  0.38315869  0.23240917  0.49683589  1  0  0.125817  0  3.637459  0  0.511368  0  0.081572  0  3.885797  0  0  0.096592  0  3.893532  0  0  0.045173  0.070746  0  3.882352  0
C  C65  1  0.11683985  0.76758783  0.99683575  1  0  0.125704  0  3.637393  0  0.511445  0  0.08146  0  3.885756  0  0  0.096482  0  3.893498  0  0  0.045151  0.070627  0  3.882317  0
C  C66  1  0.61684121  0.76759616  0.50316394  1  0  0.125609  0  3.637513  0  0.51145  0  0.081332  0  3.88587  0  0  0.096366  0  3.893618  0  0  0.045057  0.07051  0  3.882419  0
C  C67  1  0.88316336  0.23240920  0.00316458  1  0  0.125817  0  3.637557  0  0.511488  0  0.081466  0  3.88593  0  0  0.096493  0  3.893677  0  0  0.045122  0.070633  0  3.882489  0
C  C68  1  0.56536961  0.12639670  0.43132046  1  0  0.278868  0  3.619603  0  1.058337  0  0.225064  0  3.890646  0  0  0.241161  0  3.899739  0  0  0.1676  0.214191  0  3.885818  0
C  C69  1  0.93462301  0.87360186  0.93132236  1  0  0.278905  0  3.619555  0  1.058424  0  0.225037  0  3.89067  0  0  0.241146  0  3.899756  0  0  0.167569  0.214168  0  3.885829  0
C  C70  1  0.43463018  0.87360149  0.56867937  1  0  0.278843  0  3.61975  0  1.058393  0  0.22501  0  3.890764  0  0  0.241128  0  3.899864  0  0  0.167544  0.214138  0  3.885933  0
C  C71  1  0.06537657  0.12639515  0.06867595  1  0  0.278921  0  3.619734  0  1.058459  0  0.225026  0  3.890794  0  0  0.24115  0  3.899873  0  0  0.167557  0.21416  0  3.885952  0
C  C72  1  0.65460512  0.23431886  0.53474076  1  0  0.121392  0  3.622739  0  0.500988  0  0.076932  0  3.875194  0  0  0.092095  0  3.88207  0  0  0.046462  0.065896  0  3.872427  0
C  C73  1  0.84539356  0.76568354  0.03474281  1  0  0.12128  0  3.622826  0  0.501265  0  0.076856  0  3.875264  0  0  0.092025  0  3.88214  0  0  0.046459  0.065831  0  3.872488  0
C  C74  1  0.34539182  0.76569002  0.46526008  1  0  0.121359  0  3.622774  0  0.501305  0  0.076922  0  3.875252  0  0  0.092083  0  3.882132  0  0  0.046443  0.065882  0  3.872496  0
C  C75  1  0.15460876  0.23432181  0.96525803  1  0  0.121418  0  3.622737  0  0.500412  0  0.076974  0  3.875134  0  0  0.092145  0  3.882009  0  0  0.046508  0.065948  0  3.872362  0
I  I76  1  0.01574260  0.12053129  0.59813114  1  0  -0.341796  0  1.874465  0  -0.419846  0  -0.280519  0  2.34762  0  0  -0.298679  0  2.303996  0  0  -0.160919  -0.267445  0  2.375847  0
I  I77  1  0.48425192  0.87946705  0.09813326  1  0  -0.341785  0  1.874439  0  -0.419827  0  -0.280489  0  2.347569  0  0  -0.298641  0  2.303934  0  0  -0.160909  -0.26742  0  2.375804  0
I  I78  1  0.98426005  0.87946930  0.40186920  1  0  -0.341799  0  1.87451  0  -0.419852  0  -0.280529  0  2.347682  0  0  -0.298682  0  2.304051  0  0  -0.160912  -0.267463  0  2.37591  0
I  I79  1  0.51574459  0.12052636  0.90186859  1  0  -0.341753  0  1.874489  0  -0.4199  0  -0.280489  0  2.34767  0  0  -0.298637  0  2.304033  0  0  -0.160925  -0.267408  0  2.375892  0
I  I80  1  0.08130223  0.38453748  0.40613718  1  0  -0.355175  0  1.731381  0  -0.428651  0  -0.302802  0  2.194289  0  0  -0.321963  0  2.154749  0  0  -0.161295  -0.288373  0  2.219579  0
I  I81  1  0.41869911  0.61546007  0.90613701  1  0  -0.355183  0  1.73135  0  -0.428682  0  -0.302802  0  2.19425  0  0  -0.321966  0  2.154713  0  0  -0.161288  -0.28837  0  2.219536  0
I  I82  1  0.91870184  0.61546432  0.59386215  1  0  -0.355166  0  1.731391  0  -0.428678  0  -0.302796  0  2.194314  0  0  -0.321964  0  2.154775  0  0  -0.161285  -0.288363  0  2.2196  0
I  I83  1  0.58130179  0.38453099  0.09386383  1  0  -0.355138  0  1.731363  0  -0.428636  0  -0.302767  0  2.194279  0  0  -0.321926  0  2.154733  0  0  -0.161271  -0.288327  0  2.219564  0
I  I84  1  0.70100752  0.91302409  0.75289251  1  0  -0.359806  0  1.82695  0  -0.404635  0  -0.299751  0  2.299892  0  0  -0.318765  0  2.257755  0  0  -0.181188  -0.286049  0  2.326659  0
I  I85  1  0.79899408  0.08697446  0.25289176  1  0  -0.359856  0  1.827034  0  -0.404603  0  -0.299795  0  2.299959  0  0  -0.318809  0  2.257833  0  0  -0.181199  -0.286094  0  2.326731  0
I  I86  1  0.29899107  0.08697410  0.24710732  1  0  -0.359803  0  1.826962  0  -0.404596  0  -0.299757  0  2.299901  0  0  -0.318762  0  2.257769  0  0  -0.181194  -0.286056  0  2.326672  0
I  I87  1  0.20100813  0.91302375  0.74710756  1  0  -0.359797  0  1.826936  0  -0.40463  0  -0.299744  0  2.299873  0  0  -0.318748  0  2.257727  0  0  -0.181177  -0.286043  0  2.32664  0
N  N88  1  0.40555998  0.54891935  0.71800918  1  0  -0.268891  0  3.364589  0  -1.258072  0  -0.19498  0  3.647568  0  0  -0.207613  0  3.656271  0  0  -0.365551  -0.187762  0  3.642515  0
N  N89  1  0.09443751  0.45107313  0.21800859  1  0  -0.268731  0  3.364494  0  -1.25802  0  -0.194887  0  3.647516  0  0  -0.207515  0  3.656215  0  0  -0.365547  -0.187676  0  3.642467  0
N  N90  1  0.59443762  0.45108001  0.28199267  1  0  -0.268778  0  3.364658  0  -1.258621  0  -0.194913  0  3.647641  0  0  -0.207536  0  3.656331  0  0  -0.365567  -0.187703  0  3.642591  0
N  N91  1  0.90555867  0.54892504  0.78198922  1  0  -0.268762  0  3.364442  0  -1.257865  0  -0.194908  0  3.647477  0  0  -0.207533  0  3.656172  0  0  -0.365574  -0.187694  0  3.642424  0
N  N92  1  0.41394313  0.16008159  0.43899707  1  0  -0.289915  0  3.34073  0  -1.262922  0  -0.214154  0  3.634399  0  0  -0.2298  0  3.639344  0  0  -0.358224  -0.205389  0  3.632287  0
N  N93  1  0.08605176  0.83991658  0.93899734  1  0  -0.289911  0  3.340768  0  -1.26282  0  -0.214063  0  3.634329  0  0  -0.229712  0  3.639276  0  0  -0.35819  -0.2053  0  3.632218  0
N  N94  1  0.58605469  0.83991897  0.56100478  1  0  -0.289848  0  3.340941  0  -1.262977  0  -0.213964  0  3.634473  0  0  -0.229659  0  3.639474  0  0  -0.358124  -0.205198  0  3.632357  0
N  N95  1  0.91395024  0.16008044  0.06100148  1  0  -0.290004  0  3.341064  0  -1.262825  0  -0.214039  0  3.634566  0  0  -0.229709  0  3.639532  0  0  -0.358187  -0.205276  0  3.632456  0
N  N96  1  0.68650673  0.15980167  0.47733276  1  0  -0.291419  0  3.315424  0  -1.253379  0  -0.217862  0  3.60845  0  0  -0.23289  0  3.613581  0  0  -0.353057  -0.209372  0  3.606079  0
N  N97  1  0.81349617  0.84019791  0.97733437  1  0  -0.291422  0  3.315551  0  -1.253459  0  -0.217882  0  3.608598  0  0  -0.23291  0  3.613726  0  0  -0.353096  -0.209386  0  3.606218  0
N  N98  1  0.31348889  0.84020007  0.52266859  1  0  -0.291422  0  3.31558  0  -1.253575  0  -0.217865  0  3.608581  0  0  -0.23289  0  3.613699  0  0  -0.353033  -0.209366  0  3.606209  0
N  N99  1  0.18651032  0.15980391  0.02266647  1  0  -0.29146  0  3.315533  0  -1.253565  0  -0.217916  0  3.608583  0  0  -0.232938  0  3.613692  0  0  -0.353084  -0.209426  0  3.606216  0
