# generated using pymatgen
data_ZnH14C14N2O5
_symmetry_space_group_name_H-M   'P 1'
_cell_length_a   7.59124552
_cell_length_b   9.07778170
_cell_length_c   11.12194023
_cell_angle_alpha   90.00004442
_cell_angle_beta   90.00038799
_cell_angle_gamma   106.26140265
_symmetry_Int_Tables_number   1
_chemical_formula_structural   ZnH14C14N2O5
_chemical_formula_sum   'Zn2 H28 C28 N4 O10'
_cell_volume   735.76972452
_cell_formula_units_Z   2
loop_
 _symmetry_equiv_pos_site_id
 _symmetry_equiv_pos_as_xyz
  1  'x, y, z'
loop_
 _atom_site_type_symbol
 _atom_site_label
 _atom_site_symmetry_multiplicity
 _atom_site_fract_x
 _atom_site_fract_y
 _atom_site_fract_z
 _atom_site_occupancy
 _atom_site_pbe_bader_spin_density
 _atom_site_pbe_cm5_charge
 _atom_site_pbe_ddec_charge
 _atom_site_pbe_ddec_spin_density
 _atom_site_pbe_ddec_sum_bond_order
 _atom_site_pbe_magmom
Zn  Zn0  1  0.53078690  0.51676910  0.75056287  1  0  0.684633  0.900478  0  2.259574  0
Zn  Zn1  1  0.46921161  0.48323408  0.25055913  1  0  0.684689  0.900569  0  2.259566  0
H  H2  1  0.75054001  0.99473857  0.69458229  1  0  0.101564  0.102911  0  1.037421  0
H  H3  1  0.24945969  0.00526208  0.19458084  1  0  0.10158  0.102939  0  1.037519  0
H  H4  1  0.83881319  0.49746980  0.81530589  1  0  0.314371  0.305881  0  0.905503  0
H  H5  1  0.16118380  0.50253480  0.31530072  1  0  0.314348  0.305845  0  0.90557  0
H  H6  1  0.73481368  0.49727707  0.94788503  1  0  0.291346  0.311824  0  1.001474  0
H  H7  1  0.26518237  0.50272112  0.44788125  1  0  0.291354  0.311871  0  1.001467  0
H  H8  1  0.96506049  0.24231502  0.47385759  1  0  0.101635  0.103585  0  1.002054  0
H  H9  1  0.03493594  0.75767980  0.97385287  1  0  0.101627  0.103623  0  1.002161  0
H  H10  1  0.83149629  0.28012735  0.69940876  1  0  0.101436  0.11356  0  1.025054  0
H  H11  1  0.16850135  0.71987104  0.19940466  1  0  0.101422  0.113573  0  1.024994  0
H  H12  1  0.43564717  0.97214654  0.01783182  1  0  0.103466  0.103324  0  1.026421  0
H  H13  1  0.56435704  0.02785685  0.51782914  1  0  0.103517  0.103369  0  1.026379  0
H  H14  1  0.29051078  0.06149454  0.71890583  1  0  0.10177  0.100213  0  1.033316  0
H  H15  1  0.70948838  0.93850390  0.21890078  1  0  0.101805  0.100277  0  1.033277  0
H  H16  1  0.14511122  0.79803197  0.64312037  1  0  0.104587  0.118272  0  0.987666  0
H  H17  1  0.85489548  0.20196380  0.14311287  1  0  0.104599  0.118224  0  0.987729  0
H  H18  1  0.51869627  0.25777012  0.02645440  1  0  0.104978  0.121522  0  1.013955  0
H  H19  1  0.48130924  0.74223675  0.52645355  1  0  0.104997  0.121579  0  1.013765  0
H  H20  1  0.82923492  0.72032229  0.38735542  1  0  0.291206  0.29579  0  0.996417  0
H  H21  1  0.17077327  0.27967091  0.88735375  1  0  0.291187  0.295785  0  0.996473  0
H  H22  1  0.98704624  0.66030682  0.46447181  1  0  0.304814  0.292498  0  0.939597  0
H  H23  1  0.01295453  0.33968562  0.96446944  1  0  0.304828  0.292535  0  0.939673  0
H  H24  1  0.82831549  0.98093697  0.39241127  1  0  0.10114  0.108509  0  1.04779  0
H  H25  1  0.17168449  0.01905520  0.89240765  1  0  0.101139  0.108498  0  1.047799  0
H  H26  1  0.62262640  0.41401743  0.53552684  1  0  0.294485  0.409319  0  0.922692  0
H  H27  1  0.37737406  0.58598607  0.03551913  1  0  0.29449  0.409328  0  0.922698  0
H  H28  1  0.74220174  0.59030918  0.55388817  1  0  0.283434  0.356295  0  0.995835  0
H  H29  1  0.25780366  0.40969664  0.05388520  1  0  0.283486  0.356342  0  0.995783  0
C  C30  1  0.69788422  0.05311793  0.76571156  1  0  -0.079789  -0.059657  0  3.973011  0
C  C31  1  0.30211525  0.94688760  0.26570822  1  0  -0.079861  -0.059739  0  3.972961  0
C  C32  1  0.67938418  0.28633171  0.86263353  1  0  0.082003  0.269314  0  4.030292  0
C  C33  1  0.32061334  0.71367306  0.36263013  1  0  0.082024  0.269254  0  4.030369  0
C  C34  1  0.00527565  0.14504992  0.51048203  1  0  -0.08228  -0.067804  0  3.989899  0
C  C35  1  0.99472404  0.85494082  0.01048545  1  0  -0.082285  -0.067912  0  3.990218  0
C  C36  1  0.52698554  0.79493102  0.84768449  1  0  0.207603  0.586705  0  4.213569  0
C  C37  1  0.47300758  0.20506913  0.34768510  1  0  0.207672  0.586869  0  4.213363  0
C  C38  1  0.74530164  0.21222174  0.76950692  1  0  -0.103952  -0.207231  0  3.987517  0
C  C39  1  0.25469969  0.78778147  0.26950236  1  0  -0.103892  -0.207152  0  3.987401  0
C  C40  1  0.22469243  0.32619277  0.64823733  1  0  0.203336  0.570763  0  4.213639  0
C  C41  1  0.77529728  0.67380323  0.14824232  1  0  0.203404  0.570807  0  4.213186  0
C  C42  1  0.58236025  0.96558614  0.85377893  1  0  -0.028474  -0.069592  0  3.992913  0
C  C43  1  0.41764020  0.03441970  0.35377918  1  0  -0.028424  -0.06967  0  3.993054  0
C  C44  1  0.13531837  0.16925869  0.60345443  1  0  -0.036597  -0.085849  0  4.024813  0
C  C45  1  0.86468133  0.83073701  0.10345453  1  0  -0.036683  -0.08599  0  4.025038  0
C  C46  1  0.52050507  0.04084444  0.94782865  1  0  -0.078335  -0.068008  0  3.991245  0
C  C47  1  0.47948875  0.95915492  0.44782524  1  0  -0.078393  -0.067963  0  3.991431  0
C  C48  1  0.18406739  0.04228242  0.65033661  1  0  -0.081648  -0.065331  0  3.986226  0
C  C49  1  0.81592668  0.95771468  0.15032667  1  0  -0.08169  -0.065418  0  3.986383  0
C  C50  1  0.97561816  0.87209642  0.51315130  1  0  0.101213  0.303326  0  4.027698  0
C  C51  1  0.02438711  0.12789887  0.01314528  1  0  0.101136  0.303208  0  4.027653  0
C  C52  1  0.10414335  0.89537791  0.60712389  1  0  -0.098347  -0.194492  0  3.965066  0
C  C53  1  0.89585589  0.10462012  0.10711472  1  0  -0.098295  -0.194306  0  3.965032  0
C  C54  1  0.56772484  0.20040239  0.95277938  1  0  -0.097741  -0.182726  0  3.935775  0
C  C55  1  0.43227367  0.79960270  0.45277656  1  0  -0.097859  -0.182909  0  3.935754  0
C  C56  1  0.92680897  0.99863094  0.46569997  1  0  -0.098246  -0.193791  0  3.960058  0
C  C57  1  0.07319283  0.00135688  0.96569768  1  0  -0.098205  -0.193607  0  3.959902  0
N  N58  1  0.72011768  0.45002525  0.86164194  1  0  -0.598299  -0.615385  0  3.394902  0
N  N59  1  0.27987801  0.54998184  0.36163915  1  0  -0.598244  -0.615347  0  3.394998  0
N  N60  1  0.89556716  0.72372049  0.46847092  1  0  -0.583606  -0.594114  0  3.316466  0
N  N61  1  0.10443789  0.27627652  0.96846804  1  0  -0.583586  -0.594183  0  3.316608  0
O  O62  1  0.58840971  0.73728049  0.75502632  1  0  -0.333488  -0.56347  0  2.337247  0
O  O63  1  0.41159004  0.26272615  0.25503208  1  0  -0.333525  -0.563506  0  2.3372  0
O  O64  1  0.32185368  0.33448521  0.74689301  1  0  -0.334065  -0.580333  0  2.369824  0
O  O65  1  0.67813549  0.66552153  0.24689575  1  0  -0.334038  -0.580303  0  2.369603  0
O  O66  1  0.42517492  0.71529254  0.92691771  1  0  -0.328683  -0.584019  0  2.189114  0
O  O67  1  0.57481988  0.28471019  0.42692423  1  0  -0.328746  -0.584123  0  2.188875  0
O  O68  1  0.21043122  0.44406156  0.59426474  1  0  -0.33074  -0.5737  0  2.186473  0
O  O69  1  0.78956747  0.55593527  0.09427062  1  0  -0.330773  -0.573733  0  2.186258  0
O  O70  1  0.66733255  0.49565433  0.59729586  1  0  -0.584733  -0.768574  0  2.165179  0
O  O71  1  0.33267556  0.50435046  0.09729150  1  0  -0.584804  -0.768647  0  2.165116  0
