# generated using pymatgen
data_Zn4H12C24N3O13
_symmetry_space_group_name_H-M   'P 1'
_cell_length_a   18.36954876
_cell_length_b   18.42464514
_cell_length_c   18.55304350
_cell_angle_alpha   90.96157011
_cell_angle_beta   119.37518888
_cell_angle_gamma   119.05136751
_symmetry_Int_Tables_number   1
_chemical_formula_structural   Zn4H12C24N3O13
_chemical_formula_sum   'Zn8 H24 C48 N6 O26'
_cell_volume   4507.60173397
_cell_formula_units_Z   2
loop_
 _symmetry_equiv_pos_site_id
 _symmetry_equiv_pos_as_xyz
  1  'x, y, z'
loop_
 _atom_site_type_symbol
 _atom_site_label
 _atom_site_symmetry_multiplicity
 _atom_site_fract_x
 _atom_site_fract_y
 _atom_site_fract_z
 _atom_site_occupancy
 _atom_site_pbe_bader_charge
 _atom_site_pbe_bader_spin_density
 _atom_site_pbe_cm5_charge
 _atom_site_pbe_ddec_charge
 _atom_site_pbe_ddec_spin_density
 _atom_site_pbe_ddec_sum_bond_order
 _atom_site_pbe_magmom
Zn  Zn0  1  0.91225330  0.45175256  0.04519614  1  1.31318  0  0.671677  0.955449  0  2.382895  0
Zn  Zn1  1  0.90737906  0.45750876  0.87117797  1  1.312038  0  0.668891  0.964862  0  2.345404  0
Zn  Zn2  1  0.09086624  0.46601444  0.04684537  1  1.3162  0  0.673847  0.950587  0  2.413336  0
Zn  Zn3  1  0.08282383  0.63222276  0.04271541  1  1.30967  0  0.673992  0.967907  0  2.357673  0
Zn  Zn4  1  0.08964693  0.04485379  0.45495571  1  1.308173  0  0.672707  0.963146  0  2.366189  0
Zn  Zn5  1  0.91392427  0.04359160  0.45422591  1  1.309153  0  0.669632  0.962251  0  2.37518  0
Zn  Zn6  1  0.08835128  0.04598461  0.62437039  1  1.321186  0  0.674887  0.962685  0  2.390144  0
Zn  Zn7  1  0.91285412  0.86906205  0.45345591  1  1.306708  0  0.674626  0.97238  0  2.33669  0
H  H8  1  0.04544037  0.72195035  0.39204970  1  0.113027  0  0.125006  0.128878  0  0.951713  0
H  H9  1  0.12951704  0.22336157  0.81139378  1  0.114724  0  0.124113  0.132525  0  0.965177  0
H  H10  1  0.16637369  0.77189527  0.32324538  1  0.119855  0  0.125869  0.129453  0  0.95048  0
H  H11  1  0.96196587  0.22977837  0.65433190  1  0.102193  0  0.116457  0.133997  0  0.98035  0
H  H12  1  0.92956003  0.26402235  0.74663327  1  0.105836  0  0.12185  0.143362  0  0.975731  0
H  H13  1  0.39552887  0.19538050  0.80281878  1  0.113062  0  0.116274  0.122908  0  0.972068  0
H  H14  1  0.42344993  0.18245432  0.65337045  1  0.084014  0  0.113816  0.135292  0  0.985491  0
H  H15  1  0.57649748  0.31314713  0.74718124  1  0.088107  0  0.10873  0.133054  0  0.999375  0
H  H16  1  0.12194905  0.21046779  0.30891545  1  0.104137  0  0.114858  0.118384  0  0.978403  0
H  H17  1  0.96440676  0.23061725  0.30788052  1  0.082768  0  0.114503  0.134924  0  0.984927  0
H  H18  1  0.52314864  0.19225084  0.92576874  1  0.039196  0  0.09739  0.133132  0  0.991198  0
H  H19  1  0.93816905  0.26746171  0.18991666  1  0.076437  0  0.110403  0.135241  0  0.997177  0
H  H20  1  0.64842028  0.24177999  0.95249354  1  0.079177  0  0.101754  0.150349  0  0.987596  0
H  H21  1  0.61427267  0.30837397  0.97574172  1  0.083028  0  0.108574  0.158142  0  0.965433  0
H  H22  1  0.23845555  0.33616093  0.30296721  1  0.038499  0  0.095112  0.128542  0  0.996692  0
H  H23  1  0.16990671  0.31096963  0.18707444  1  0.075882  0  0.108013  0.156371  0  0.964915  0
H  H24  1  0.21165469  0.41020524  0.25330479  1  0.055481  0  0.100468  0.148318  0  0.988688  0
H  H25  1  0.58899107  0.68879027  0.27009142  1  0.116257  0  0.118245  0.118564  0  0.966052  0
H  H26  1  0.58398356  0.84822788  0.31293503  1  0.097049  0  0.1136  0.131579  0  0.984738  0
H  H27  1  0.40372785  0.60000584  0.19853325  1  0.126805  0  0.117562  0.117886  0  0.972138  0
H  H28  1  0.41893879  0.77378976  0.19264278  1  0.070961  0  0.115139  0.134807  0  0.981115  0
H  H29  1  0.88491170  0.69713684  0.59972293  1  0.147594  0  0.122185  0.124563  0  0.970412  0
H  H30  1  0.89686450  0.59770517  0.68610506  1  0.099526  0  0.117702  0.119032  0  0.969613  0
H  H31  1  0.04286993  0.76593188  0.84792373  1  0.130723  0  0.119441  0.142552  0  0.988202  0
C  C32  1  0.99139883  0.63642953  0.86133744  1  1.544751  0  0.225823  0.643772  0  4.169182  0
C  C33  1  0.00652855  0.30382752  0.19080430  1  -0.010691  0  -0.09609  -0.311232  0  3.835223  0
C  C34  1  0.55355141  0.72331569  0.26655496  1  -0.134309  0  -0.058487  -0.011826  0  3.954093  0
C  C35  1  0.00544148  0.36147729  0.13713384  1  1.498868  0  0.216676  0.647488  0  4.183497  0
C  C36  1  0.61452995  0.81034249  0.31225327  1  0.087735  0  -0.084099  -0.224928  0  3.876285  0
C  C37  1  0.44365700  0.67148172  0.21479476  1  -0.025627  0  -0.058658  -0.009262  0  3.951045  0
C  C38  1  0.38637508  0.70399163  0.18391826  1  -0.001137  0  -0.085434  -0.228588  0  3.867789  0
C  C39  1  0.94926989  0.72565970  0.66844423  1  0.022763  0  -0.040688  -0.029943  0  3.89074  0
C  C40  1  0.02405127  0.81211461  0.69389419  1  0.037355  0  0.005474  -0.086997  0  3.981661  0
C  C41  1  0.94633362  0.66866938  0.72104014  1  -0.063022  0  -0.06626  -0.033264  0  3.975167  0
C  C42  1  0.99617077  0.69655786  0.80923530  1  0.028448  0  -0.067727  -0.189786  0  3.821678  0
C  C43  1  0.07092081  0.83311714  0.26636046  1  0.092971  0  0.03775  0.054768  0  3.719411  0
C  C44  1  0.07647393  0.24225659  0.77902707  1  0.038185  0  -0.054849  -0.057061  0  3.919409  0
C  C45  1  0.01257387  0.20958404  0.69091388  1  -0.04929  0  -0.080421  -0.211505  0  3.878209  0
C  C46  1  0.08096017  0.30311826  0.83563976  1  0.082451  0  0.03128  0.114146  0  4.03951  0
C  C47  1  0.72187710  0.36453663  0.86811500  1  1.568403  0  0.218068  0.653259  0  4.174852  0
C  C48  1  0.00036657  0.30715672  0.81089482  1  0.003628  0  -0.060976  -0.231637  0  3.770894  0
C  C49  1  0.43970970  0.20922001  0.77520311  1  -0.035637  0  -0.058045  -0.060788  0  3.917041  0
C  C50  1  0.38724803  0.17678812  0.68712364  1  0.023142  0  -0.092248  -0.238646  0  3.905053  0
C  C51  1  0.54959130  0.25861016  0.83816603  1  -0.01116  0  0.020239  0.231598  0  3.937659  0
C  C52  1  0.61053455  0.31016462  0.81348592  1  -0.083331  0  -0.096957  -0.314082  0  3.835244  0
C  C53  1  0.72615422  0.86188047  0.36409220  1  1.477191  0  0.221138  0.644292  0  4.177439  0
C  C54  1  0.97345380  0.76177598  0.17286035  1  0.074968  0  0.048258  0.03921  0  3.705779  0
C  C55  1  0.27589358  0.12952625  0.63093899  1  1.465624  0  0.219121  0.644783  0  4.179914  0
C  C56  1  0.00809819  0.14567619  0.36877307  1  1.550542  0  0.219661  0.643813  0  4.182009  0
C  C57  1  0.01110710  0.86408652  0.63266335  1  1.603707  0  0.231354  0.60714  0  4.19459  0
C  C58  1  0.00735448  0.14509591  0.63651132  1  1.545582  0  0.221203  0.639747  0  4.184631  0
C  C59  1  0.27480726  0.64647850  0.13449987  1  1.530189  0  0.219255  0.639777  0  4.18492  0
C  C60  1  0.00234209  0.86235958  0.35940275  1  1.63304  0  0.229782  0.602934  0  4.202067  0
C  C61  1  0.00005571  0.36655808  0.86514792  1  1.583597  0  0.222809  0.640519  0  4.194575  0
C  C62  1  0.99686250  0.63306572  0.14282995  1  1.593587  0  0.229401  0.601598  0  4.205483  0
C  C63  1  0.09212464  0.76099536  0.29231577  1  -0.017025  0  -0.04926  -0.071661  0  3.582631  0
C  C64  1  0.02601072  0.73317716  0.32945450  1  -0.006598  0  -0.050513  -0.071295  0  3.587187  0
C  C65  1  0.90641294  0.73369826  0.21069586  1  0.12607  0  0.047736  0.037328  0  3.709978  0
C  C66  1  0.00401738  0.80417067  0.30368626  1  0.029546  0  0.020781  -0.046001  0  3.602084  0
C  C67  1  0.11791771  0.85968757  0.77825338  1  0.86676  0  0.173327  0.252766  0  4.051169  0
C  C68  1  0.17634040  0.35677224  0.91940199  1  0.884714  0  0.17894  0.235215  0  3.9915  0
C  C69  1  0.58539771  0.24910786  0.92757177  1  -0.050515  0  -0.231677  -0.422509  0  3.934161  0
C  C70  1  0.14424027  0.92109637  0.28015706  1  0.892264  0  0.17244  0.22206  0  3.997198  0
C  C71  1  0.94443201  0.77453669  0.09011588  1  0.907849  0  0.176311  0.222693  0  3.99517  0
C  C72  1  0.81049044  0.72145647  0.16926870  1  0.839034  0  0.176222  0.221667  0  3.994151  0
C  C73  1  0.85438282  0.57374062  0.22209804  1  0.862768  0  0.173015  0.22449  0  3.999179  0
C  C74  1  0.18152852  0.34071570  0.24689365  1  -0.04479  0  -0.232547  -0.420962  0  3.941936  0
C  C75  1  0.92905500  0.66169092  0.23726845  1  0.121039  0  0.036929  0.051748  0  3.721887  0
C  C76  1  0.99631137  0.69059415  0.20032791  1  0.071148  0  0.021461  -0.0433  0  3.598009  0
C  C77  1  0.07355821  0.23459813  0.29090111  1  -0.046933  0  -0.060624  -0.064935  0  3.917946  0
C  C78  1  0.01289539  0.20801370  0.31943065  1  -0.014984  0  -0.089416  -0.230287  0  3.896069  0
C  C79  1  0.08363993  0.29437463  0.24026353  1  -0.010365  0  0.017856  0.228862  0  3.939443  0
N  N80  1  0.19660182  0.89878306  0.84616806  1  -1.107682  0  -0.304944  -0.347433  0  2.649056  0
N  N81  1  0.25788465  0.39721942  0.98432032  1  -1.114489  0  -0.299257  -0.333952  0  2.645574  0
N  N82  1  0.20570730  0.99208204  0.29077371  1  -1.086843  0  -0.291913  -0.320537  0  2.657751  0
N  N83  1  0.91960988  0.78394540  0.02174420  1  -1.056413  0  -0.280523  -0.305754  0  2.64972  0
N  N84  1  0.73238642  0.71242915  0.13625011  1  -1.047251  0  -0.278353  -0.303945  0  2.647116  0
N  N85  1  0.79291360  0.50271795  0.21139890  1  -1.078767  0  -0.29256  -0.324035  0  2.661543  0
O  O86  1  0.99710965  0.50286354  0.00078355  1  -1.223807  0  -0.571501  -1.032464  0  2.530005  0
O  O87  1  0.07473711  0.94711737  0.66908287  1  -1.166771  0  -0.303506  -0.527716  0  2.343147  0
O  O88  1  0.94609264  0.12313483  0.55372321  1  -1.165394  0  -0.314025  -0.542682  0  2.293078  0
O  O89  1  0.04352977  0.67532470  0.94392727  1  -1.153757  0  -0.311681  -0.537768  0  2.294986  0
O  O90  1  0.94945900  0.82174451  0.38854618  1  -1.164996  0  -0.305613  -0.533156  0  2.296252  0
O  O91  1  0.06289488  0.11703223  0.67571924  1  -1.164425  0  -0.314982  -0.545392  0  2.310784  0
O  O92  1  0.05228615  0.94381836  0.37077612  1  -1.149723  0  -0.29495  -0.515686  0  2.324711  0
O  O93  1  0.07183514  0.12509808  0.39269397  1  -1.174474  0  -0.319124  -0.555549  0  2.333473  0
O  O94  1  0.93865974  0.82156406  0.55184518  1  -1.175398  0  -0.312175  -0.546216  0  2.322413  0
O  O95  1  0.77127645  0.94545754  0.39252989  1  -1.149271  0  -0.319399  -0.5509  0  2.297777  0
O  O96  1  0.23103241  0.12287897  0.66816179  1  -1.169712  0  -0.321369  -0.558639  0  2.338654  0
O  O97  1  0.76843020  0.37945614  0.95102915  1  -1.180495  0  -0.312075  -0.546257  0  2.351954  0
O  O98  1  0.93948422  0.37920834  0.11565339  1  -1.164289  0  -0.323481  -0.554652  0  2.296058  0
O  O99  1  0.76392320  0.39363332  0.82714066  1  -1.16339  0  -0.325066  -0.559582  0  2.285029  0
O  O100  1  0.23310986  0.56424412  0.12336612  1  -1.187978  0  -0.317233  -0.55096  0  2.340646  0
O  O101  1  0.92604000  0.37468545  0.82464857  1  -1.153884  0  -0.313604  -0.539662  0  2.264584  0
O  O102  1  0.05975990  0.67572322  0.12349571  1  -1.146612  0  -0.303892  -0.529875  0  2.306304  0
O  O103  1  0.07230701  0.40331160  0.94631844  1  -1.175268  0  -0.303268  -0.533503  0  2.363262  0
O  O104  1  0.93665850  0.55061139  0.12085775  1  -1.157741  0  -0.294701  -0.515722  0  2.325981  0
O  O105  1  0.22861977  0.68480590  0.10716858  1  -1.150684  0  -0.319638  -0.550829  0  2.281916  0
O  O106  1  0.93848003  0.55366558  0.82167426  1  -1.173707  0  -0.314419  -0.55054  0  2.300124  0
O  O107  1  0.06794782  0.38895408  0.11525974  1  -1.155018  0  -0.311787  -0.544858  0  2.347586  0
O  O108  1  0.99980648  0.99807286  0.49535830  1  -1.211547  0  -0.571026  -1.034659  0  2.526416  0
O  O109  1  0.76866764  0.82068193  0.37691582  1  -1.159206  0  -0.318175  -0.554891  0  2.310888  0
O  O110  1  0.23274598  0.09899810  0.54814175  1  -1.149964  0  -0.321523  -0.551212  0  2.281224  0
O  O111  1  0.93937455  0.11736261  0.38339157  1  -1.164198  0  -0.318896  -0.547276  0  2.291039  0
