# generated using pymatgen
data_CeH19(C17O4)2
_symmetry_space_group_name_H-M   'P 1'
_cell_length_a   9.33907719
_cell_length_b   12.07664814
_cell_length_c   15.96977451
_cell_angle_alpha   87.99795675
_cell_angle_beta   73.16997057
_cell_angle_gamma   70.25805233
_symmetry_Int_Tables_number   1
_chemical_formula_structural   CeH19(C17O4)2
_chemical_formula_sum   'Ce2 H38 C68 O16'
_cell_volume   1618.71404471
_cell_formula_units_Z   2
loop_
 _symmetry_equiv_pos_site_id
 _symmetry_equiv_pos_as_xyz
  1  'x, y, z'
loop_
 _atom_site_type_symbol
 _atom_site_label
 _atom_site_symmetry_multiplicity
 _atom_site_fract_x
 _atom_site_fract_y
 _atom_site_fract_z
 _atom_site_occupancy
 _atom_site_pbe_bader_charge
 _atom_site_pbe_bader_spin_density
 _atom_site_pbe_cm5_charge
 _atom_site_pbe_ddec_charge
 _atom_site_pbe_ddec_spin_density
 _atom_site_pbe_ddec_sum_bond_order
 _atom_site_pbe_magmom
Ce  Ce0  1  0.29466505  0.97291876  0.01885610  1  2.276489  0.878533  1.347195  2.021201  0.982532  2.404961  0.856
Ce  Ce1  1  0.70535527  0.02686838  0.98140530  1  2.276686  0.881041  1.345334  2.021367  0.986628  2.397714  0.859
H  H2  1  0.99185642  0.79940616  0.04498856  1  0.667672  5.9e-05  0.318373  0.374502  -1e-05  0.951985  0.0
H  H3  1  0.34835269  0.28019155  0.51352981  1  0.049236  1.3e-05  0.100522  0.10102  -1.8e-05  1.020811  0.0
H  H4  1  0.16375930  0.71264279  0.51614257  1  0.071423  1.8e-05  0.1011  0.100009  -3.2e-05  1.021251  0.0
H  H5  1  0.07726239  0.49642871  0.32884249  1  0.07665  6.1e-05  0.099263  0.099526  -2e-06  1.045723  0.0
H  H6  1  0.02515475  0.59703630  0.19761065  1  0.095104  9.8e-05  0.107363  0.110862  -3.9e-05  1.006867  0.0
H  H7  1  0.20089400  0.86341043  0.25426549  1  0.12845  6.8e-05  0.115087  0.123137  -5.7e-05  1.001511  0.0
H  H8  1  0.26449987  0.75830747  0.38234425  1  0.061188  3.3e-05  0.102116  0.105527  -1.9e-05  1.002577  0.0
H  H9  1  0.45616175  0.40839948  0.26803674  1  0.056387  2.3e-05  0.100672  0.102871  -9e-06  1.021444  0.0
H  H10  1  0.48732097  0.26856654  0.14894879  1  0.107352  0.000133  0.113433  0.111258  -5e-06  1.004559  0.0
H  H11  1  0.15891892  0.12806387  0.32609938  1  0.079693  2.9e-05  0.107437  0.11358  -5.1e-05  0.992504  0.0
H  H12  1  0.13452587  0.26415785  0.44806053  1  0.053122  5.4e-05  0.097806  0.101171  4e-06  1.018236  0.0
H  H13  1  0.23625858  0.23774028  0.64239377  1  0.061834  2.8e-05  0.099159  0.101142  -1.9e-05  1.012659  0.0
H  H14  1  0.29182306  0.12647438  0.76932342  1  0.088713  5.6e-05  0.107466  0.109545  -3.7e-05  0.999264  0.0
H  H15  1  0.48694892  0.37585782  0.83317460  1  0.080158  3.9e-05  0.107111  0.112398  -3.8e-05  0.988263  0.0
H  H16  1  0.42771951  0.48997531  0.70753225  1  0.067133  1.6e-05  0.096297  0.092871  -1.2e-05  1.049699  0.0
H  H17  1  0.04682503  0.55834445  0.75401846  1  0.086046  4.2e-05  0.102012  0.102974  4e-06  1.027652  0.0
H  H18  1  0.98363562  0.68891648  0.88574906  1  0.093531  8.1e-05  0.113109  0.115033  -3e-06  0.981603  0.0
H  H19  1  0.28229585  0.87407583  0.73601345  1  0.062156  1.6e-05  0.108473  0.110021  -1.9e-05  0.988733  0.0
H  H20  1  0.33633130  0.74890414  0.60174652  1  0.070879  7.3e-05  0.099656  0.102926  1.6e-05  1.008384  0.0
H  H21  1  0.00991638  0.19929172  0.95432408  1  0.663467  5.6e-05  0.318707  0.375214  -1.1e-05  0.951935  0.0
H  H22  1  0.65116206  0.71994566  0.48649006  1  0.04741  1.3e-05  0.100297  0.10074  -1.7e-05  1.020883  0.0
H  H23  1  0.83703204  0.28746116  0.48392939  1  0.073251  1.8e-05  0.101254  0.100074  -3e-05  1.021167  0.0
H  H24  1  0.92315909  0.50354505  0.67128906  1  0.07069  6.2e-05  0.099375  0.099739  -1e-06  1.045488  0.0
H  H25  1  0.97613403  0.40223817  0.80209936  1  0.099239  9e-05  0.107165  0.110682  -3.7e-05  1.006418  0.0
H  H26  1  0.79750550  0.13727583  0.74599436  1  0.131304  6.4e-05  0.115381  0.123164  -5.5e-05  1.00196  0.0
H  H27  1  0.73341348  0.24297943  0.61819881  1  0.055505  3.1e-05  0.102052  0.105274  -1.7e-05  1.002923  0.0
H  H28  1  0.54284049  0.59199535  0.73174858  1  0.067593  2.2e-05  0.100623  0.103263  -1e-05  1.02105  0.0
H  H29  1  0.51119268  0.73177138  0.85098087  1  0.101966  0.000134  0.113265  0.110574  -4e-06  1.006312  0.0
H  H30  1  0.84071501  0.87190023  0.67433701  1  0.087403  2.6e-05  0.107645  0.113828  -5.1e-05  0.992572  0.0
H  H31  1  0.86536702  0.73590535  0.55220921  1  0.056182  5.5e-05  0.097881  0.101114  5e-06  1.017853  0.0
H  H32  1  0.76492737  0.76161148  0.35717099  1  0.06309  2.9e-05  0.099432  0.101368  -1.8e-05  1.012511  0.0
H  H33  1  0.70941263  0.87263551  0.23003638  1  0.080253  6.2e-05  0.107502  0.108537  -3.6e-05  0.999969  0.0
H  H34  1  0.51156775  0.62421665  0.16753450  1  0.079775  4e-05  0.107038  0.112022  -3.8e-05  0.989265  0.0
H  H35  1  0.57116286  0.51024503  0.29319462  1  0.061309  1.7e-05  0.096537  0.093721  -1.1e-05  1.048562  0.0
H  H36  1  0.95426845  0.44154887  0.24607526  1  0.076805  4.3e-05  0.102343  0.103124  4e-06  1.028738  0.0
H  H37  1  0.01722956  0.31130812  0.11422546  1  0.09823  8e-05  0.113522  0.115964  -3e-06  0.981454  0.0
H  H38  1  0.71728705  0.12678877  0.26358317  1  0.064595  1.7e-05  0.108343  0.109893  -1.8e-05  0.988796  0.0
H  H39  1  0.66376541  0.25152076  0.39799396  1  0.076781  7.1e-05  0.099829  0.103186  1.6e-05  1.007448  0.0
C  C40  1  0.22278199  0.55260455  0.43862167  1  0.014552  0.004563  -0.005202  0.025185  0.001375  3.960578  0.002
C  C41  1  0.27201076  0.42775337  0.43991393  1  -0.011537  0.004139  -0.003896  0.03135  0.001261  3.953521  0.002
C  C42  1  0.30402103  0.37622323  0.51522729  1  -0.035337  0.000647  -0.089174  -0.176842  9.2e-05  3.977756  0.0
C  C43  1  0.28766047  0.44006055  0.59113688  1  -0.023561  0.006227  -0.003187  0.033671  0.00191  3.96355  0.004
C  C44  1  0.23548074  0.56492042  0.59053001  1  0.000768  0.002346  -0.004091  0.026364  0.000675  3.965326  0.001
C  C45  1  0.20848465  0.61658398  0.51421419  1  -0.059011  0.002497  -0.086291  -0.169065  0.000773  3.97257  0.001
C  C46  1  0.17959236  0.61727515  0.36418535  1  -0.048315  0.010683  -0.002034  0.078775  0.00324  3.980872  0.006
C  C47  1  0.10873057  0.57480284  0.31160265  1  -0.034655  0.000547  -0.091968  -0.136352  -0.000294  3.988659  0.0
C  C48  1  0.07781674  0.63145427  0.23853185  1  -0.082682  0.006186  -0.081991  -0.084885  0.001876  3.991424  0.003
C  C49  1  0.11211596  0.73533088  0.21690586  1  -0.003418  0.004583  -0.021533  -0.069033  0.001268  4.010759  0.002
C  C50  1  0.17500915  0.78251722  0.27112831  1  -0.02403  0.005039  -0.072133  -0.072679  0.001492  3.950983  0.003
C  C51  1  0.20854373  0.72376600  0.34333914  1  -0.011694  0.000625  -0.091023  -0.138948  -0.000251  3.980338  0.0
C  C52  1  0.08139273  0.79538739  0.13904887  1  1.491199  0.014394  0.252646  0.611842  0.004861  4.083209  0.009
C  C53  1  0.29304213  0.34616827  0.36645084  1  -0.040398  0.004754  -0.002767  0.077605  0.001454  3.996242  0.003
C  C54  1  0.39172095  0.34653980  0.28144132  1  -0.030728  -0.000165  -0.087893  -0.129911  -0.000481  3.986684  0.0
C  C55  1  0.40848210  0.26880476  0.21424588  1  -0.037153  0.003039  -0.075193  -0.076601  0.000894  3.958097  0.002
C  C56  1  0.32409868  0.18997979  0.23008802  1  -0.005168  0.001097  -0.016674  -0.044854  3.6e-05  3.977036  0.0
C  C57  1  0.22600131  0.18828128  0.31494410  1  -0.03162  0.002743  -0.081249  -0.080986  0.000798  3.981723  0.002
C  C58  1  0.21266718  0.26425205  0.38242781  1  -0.040788  1e-06  -0.094893  -0.145591  -0.000301  3.985301  0.0
C  C59  1  0.33284091  0.11068870  0.15844502  1  1.494179  0.008477  0.219651  0.60405  0.0028  4.175573  0.006
C  C60  1  0.32608697  0.37357246  0.66592751  1  -0.003201  0.004011  -0.008552  0.065501  0.001219  3.99604  0.002
C  C61  1  0.29279376  0.26816687  0.68328423  1  -0.080348  0.001643  -0.094544  -0.140548  0.000484  4.003253  0.001
C  C62  1  0.32272253  0.20575753  0.75464214  1  -0.051433  0.002127  -0.085271  -0.089916  0.000594  3.994237  0.001
C  C63  1  0.39080070  0.24502213  0.80991215  1  0.034965  0.002716  -0.014707  -0.035819  0.00061  3.96141  0.001
C  C64  1  0.43014700  0.34716625  0.79153034  1  -0.118114  0.002398  -0.082578  -0.086027  0.000677  3.979748  0.001
C  C65  1  0.39686610  0.41070880  0.72108845  1  0.018815  0.000808  -0.091315  -0.13094  0.000187  3.995257  0.0
C  C66  1  0.42213166  0.17641185  0.88596474  1  1.527186  0.009377  0.23932  0.640309  0.002999  4.14101  0.007
C  C67  1  0.19738226  0.64371351  0.66886039  1  -0.067563  0.001501  -0.003159  0.076111  0.000451  4.004138  0.001
C  C68  1  0.09695399  0.62839104  0.74955162  1  -0.034951  0.000163  -0.087029  -0.128197  -1.2e-05  3.984634  0.0
C  C69  1  0.06217494  0.70078310  0.82343829  1  -0.049889  0.001123  -0.077025  -0.08019  0.000315  3.971916  0.001
C  C70  1  0.13146366  0.78822261  0.81922717  1  0.018131  0.000548  -0.01147  -0.043238  2.2e-05  3.974216  0.0
C  C71  1  0.22876582  0.80609771  0.73890156  1  -0.062345  0.000763  -0.077329  -0.075032  0.000207  3.973834  0.0
C  C72  1  0.25859048  0.73596959  0.66407190  1  -0.000513  0.000424  -0.091676  -0.143045  0.000118  3.982008  0.0
C  C73  1  0.10495144  0.85606074  0.90147885  1  1.541507  0.003089  0.249823  0.644224  0.000932  4.13354  0.002
C  C74  1  0.77717725  0.44764995  0.56147762  1  0.011668  0.004283  -0.005232  0.024801  0.001291  3.960002  0.002
C  C75  1  0.72776278  0.57246216  0.56015584  1  -0.01134  0.003783  -0.003035  0.032181  0.001152  3.953605  0.002
C  C76  1  0.69575587  0.62392185  0.48483349  1  -0.036097  0.000688  -0.088913  -0.175985  0.000126  3.978022  0.0
C  C77  1  0.71241804  0.55994349  0.40894419  1  -0.024251  0.005755  -0.003318  0.032879  0.001765  3.964482  0.003
C  C78  1  0.76499834  0.43509743  0.40950033  1  0.003655  0.002216  -0.004251  0.026306  0.000639  3.964759  0.001
C  C79  1  0.79198195  0.38351136  0.48584150  1  -0.058703  0.002379  -0.086183  -0.168725  0.000739  3.971491  0.001
C  C80  1  0.82017042  0.38304763  0.63598396  1  -0.044696  0.010062  -0.002184  0.079173  0.003053  3.979669  0.006
C  C81  1  0.89164998  0.42515375  0.68839569  1  -0.031462  0.000486  -0.091829  -0.136167  -0.000295  3.986988  0.0
C  C82  1  0.92292520  0.36817748  0.76129265  1  -0.091375  0.005884  -0.081646  -0.084795  0.001785  3.990699  0.003
C  C83  1  0.88815626  0.26448907  0.78292414  1  0.000827  0.004225  -0.021563  -0.068948  0.001159  4.009969  0.002
C  C84  1  0.82415825  0.21786742  0.72901413  1  -0.016156  0.004724  -0.072159  -0.071792  0.0014  3.950549  0.003
C  C85  1  0.79037175  0.27689034  0.65695420  1  -0.014137  0.000555  -0.091047  -0.13911  -0.000261  3.979931  0.0
C  C86  1  0.91931132  0.20405205  0.86058701  1  1.489821  0.013611  0.252545  0.611275  0.004596  4.083566  0.009
C  C87  1  0.70658932  0.65399834  0.63364574  1  -0.031142  0.004611  -0.0033  0.077149  0.00141  3.998967  0.003
C  C88  1  0.60756183  0.65366254  0.71853858  1  -0.040046  -0.000208  -0.088569  -0.131175  -0.000507  3.988472  0.0
C  C89  1  0.59057903  0.73133998  0.78581473  1  -0.037701  0.003002  -0.07407  -0.074945  0.000884  3.959083  0.002
C  C90  1  0.67523608  0.80997433  0.77013382  1  -0.00096  0.000986  -0.01658  -0.043823  -1.3e-05  3.97659  0.0
C  C91  1  0.77363950  0.81167781  0.68536728  1  -0.041282  0.002684  -0.081467  -0.081933  0.00078  3.982919  0.001
C  C92  1  0.78708558  0.73581963  0.61779387  1  -0.055104  -4e-05  -0.094676  -0.144845  -0.000326  3.986111  0.0
C  C93  1  0.66651779  0.88907051  0.84185996  1  1.493633  0.008328  0.220056  0.604587  0.002746  4.174797  0.006
C  C94  1  0.67396529  0.62628993  0.33412909  1  -0.005083  0.003967  -0.008084  0.066891  0.001206  3.994958  0.002
C  C95  1  0.70794787  0.73137705  0.31643897  1  -0.140929  0.001546  -0.095257  -0.141998  0.000442  4.002485  0.001
C  C96  1  0.67813652  0.79353879  0.24497351  1  0.01536  0.002127  -0.085251  -0.088031  0.000605  3.993025  0.001
C  C97  1  0.60938721  0.75440242  0.19001377  1  0.03825  0.00253  -0.014887  -0.036158  0.000544  3.960557  0.001
C  C98  1  0.56919088  0.65265899  0.20881036  1  -0.11674  0.00244  -0.082191  -0.0855  0.000696  3.980172  0.001
C  C99  1  0.60250056  0.58927297  0.27931417  1  0.020741  0.000701  -0.091522  -0.13168  0.00014  3.994203  0.0
C  C100  1  0.57798704  0.82304807  0.11399487  1  1.530606  0.009378  0.238955  0.640336  0.003002  4.139719  0.007
C  C101  1  0.80316800  0.35642588  0.33107356  1  -0.00724  0.001453  -0.003153  0.076275  0.000437  4.005389  0.001
C  C102  1  0.90369835  0.37177168  0.25043589  1  -0.037481  0.000142  -0.087263  -0.128163  -2.3e-05  3.986933  0.0
C  C103  1  0.93833832  0.29958285  0.17645653  1  -0.039626  0.001115  -0.076897  -0.081025  0.000313  3.973795  0.001
C  C104  1  0.86871881  0.21239049  0.18051136  1  -0.017725  0.000508  -0.012333  -0.044009  7e-06  3.97649  0.0
C  C105  1  0.77109187  0.19459500  0.26075548  1  -0.010802  0.000749  -0.076618  -0.074405  0.000203  3.975163  0.0
C  C106  1  0.74153310  0.26444727  0.33568003  1  -0.084829  0.000413  -0.091917  -0.14336  0.000113  3.981777  0.0
C  C107  1  0.89546983  0.14441944  0.09827939  1  1.539429  0.003073  0.250227  0.64593  0.000926  4.13128  0.002
O  O108  1  0.11273316  0.88683156  0.11671665  1  -1.189294  0.003568  -0.346731  -0.597869  -0.000363  2.330514  -0.001
O  O109  1  0.01628910  0.74677927  0.09382061  1  -1.173413  0.005106  -0.313538  -0.461744  0.001242  2.282363  0.004
O  O110  1  0.23811812  0.05294901  0.17186753  1  -1.1471  0.000703  -0.344788  -0.592032  -0.002433  2.218917  -0.003
O  O111  1  0.43383526  0.10316548  0.08178576  1  -1.215842  0.000449  -0.392757  -0.72064  -0.002807  2.370267  -0.004
O  O112  1  0.53573245  0.17976698  0.91346692  1  -1.177452  3.3e-05  -0.364052  -0.632845  -0.003969  2.237376  -0.005
O  O113  1  0.33292615  0.11531998  0.91788395  1  -1.183391  -2.3e-05  -0.387459  -0.650295  -0.002708  2.302177  -0.003
O  O114  1  0.21639582  0.88690618  0.91133636  1  -1.185392  -0.001512  -0.357234  -0.626868  -0.003426  2.244575  -0.004
O  O115  1  0.97028909  0.87495145  0.96112527  1  -1.215818  0.000667  -0.36284  -0.668324  -0.001127  2.348101  -0.001
O  O116  1  0.88702540  0.11300254  0.88304352  1  -1.190472  0.003319  -0.345869  -0.596917  -0.00046  2.330413  -0.001
O  O117  1  0.98570372  0.25192680  0.90545340  1  -1.167345  0.004834  -0.313459  -0.461962  0.001173  2.284405  0.003
O  O118  1  0.76128378  0.94678175  0.82849114  1  -1.139244  0.000647  -0.345546  -0.593141  -0.00245  2.216888  -0.003
O  O119  1  0.56565947  0.89644974  0.91852090  1  -1.219298  0.000389  -0.392847  -0.719856  -0.002853  2.373181  -0.004
O  O120  1  0.46429891  0.81986046  0.08653200  1  -1.176054  4e-06  -0.364632  -0.632613  -0.004008  2.237251  -0.005
O  O121  1  0.66727931  0.88411494  0.08210213  1  -1.184319  -3e-05  -0.386967  -0.650989  -0.002726  2.301646  -0.003
O  O122  1  0.78386144  0.11388221  0.08829020  1  -1.191499  -0.001532  -0.357471  -0.627778  -0.003452  2.2428  -0.004
O  O123  1  0.03044061  0.12498476  0.03882965  1  -1.21075  0.000669  -0.36296  -0.668049  -0.00113  2.348495  -0.001
