# generated using pymatgen
data_CdH8(C3N2)4
_symmetry_space_group_name_H-M   'P 1'
_cell_length_a   6.77923641
_cell_length_b   10.27440673
_cell_length_c   10.90606428
_cell_angle_alpha   118.08410699
_cell_angle_beta   104.14277014
_cell_angle_gamma   89.97868194
_symmetry_Int_Tables_number   1
_chemical_formula_structural   CdH8(C3N2)4
_chemical_formula_sum   'Cd2 H16 C24 N16'
_cell_volume   644.01829379
_cell_formula_units_Z   2
loop_
 _symmetry_equiv_pos_site_id
 _symmetry_equiv_pos_as_xyz
  1  'x, y, z'
loop_
 _atom_site_type_symbol
 _atom_site_label
 _atom_site_symmetry_multiplicity
 _atom_site_fract_x
 _atom_site_fract_y
 _atom_site_fract_z
 _atom_site_occupancy
 _atom_site_hle17_bader_spin_density
 _atom_site_hle17_ddec_charge
 _atom_site_hle17_ddec_spin_density
 _atom_site_hle17_ddec_sum_bond_order
 _atom_site_hle17_magmom
 _atom_site_hse06_10hf_bader_spin_density
 _atom_site_hse06_10hf_ddec_charge
 _atom_site_hse06_10hf_ddec_spin_density
 _atom_site_hse06_10hf_ddec_sum_bond_order
 _atom_site_hse06_10hf_magmom
 _atom_site_hse06_bader_spin_density
 _atom_site_hse06_ddec_charge
 _atom_site_hse06_ddec_spin_density
 _atom_site_hse06_ddec_sum_bond_order
 _atom_site_hse06_magmom
 _atom_site_pbe_bader_spin_density
 _atom_site_pbe_cm5_charge
 _atom_site_pbe_ddec_charge
 _atom_site_pbe_ddec_spin_density
 _atom_site_pbe_ddec_sum_bond_order
 _atom_site_pbe_magmom
Cd  Cd0  1  0.74995635  0.58051604  0.99984587  1  0  1.025487  0  1.914183  0  0  0.834277  0  2.392578  0  0  0.880777  0  2.353691  0  0  0.789124  0.800382  0  2.418777  0
Cd  Cd1  1  0.25004274  0.41948513  0.00015797  1  0  1.025533  0  1.914158  0  0  0.834321  0  2.392552  0  0  0.880821  0  2.353664  0  0  0.789152  0.800425  0  2.418754  0
H  H2  1  0.03193351  0.83517255  0.32598085  1  0  0.077014  0  0.93725  0  0  0.085011  0  1.001961  0  0  0.086737  0  1.000861  0  0  0.116679  0.083633  0  1.002995  0
H  H3  1  0.46788034  0.50942134  0.67376810  1  0  0.077224  0  0.936915  0  0  0.085252  0  1.001842  0  0  0.087022  0  1.000643  0  0  0.116567  0.083869  0  1.002887  0
H  H4  1  0.96807014  0.16482861  0.67402092  1  0  0.076985  0  0.937272  0  0  0.084972  0  1.001995  0  0  0.086698  0  1.000897  0  0  0.116681  0.083599  0  1.003035  0
H  H5  1  0.53212371  0.49058203  0.32623288  1  0  0.077212  0  0.936832  0  0  0.085226  0  1.001781  0  0  0.086995  0  1.000584  0  0  0.116553  0.083836  0  1.002827  0
H  H6  1  0.13886796  0.11086690  0.47046188  1  0  0.105858  0  0.975001  0  0  0.11251  0  1.040167  0  0  0.115166  0  1.040179  0  0  0.105045  0.110469  0  1.040803  0
H  H7  1  0.36087106  0.64073198  0.52929490  1  0  0.106371  0  0.974226  0  0  0.112702  0  1.03966  0  0  0.115322  0  1.039699  0  0  0.10529  0.110668  0  1.040274  0
H  H8  1  0.86112980  0.88913535  0.52953490  1  0  0.105835  0  0.974937  0  0  0.112469  0  1.040133  0  0  0.115121  0  1.040154  0  0  0.104997  0.110431  0  1.040762  0
H  H9  1  0.63912851  0.35926360  0.47070105  1  0  0.106357  0  0.974291  0  0  0.112702  0  1.039712  0  0  0.115324  0  1.039748  0  0  0.105275  0.11066  0  1.040345  0
H  H10  1  0.02291876  0.26864742  0.35378289  1  0  0.110562  0  0.938787  0  0  0.117584  0  1.005715  0  0  0.120197  0  1.00382  0  0  0.110821  0.115539  0  1.00759  0
H  H11  1  0.47703118  0.91511752  0.64602680  1  0  0.110171  0  0.940018  0  0  0.117377  0  1.006732  0  0  0.119981  0  1.004865  0  0  0.110637  0.11534  0  1.008597  0
H  H12  1  0.97707860  0.73135262  0.64621652  1  0  0.11055  0  0.938809  0  0  0.117585  0  1.005723  0  0  0.1202  0  1.003826  0  0  0.110817  0.115541  0  1.007593  0
H  H13  1  0.52296789  0.08488361  0.35396877  1  0  0.110128  0  0.940083  0  0  0.117337  0  1.00679  0  0  0.119939  0  1.004929  0  0  0.110638  0.115298  0  1.008659  0
H  H14  1  0.84968056  0.27911082  0.12831987  1  0  0.101661  0  0.96591  0  0  0.111235  0  1.030298  0  0  0.112919  0  1.03089  0  0  0.10588  0.110144  0  1.029817  0
H  H15  1  0.65023537  0.15077532  0.87142620  1  0  0.102188  0  0.966131  0  0  0.111215  0  1.031073  0  0  0.112875  0  1.031718  0  0  0.105881  0.110105  0  1.030613  0
H  H16  1  0.15031811  0.72088811  0.87167925  1  0  0.101599  0  0.965943  0  0  0.111189  0  1.030319  0  0  0.112871  0  1.030909  0  0  0.105892  0.110098  0  1.029838  0
H  H17  1  0.34976158  0.84922249  0.12857125  1  0  0.102216  0  0.966124  0  0  0.111245  0  1.031057  0  0  0.112904  0  1.031703  0  0  0.105886  0.110135  0  1.030593  0
C  C18  1  0.98299268  0.90692044  0.27884390  1  0  0.150698  0  3.696926  0  0  0.117398  0  3.954921  0  0  0.125705  0  3.972517  0  0  0.057215  0.112254  0  3.942617  0
C  C19  1  0.51686160  0.62827473  0.72092129  1  0  0.149291  0  3.698124  0  0  0.11571  0  3.956172  0  0  0.124009  0  3.97379  0  0  0.056438  0.110571  0  3.943846  0
C  C20  1  0.01700661  0.09308182  0.72115587  1  0  0.15067  0  3.696941  0  0  0.117364  0  3.954935  0  0  0.12567  0  3.97253  0  0  0.057188  0.11222  0  3.94264  0
C  C21  1  0.48313971  0.37172198  0.27907909  1  0  0.149353  0  3.697925  0  0  0.115788  0  3.955984  0  0  0.124087  0  3.973608  0  0  0.056495  0.110664  0  3.943636  0
C  C22  1  0.04180421  0.06178117  0.35964450  1  0  -0.114162  0  3.718685  0  0  -0.125416  0  3.969298  0  0  -0.133564  0  3.9918  0  0  -0.081169  -0.119978  0  3.9542  0
C  C23  1  0.45803155  0.70237817  0.64007191  1  0  -0.113499  0  3.720266  0  0  -0.124129  0  3.970278  0  0  -0.132266  0  3.992912  0  0  -0.080784  -0.118691  0  3.955153  0
C  C24  1  0.95819894  0.93822555  0.64035873  1  0  -0.114089  0  3.718605  0  0  -0.125312  0  3.969208  0  0  -0.133461  0  3.991711  0  0  -0.081121  -0.119868  0  3.954089  0
C  C25  1  0.54197149  0.29761965  0.35993014  1  0  -0.11351  0  3.720328  0  0  -0.12416  0  3.970357  0  0  -0.132297  0  3.99299  0  0  -0.080793  -0.118723  0  3.95525  0
C  C26  1  0.98175831  0.14782639  0.29416448  1  0  -0.036835  0  3.668492  0  0  -0.061589  0  3.915618  0  0  -0.058893  0  3.934548  0  0  -0.05774  -0.062952  0  3.902225  0
C  C27  1  0.51802338  0.85384098  0.70562124  1  0  -0.036969  0  3.671542  0  0  -0.061758  0  3.918237  0  0  -0.05907  0  3.937138  0  0  -0.057791  -0.06313  0  3.90486  0
C  C28  1  0.01824554  0.85217588  0.70583782  1  0  -0.03684  0  3.66852  0  0  -0.061625  0  3.915652  0  0  -0.058934  0  3.934595  0  0  -0.05771  -0.062986  0  3.902252  0
C  C29  1  0.48198068  0.14616242  0.29438525  1  0  -0.036894  0  3.67157  0  0  -0.061673  0  3.918294  0  0  -0.058987  0  3.937199  0  0  -0.057789  -0.063044  0  3.904919  0
C  C30  1  0.86585975  0.07820473  0.14743811  1  0  0.018724  0  3.791344  0  0  0.036269  0  4.020792  0  0  0.03363  0  4.044877  0  0  -0.002878  0.038259  0  4.004439  0
C  C31  1  0.63389088  0.93078845  0.85235470  1  0  0.018905  0  3.790509  0  0  0.036173  0  4.020643  0  0  0.03354  0  4.044748  0  0  -0.002805  0.038156  0  4.004276  0
C  C32  1  0.13414258  0.92179754  0.85256396  1  0  0.018848  0  3.79139  0  0  0.036414  0  4.020831  0  0  0.033777  0  4.044915  0  0  -0.002824  0.038403  0  4.004482  0
C  C33  1  0.36610972  0.06921270  0.14764569  1  0  0.018914  0  3.790412  0  0  0.036092  0  4.020645  0  0  0.033462  0  4.044752  0  0  -0.002814  0.038084  0  4.004267  0
C  C34  1  0.81037281  0.92122246  0.07478433  1  0  0.129008  0  3.754428  0  0  0.12313  0  3.990031  0  0  0.127894  0  4.011215  0  0  0.114703  0.119953  0  3.975864  0
C  C35  1  0.68961749  0.84639650  0.92500398  1  0  0.12931  0  3.753774  0  0  0.122657  0  3.990401  0  0  0.127397  0  4.011614  0  0  0.114409  0.119504  0  3.976206  0
C  C36  1  0.18962434  0.07877646  0.92521273  1  0  0.128964  0  3.754482  0  0  0.123048  0  3.990083  0  0  0.12781  0  4.011267  0  0  0.114684  0.119872  0  3.975923  0
C  C37  1  0.31037793  0.15360131  0.07499232  1  0  0.129287  0  3.75371  0  0  0.122715  0  3.990278  0  0  0.127455  0  4.011489  0  0  0.114396  0.119552  0  3.976091  0
C  C38  1  0.80516493  0.15916276  0.07092068  1  0  -0.08873  0  3.723976  0  0  -0.113899  0  3.983591  0  0  -0.116278  0  4.005784  0  0  -0.085212  -0.112527  0  3.96887  0
C  C39  1  0.69459808  0.08821264  0.92886294  1  0  -0.089087  0  3.723033  0  0  -0.113588  0  3.982574  0  0  -0.11598  0  4.004736  0  0  -0.085486  -0.112199  0  3.967924  0
C  C40  1  0.19483394  0.84083726  0.92907529  1  0  -0.088659  0  3.72403  0  0  -0.113842  0  3.983637  0  0  -0.116217  0  4.005826  0  0  -0.085225  -0.112471  0  3.968917  0
C  C41  1  0.30540059  0.91178627  0.07113159  1  0  -0.089185  0  3.723097  0  0  -0.113657  0  3.982674  0  0  -0.11605  0  4.004839  0  0  -0.085503  -0.112271  0  3.968021  0
N  N42  1  0.01404399  0.52743922  0.14363587  1  0  -0.618531  0  2.763302  0  0  -0.570736  0  3.078079  0  0  -0.596523  0  3.083536  0  0  -0.334439  -0.552117  0  3.073171  0
N  N43  1  0.48564658  0.38394071  0.85626189  1  0  -0.618073  0  2.761875  0  0  -0.570431  0  3.076383  0  0  -0.596215  0  3.081838  0  0  -0.333752  -0.55181  0  3.071485  0
N  N44  1  0.98595835  0.47256307  0.85637079  1  0  -0.618507  0  2.763349  0  0  -0.570713  0  3.078126  0  0  -0.596489  0  3.083568  0  0  -0.334419  -0.552101  0  3.073228  0
N  N45  1  0.51435423  0.61606156  0.14373994  1  0  -0.618078  0  2.762334  0  0  -0.57043  0  3.076839  0  0  -0.596199  0  3.082289  0  0  -0.333853  -0.551826  0  3.071946  0
N  N46  1  0.01447706  0.53680902  0.25826875  1  0  0.391981  0  4.251317  0  0  0.422582  0  4.537358  0  0  0.43878  0  4.566223  0  0  0.075553  0.411797  0  4.516993  0
N  N47  1  0.48503990  0.27860838  0.74164896  1  0  0.391309  0  4.251699  0  0  0.422185  0  4.537381  0  0  0.438381  0  4.566213  0  0  0.074285  0.411391  0  4.51706  0
N  N48  1  0.98552508  0.46319219  0.74174290  1  0  0.39208  0  4.250898  0  0  0.422689  0  4.536947  0  0  0.438889  0  4.565807  0  0  0.075572  0.411904  0  4.516588  0
N  N49  1  0.51495823  0.72137938  0.25833783  1  0  0.391536  0  4.251647  0  0  0.422412  0  4.537304  0  0  0.438608  0  4.566144  0  0  0.074524  0.411622  0  4.51697  0
N  N50  1  0.01491588  0.54427429  0.36857545  1  0  -0.383358  0  2.3782  0  0  -0.383099  0  2.601281  0  0  -0.389554  0  2.610705  0  0  -0.191144  -0.379256  0  2.596448  0
N  N51  1  0.48441586  0.17572176  0.63139164  1  0  -0.383121  0  2.379584  0  0  -0.382938  0  2.602554  0  0  -0.389381  0  2.611953  0  0  -0.190314  -0.379062  0  2.597715  0
N  N52  1  0.98508502  0.45572020  0.63142480  1  0  -0.383514  0  2.377802  0  0  -0.383265  0  2.600876  0  0  -0.389741  0  2.610319  0  0  -0.191216  -0.379408  0  2.596037  0
N  N53  1  0.51557755  0.82428162  0.36860956  1  0  -0.383417  0  2.379118  0  0  -0.383243  0  2.602069  0  0  -0.389698  0  2.611474  0  0  -0.190538  -0.379365  0  2.597224  0
N  N54  1  0.86878289  0.83924542  0.14180787  1  0  -0.35678  0  3.266403  0  0  -0.288086  0  3.532685  0  0  -0.306523  0  3.551584  0  0  -0.327767  -0.275404  0  3.518887  0
N  N55  1  0.63109596  0.69747500  0.85793246  1  0  -0.356584  0  3.265963  0  0  -0.287562  0  3.532387  0  0  -0.306042  0  3.551406  0  0  -0.327196  -0.274877  0  3.518571  0
N  N56  1  0.13121731  0.16075351  0.85819148  1  0  -0.356785  0  3.266359  0  0  -0.288069  0  3.532624  0  0  -0.306508  0  3.551537  0  0  -0.327784  -0.275386  0  3.518832  0
N  N57  1  0.36890008  0.30252614  0.14206540  1  0  -0.356623  0  3.2659  0  0  -0.287611  0  3.532309  0  0  -0.306092  0  3.551331  0  0  -0.327211  -0.274926  0  3.518491  0
