# generated using pymatgen
data_RbH7C10(NO2)4
_symmetry_space_group_name_H-M   'P 1'
_cell_length_a   5.09762326
_cell_length_b   8.12607252
_cell_length_c   9.71344872
_cell_angle_alpha   111.41472667
_cell_angle_beta   101.12051991
_cell_angle_gamma   92.51814374
_symmetry_Int_Tables_number   1
_chemical_formula_structural   RbH7C10(NO2)4
_chemical_formula_sum   'Rb1 H7 C10 N4 O8'
_cell_volume   364.66304890
_cell_formula_units_Z   1
loop_
 _symmetry_equiv_pos_site_id
 _symmetry_equiv_pos_as_xyz
  1  'x, y, z'
loop_
 _atom_site_type_symbol
 _atom_site_label
 _atom_site_symmetry_multiplicity
 _atom_site_fract_x
 _atom_site_fract_y
 _atom_site_fract_z
 _atom_site_occupancy
 _atom_site_pbe_bader_charge
 _atom_site_pbe_bader_spin_density
 _atom_site_pbe_cm5_charge
 _atom_site_pbe_ddec_charge
 _atom_site_pbe_ddec_spin_density
 _atom_site_pbe_ddec_sum_bond_order
 _atom_site_pbe_magmom
Rb  Rb0  1  0.99999950  0.99999891  0.99999970  1  0.907432  0  0.808681  0.879641  0  0.743532  0
H  H1  1  0.99999999  0.50000010  0.49999952  1  0.639544  0  0.281183  0.352627  0  1.003267  0
H  H2  1  0.84657849  0.39911985  0.02494651  1  0.548826  0  0.313796  0.297413  0  0.982184  0
H  H3  1  0.15342777  0.60088306  0.97505509  1  0.548764  0  0.313765  0.297375  0  0.982205  0
H  H4  1  0.76811905  0.88581888  0.32703198  1  0.48867  0  0.361412  0.317325  0  0.863046  0
H  H5  1  0.23188295  0.11418269  0.67297702  1  0.488671  0  0.361444  0.317287  0  0.863103  0
H  H6  1  0.45451493  0.76287810  0.42714896  1  0.173909  0  0.138194  0.116646  0  0.972087  0
H  H7  1  0.54548258  0.23712081  0.57285156  1  0.173908  0  0.138192  0.116633  0  0.972103  0
C  C8  1  0.25758183  0.42382401  0.34495337  1  1.606525  0  0.205422  0.608714  0  4.211387  0
C  C9  1  0.74241742  0.57617357  0.65504486  1  1.606503  0  0.205419  0.608734  0  4.211349  0
C  C10  1  0.45951297  0.49474160  0.27935116  1  0.101432  0  -0.035527  -0.272014  0  3.913904  0
C  C11  1  0.54048653  0.50525731  0.72064647  1  0.101446  0  -0.035541  -0.272049  0  3.913828  0
C  C12  1  0.57779427  0.38200825  0.15824769  1  1.341663  0  0.239663  0.542383  0  4.078805  0
C  C13  1  0.42220748  0.61799199  0.84175161  1  1.341633  0  0.239656  0.542414  0  4.078634  0
C  C14  1  0.53688625  0.67445346  0.33608606  1  0.317595  0  0.07319  0.152504  0  3.921183  0
C  C15  1  0.46311326  0.32554545  0.66391467  1  0.317586  0  0.073202  0.152523  0  3.921074  0
C  C16  1  0.84406168  0.65414356  0.17284673  1  1.868238  0  0.350749  0.652381  0  4.168271  0
C  C17  1  0.15594033  0.34585801  0.82715197  1  1.867822  0  0.350709  0.652369  0  4.168219  0
N  N18  1  0.76392752  0.47552815  0.11410915  1  -1.261436  0  -0.390192  -0.457359  0  3.484926  0
N  N19  1  0.23607274  0.52447476  0.88588979  1  -1.261345  0  -0.390119  -0.457305  0  3.484864  0
N  N20  1  0.71899729  0.75143880  0.28503020  1  -1.246936  0  -0.369568  -0.323844  0  3.573009  0
N  N21  1  0.28100272  0.24856277  0.71497242  1  -1.246555  0  -0.36957  -0.323763  0  3.573006  0
O  O22  1  0.20041332  0.26115503  0.31061158  1  -1.178469  0  -0.382794  -0.584352  0  2.111452  0
O  O23  1  0.79958793  0.73884254  0.68938685  1  -1.178434  0  -0.382794  -0.584359  0  2.111443  0
O  O24  1  0.15441269  0.55030654  0.43831550  1  -1.177527  0  -0.336133  -0.55132  0  2.304015  0
O  O25  1  0.84558682  0.44969237  0.56168214  1  -1.177546  0  -0.336128  -0.55133  0  2.303964  0
O  O26  1  0.53056725  0.21854311  0.08908777  1  -1.165758  0  -0.361762  -0.53311  0  2.159579  0
O  O27  1  0.46944250  0.78145713  0.91091337  1  -1.165749  0  -0.361775  -0.533133  0  2.159543  0
O  O28  1  0.01364065  0.72702716  0.12934111  1  -1.190228  0  -0.351393  -0.581505  0  2.195261  0
O  O29  1  0.98635935  0.27297441  0.87065945  1  -1.190184  0  -0.351383  -0.581526  0  2.195184  0
