# generated using pymatgen
data_CdH10C14(NO2)2
_symmetry_space_group_name_H-M   'P 1'
_cell_length_a   10.59029787
_cell_length_b   10.59029421
_cell_length_c   18.09926263
_cell_angle_alpha   89.99987411
_cell_angle_beta   89.99993997
_cell_angle_gamma   91.48528701
_symmetry_Int_Tables_number   1
_chemical_formula_structural   CdH10C14(NO2)2
_chemical_formula_sum   'Cd4 H40 C56 N8 O16'
_cell_volume   2029.22938035
_cell_formula_units_Z   4
loop_
 _symmetry_equiv_pos_site_id
 _symmetry_equiv_pos_as_xyz
  1  'x, y, z'
loop_
 _atom_site_type_symbol
 _atom_site_label
 _atom_site_symmetry_multiplicity
 _atom_site_fract_x
 _atom_site_fract_y
 _atom_site_fract_z
 _atom_site_occupancy
 _atom_site_pbe_bader_charge
 _atom_site_pbe_bader_spin_density
 _atom_site_pbe_cm5_charge
 _atom_site_pbe_ddec_charge
 _atom_site_pbe_ddec_spin_density
 _atom_site_pbe_ddec_sum_bond_order
 _atom_site_pbe_magmom
Cd  Cd0  1  0.10917830  0.12948861  0.46286349  1  1.270169  0  0.784311  0.930899  0  2.016862  0
Cd  Cd1  1  0.87051171  0.89082200  0.53713651  1  1.270166  0  0.784306  0.930901  0  2.016844  0
Cd  Cd2  1  0.37051212  0.39081974  0.96286372  1  1.270207  0  0.784311  0.93088  0  2.016882  0
Cd  Cd3  1  0.60917977  0.62948807  0.03713628  1  1.270217  0  0.784309  0.930872  0  2.016844  0
H  H4  1  0.25127184  0.86257070  0.18637381  1  0.116226  0  0.111124  0.122347  0  1.00768  0
H  H5  1  0.13742992  0.74872889  0.81362654  1  0.116164  0  0.111118  0.122309  0  1.007694  0
H  H6  1  0.63742634  0.24872626  0.68637291  1  0.116262  0  0.111098  0.12229  0  1.007699  0
H  H7  1  0.75127371  0.36257338  0.31362612  1  0.116233  0  0.111111  0.122312  0  1.007698  0
H  H8  1  0.46597493  0.83716631  0.94650362  1  0.095467  0  0.118796  0.092364  0  0.988379  0
H  H9  1  0.16283405  0.53402504  0.05349736  1  0.095451  0  0.118802  0.092373  0  0.988385  0
H  H10  1  0.66283284  0.03402809  0.44650194  1  0.095451  0  0.118788  0.092349  0  0.988362  0
H  H11  1  0.96597256  0.33716893  0.55349662  1  0.095479  0  0.118807  0.092374  0  0.988363  0
H  H12  1  0.08315220  0.02656604  0.30632680  1  0.14066  0  0.101219  0.121891  0  1.084205  0
H  H13  1  0.97343327  0.91684779  0.69367378  1  0.14062  0  0.101235  0.121923  0  1.084166  0
H  H14  1  0.47343208  0.41684797  0.80632636  1  0.140601  0  0.101219  0.121894  0  1.084175  0
H  H15  1  0.58315338  0.52656585  0.19367312  1  0.140642  0  0.101227  0.121892  0  1.084184  0
H  H16  1  0.75849018  0.77750611  0.28209252  1  0.081731  0  0.100507  0.10582  0  1.050193  0
H  H17  1  0.22249355  0.24151017  0.71790803  1  0.081742  0  0.100504  0.105811  0  1.050197  0
H  H18  1  0.72249362  0.74150869  0.78209249  1  0.081752  0  0.100506  0.105814  0  1.050197  0
H  H19  1  0.25849199  0.27750481  0.21790807  1  0.081752  0  0.100515  0.10583  0  1.050195  0
H  H20  1  0.96776984  0.89732214  0.08981107  1  0.103174  0  0.099451  0.103836  0  1.050289  0
H  H21  1  0.10267704  0.03222962  0.91018951  1  0.103158  0  0.099444  0.103823  0  1.050292  0
H  H22  1  0.60267559  0.53223071  0.58981079  1  0.103177  0  0.099445  0.103846  0  1.050301  0
H  H23  1  0.46776942  0.39732384  0.41018924  1  0.103174  0  0.099445  0.103847  0  1.050295  0
H  H24  1  0.09896243  0.04992960  0.05188603  1  0.060316  0  0.112629  0.095775  0  0.96747  0
H  H25  1  0.95007038  0.90103651  0.94811455  1  0.060238  0  0.11263  0.095804  0  0.967443  0
H  H26  1  0.45006874  0.40103859  0.55188617  1  0.060259  0  0.112627  0.095779  0  0.967427  0
H  H27  1  0.59896126  0.54993218  0.44811330  1  0.060331  0  0.112634  0.095795  0  0.967425  0
H  H28  1  0.22591884  0.14550695  0.08121198  1  0.151624  0  0.120484  0.129278  0  0.987653  0
H  H29  1  0.85449231  0.77408048  0.91878805  1  0.151615  0  0.12049  0.129299  0  0.987613  0
H  H30  1  0.35449061  0.27408244  0.58121179  1  0.151626  0  0.120495  0.129292  0  0.987595  0
H  H31  1  0.72591867  0.64550967  0.41878714  1  0.151623  0  0.120492  0.129288  0  0.987614  0
H  H32  1  0.41137275  0.70044858  0.15892855  1  0.119111  0  0.118518  0.091587  0  0.993691  0
H  H33  1  0.29955360  0.58862910  0.84107247  1  0.119025  0  0.118513  0.091577  0  0.993696  0
H  H34  1  0.79954912  0.08862655  0.65892709  1  0.119162  0  0.11853  0.091572  0  0.993689  0
H  H35  1  0.91137362  0.20045113  0.34107205  1  0.119142  0  0.118522  0.091554  0  0.993656  0
H  H36  1  0.30844776  0.00761858  0.96583980  1  0.123502  0  0.107264  0.128998  0  1.036529  0
H  H37  1  0.99238183  0.69155172  0.03416031  1  0.123439  0  0.10727  0.128993  0  1.036527  0
H  H38  1  0.49238037  0.19155413  0.46583914  1  0.123481  0  0.107265  0.128983  0  1.036556  0
H  H39  1  0.80844546  0.50761986  0.53415986  1  0.123499  0  0.107275  0.128983  0  1.036531  0
H  H40  1  0.17805134  0.10718661  0.20510602  1  0.450534  0  0.305749  0.258912  0  0.97689  0
H  H41  1  0.89281299  0.82194820  0.79489401  1  0.45053  0  0.305756  0.258927  0  0.976822  0
H  H42  1  0.39281199  0.32194783  0.70510630  1  0.450521  0  0.305753  0.258908  0  0.976819  0
H  H43  1  0.67805140  0.60718697  0.29489318  1  0.450511  0  0.30577  0.258917  0  0.976914  0
C  C44  1  0.03483217  0.97776782  0.19411390  1  0.402275  0  0.097283  0.240073  0  4.106514  0
C  C45  1  0.02223169  0.96516702  0.80588634  1  0.402212  0  0.097309  0.240157  0  4.106472  0
C  C46  1  0.52222905  0.46516815  0.69411400  1  0.400004  0  0.097343  0.240148  0  4.106458  0
C  C47  1  0.53483216  0.47776954  0.30588547  1  0.40003  0  0.097319  0.240151  0  4.10649  0
C  C48  1  0.90493659  0.89757416  0.38452751  1  1.493805  0  0.201606  0.574743  0  4.180527  0
C  C49  1  0.10242453  0.09506314  0.61547305  1  1.493807  0  0.201588  0.574697  0  4.180606  0
C  C50  1  0.60242536  0.59506224  0.88452773  1  1.493819  0  0.201548  0.57459  0  4.180726  0
C  C51  1  0.40493765  0.39757417  0.11547283  1  1.493781  0  0.201612  0.57472  0  4.180692  0
C  C52  1  0.85820844  0.82725197  0.18153091  1  -0.066161  0  -0.0236  -0.009985  0  4.019466  0
C  C53  1  0.17274708  0.14179101  0.81846911  1  -0.066326  0  -0.023592  -0.00994  0  4.019378  0
C  C54  1  0.67274640  0.64179177  0.68153156  1  -0.066407  0  -0.023572  -0.010005  0  4.019444  0
C  C55  1  0.35820913  0.32725215  0.31846901  1  -0.066153  0  -0.023596  -0.009984  0  4.019398  0
C  C56  1  0.29590327  0.86010950  0.13223126  1  -0.052319  0  -0.086528  -0.184781  0  3.955773  0
C  C57  1  0.13989139  0.70409664  0.86776911  1  -0.052251  0  -0.086473  -0.184643  0  3.955733  0
C  C58  1  0.63988791  0.20409516  0.63223095  1  -0.052306  0  -0.086506  -0.184665  0  3.95581  0
C  C59  1  0.79590409  0.36011101  0.36776810  1  -0.052354  0  -0.086526  -0.184752  0  3.955807  0
C  C60  1  0.41478877  0.84584705  0.99853780  1  0.419123  0  0.04421  0.095661  0  3.968962  0
C  C61  1  0.15415371  0.58521167  0.00146262  1  0.419133  0  0.04424  0.095678  0  3.968987  0
C  C62  1  0.65415240  0.08521263  0.49853663  1  0.419117  0  0.044257  0.095765  0  3.968918  0
C  C63  1  0.91478744  0.34584894  0.50146246  1  0.419255  0  0.044229  0.095691  0  3.968945  0
C  C64  1  0.77370838  0.74627326  0.13388982  1  1.496701  0  0.19111  0.556395  0  4.220436  0
C  C65  1  0.25372609  0.22629212  0.86611020  1  1.496883  0  0.191116  0.556389  0  4.220388  0
C  C66  1  0.75372455  0.72629399  0.63389087  1  1.496888  0  0.191128  0.55649  0  4.220365  0
C  C67  1  0.27370803  0.24627324  0.36611025  1  1.496708  0  0.191114  0.556408  0  4.220391  0
C  C68  1  0.01848049  0.97218119  0.27136899  1  -0.093622  0  -0.100107  -0.214377  0  3.92825  0
C  C69  1  0.02781804  0.98151860  0.72863125  1  -0.093612  0  -0.100142  -0.214483  0  3.928195  0
C  C70  1  0.52781620  0.48151852  0.77136907  1  -0.093617  0  -0.100117  -0.214429  0  3.928179  0
C  C71  1  0.51848157  0.47218227  0.22863095  1  -0.093483  0  -0.100088  -0.214389  0  3.928226  0
C  C72  1  0.83783928  0.82942445  0.25777601  1  0.011203  0  -0.099716  -0.152186  0  3.970619  0
C  C73  1  0.17057393  0.16216077  0.74222455  1  0.011213  0  -0.099721  -0.152194  0  3.970583  0
C  C74  1  0.67057311  0.66216030  0.75777609  1  0.011102  0  -0.099718  -0.152174  0  3.970636  0
C  C75  1  0.33784010  0.32942492  0.24222447  1  0.011214  0  -0.099736  -0.152219  0  3.970656  0
C  C76  1  0.95606414  0.90048249  0.14951350  1  -0.021711  0  -0.099208  -0.212304  0  3.922752  0
C  C77  1  0.09951624  0.04393532  0.85048707  1  -0.021652  0  -0.099184  -0.212309  0  3.922725  0
C  C78  1  0.59951657  0.54393623  0.64951322  1  -0.021832  0  -0.099217  -0.212356  0  3.922767  0
C  C79  1  0.45606477  0.40048349  0.35048681  1  -0.021836  0  -0.099238  -0.212398  0  3.92275  0
C  C80  1  0.26651876  0.94863473  0.07796823  1  -0.013161  0  0.016749  0.14654  0  3.918526  0
C  C81  1  0.05136595  0.73348113  0.92203155  1  -0.012679  0  0.016759  0.146559  0  3.918584  0
C  C82  1  0.55136542  0.23348180  0.57796742  1  -0.012706  0  0.016701  0.146464  0  3.918679  0
C  C83  1  0.76651853  0.44863507  0.42203158  1  -0.012632  0  0.016756  0.146505  0  3.91862  0
C  C84  1  0.92069666  0.90037672  0.30277059  1  0.04274  0  -0.027313  -0.021556  0  4.05376  0
C  C85  1  0.09962330  0.07930366  0.69722887  1  0.042742  0  -0.027271  -0.021465  0  4.053646  0
C  C86  1  0.59962050  0.57930393  0.80277137  1  0.042839  0  -0.027291  -0.021453  0  4.053731  0
C  C87  1  0.42069663  0.40037734  0.19722864  1  0.042744  0  -0.02727  -0.02144  0  4.053756  0
C  C88  1  0.17649795  0.05485424  0.09253241  1  0.329881  0  -0.050261  -0.072476  0  3.952254  0
C  C89  1  0.94514582  0.82350112  0.90746764  1  0.329912  0  -0.050284  -0.07258  0  3.952289  0
C  C90  1  0.44514504  0.32350118  0.59253263  1  0.329868  0  -0.05028  -0.072517  0  3.952269  0
C  C91  1  0.67649874  0.55485514  0.40746686  1  0.329835  0  -0.050295  -0.072529  0  3.952278  0
C  C92  1  0.38466358  0.76915503  0.11720416  1  0.449589  0  0.046198  0.100671  0  3.971004  0
C  C93  1  0.23084623  0.61533724  0.88279627  1  0.44966  0  0.046182  0.100636  0  3.97102  0
C  C94  1  0.73084373  0.11533772  0.61720330  1  0.449545  0  0.046183  0.100673  0  3.971009  0
C  C95  1  0.88466343  0.26915740  0.38279581  1  0.449579  0  0.046255  0.100824  0  3.970951  0
C  C96  1  0.32711452  0.93927890  0.00935934  1  0.008926  0  -0.085038  -0.182425  0  3.925604  0
C  C97  1  0.06072131  0.67288508  0.99064046  1  0.008615  0  -0.085084  -0.182444  0  3.925661  0
C  C98  1  0.56071996  0.17288599  0.50935914  1  0.008433  0  -0.085038  -0.182425  0  3.925643  0
C  C99  1  0.82711416  0.43928086  0.49063989  1  0.008321  0  -0.085084  -0.182424  0  3.925656  0
N  N100  1  0.12674268  0.05896977  0.16644483  1  -1.235138  0  -0.444344  -0.332365  0  3.584651  0
N  N101  1  0.94103026  0.87325660  0.83355520  1  -1.235146  0  -0.444357  -0.33239  0  3.58459  0
N  N102  1  0.44102935  0.37325732  0.66644445  1  -1.232746  0  -0.444323  -0.332314  0  3.584597  0
N  N103  1  0.62674267  0.55897186  0.33355447  1  -1.23289  0  -0.44435  -0.332352  0  3.584664  0
N  N104  1  0.44396666  0.76215300  0.05163462  1  -1.239452  0  -0.341716  -0.269162  0  3.565346  0
N  N105  1  0.23784911  0.55603366  0.94836583  1  -1.239593  0  -0.341735  -0.269207  0  3.565365  0
N  N106  1  0.73784579  0.05603531  0.55163436  1  -1.239512  0  -0.34172  -0.269241  0  3.565413  0
N  N107  1  0.94396639  0.26215607  0.44836532  1  -1.239356  0  -0.341773  -0.269292  0  3.565458  0
O  O108  1  0.68064105  0.68610711  0.16323970  1  -1.17295  0  -0.329683  -0.566323  0  2.209027  0
O  O109  1  0.31389194  0.31935772  0.83676086  1  -1.172893  0  -0.329686  -0.566314  0  2.209042  0
O  O110  1  0.81388753  0.81936319  0.66324116  1  -1.172898  0  -0.329688  -0.566343  0  2.20901  0
O  O111  1  0.18064265  0.18610724  0.33676050  1  -1.172937  0  -0.329696  -0.566326  0  2.209034  0
O  O112  1  0.99155108  0.94649478  0.42712256  1  -1.178998  0  -0.345745  -0.592408  0  2.316059  0
O  O113  1  0.05350657  0.00845049  0.57287691  1  -1.178551  0  -0.34575  -0.592425  0  2.316151  0
O  O114  1  0.55350637  0.50844940  0.92712291  1  -1.178543  0  -0.34574  -0.592364  0  2.316134  0
O  O115  1  0.49155033  0.44649301  0.07287656  1  -1.179003  0  -0.345765  -0.592436  0  2.316152  0
O  O116  1  0.79589751  0.73993767  0.06432510  1  -1.139427  0  -0.328316  -0.553748  0  2.21481  0
O  O117  1  0.26006083  0.20410202  0.93567603  1  -1.139447  0  -0.328328  -0.553776  0  2.214778  0
O  O118  1  0.76006604  0.70410335  0.56432617  1  -1.139359  0  -0.328351  -0.553823  0  2.214753  0
O  O119  1  0.29589798  0.23993835  0.43567551  1  -1.139439  0  -0.32831  -0.553745  0  2.214763  0
O  O120  1  0.80700236  0.84530100  0.41251822  1  -1.154043  0  -0.315646  -0.531687  0  2.181956  0
O  O121  1  0.15469969  0.19299868  0.58748177  1  -1.154026  0  -0.315655  -0.531683  0  2.18188  0
O  O122  1  0.65469857  0.69299668  0.91251774  1  -1.154065  0  -0.315631  -0.53163  0  2.182006  0
O  O123  1  0.30700253  0.34530109  0.08748170  1  -1.154037  0  -0.315658  -0.531688  0  2.181976  0
