# generated using pymatgen
data_CuH16C16(NO)4
_symmetry_space_group_name_H-M   'P 1'
_cell_length_a   7.95221547
_cell_length_b   7.44171073
_cell_length_c   8.38308244
_cell_angle_alpha   105.59607499
_cell_angle_beta   92.64701514
_cell_angle_gamma   116.03769421
_symmetry_Int_Tables_number   1
_chemical_formula_structural   CuH16C16(NO)4
_chemical_formula_sum   'Cu1 H16 C16 N4 O4'
_cell_volume   421.53350970
_cell_formula_units_Z   1
loop_
 _symmetry_equiv_pos_site_id
 _symmetry_equiv_pos_as_xyz
  1  'x, y, z'
loop_
 _atom_site_type_symbol
 _atom_site_label
 _atom_site_symmetry_multiplicity
 _atom_site_fract_x
 _atom_site_fract_y
 _atom_site_fract_z
 _atom_site_occupancy
 _atom_site_hle17_ddec_charge
 _atom_site_hle17_ddec_spin_density
 _atom_site_hle17_ddec_sum_bond_order
 _atom_site_hle17_magmom
 _atom_site_hse06_10hf_ddec_charge
 _atom_site_hse06_10hf_ddec_spin_density
 _atom_site_hse06_10hf_ddec_sum_bond_order
 _atom_site_hse06_10hf_magmom
 _atom_site_hse06_ddec_charge
 _atom_site_hse06_ddec_spin_density
 _atom_site_hse06_ddec_sum_bond_order
 _atom_site_hse06_magmom
 _atom_site_pbe_cm5_charge
 _atom_site_pbe_ddec_charge
 _atom_site_pbe_ddec_spin_density
 _atom_site_pbe_ddec_sum_bond_order
 _atom_site_pbe_magmom
Cu  Cu0  1  0.49999446  0.49999877  0.50001373  1  0.756229  -0.668737  1.878245  -0.492  0.728307  -0.769873  2.261541  -0.617  0.803253  -0.829704  2.208868  -0.694  0.751832  0.679767  -0.722117  2.299264  -0.56
H  H1  1  0.41348200  0.04071527  0.29619476  1  0.089544  -0.000934  0.952772  -0.002  0.098993  -0.00108  1.014508  -0.002  0.100931  -0.000774  1.01307  -0.001  0.123182  0.097163  -0.001289  1.015878  -0.002
H  H2  1  0.58650160  0.95928321  0.70381186  1  0.089578  -0.000923  0.952591  -0.002  0.098995  -0.001081  1.014333  -0.002  0.100914  -0.000774  1.012941  -0.001  0.123167  0.097161  -0.001289  1.015705  -0.002
H  H3  1  0.27019700  0.80707773  0.99707001  1  0.102366  -0.000532  0.950564  0.0  0.114626  -0.0006  1.006368  -0.001  0.117787  -0.000436  1.005584  0.0  0.108437  0.112124  -0.000735  1.007345  -0.001
H  H4  1  0.72977958  0.19289587  0.00290980  1  0.102346  -0.000536  0.950658  0.0  0.114585  -0.000599  1.00648  -0.001  0.117744  -0.000436  1.005695  0.0  0.108457  0.112086  -0.000734  1.00745  -0.001
H  H5  1  0.15385938  0.94200530  0.79676843  1  0.10285  -5.1e-05  0.959793  0.0  0.114558  8.1e-05  1.016297  0.0  0.116356  9e-05  1.015341  0.0  0.110115  0.112718  6.5e-05  1.017494  0.0
H  H6  1  0.84615290  0.05801325  0.20322367  1  0.102943  -4.7e-05  0.960007  0.0  0.114699  8.1e-05  1.016419  0.0  0.116499  9e-05  1.015457  0.0  0.110139  0.112858  6.5e-05  1.017619  0.0
H  H7  1  0.18846372  0.30728753  0.90140890  1  0.119716  -0.000697  0.953949  -0.001  0.130866  -0.000692  1.011984  -0.001  0.133724  -0.000499  1.011829  0.0  0.108875  0.128367  -0.000847  1.012647  -0.001
H  H8  1  0.81153716  0.69272011  0.09860983  1  0.119743  -0.000707  0.953983  -0.001  0.130859  -0.000692  1.012053  -0.001  0.133715  -0.000499  1.0119  0.0  0.108817  0.128359  -0.000847  1.012715  -0.001
H  H9  1  0.43178734  0.67959325  0.15891708  1  0.073101  -0.000566  0.92767  -0.001  0.092056  -0.000454  0.9884  -0.001  0.091909  -0.000302  0.989294  0.0  0.110976  0.091894  -0.000551  0.988078  -0.001
H  H10  1  0.56825026  0.32038744  0.84108577  1  0.073128  -0.000566  0.927638  -0.001  0.092138  -0.000455  0.988309  -0.001  0.091989  -0.000302  0.989206  0.0  0.111037  0.091972  -0.000552  0.987979  -0.001
H  H11  1  0.19768221  0.57864823  0.20164351  1  0.079739  -0.001149  0.900769  -0.001  0.102215  -0.000866  0.951619  -0.001  0.102649  -0.000589  0.950799  -0.001  0.116111  0.10144  -0.001115  0.952671  -0.001
H  H12  1  0.80235656  0.42138996  0.79835648  1  0.079662  -0.001145  0.900301  -0.001  0.102127  -0.000866  0.951229  -0.001  0.102563  -0.000589  0.950403  -0.001  0.116074  0.101331  -0.001115  0.952304  -0.001
H  H13  1  0.31974920  0.70848979  0.47192046  1  0.309586  0.001933  0.908888  0.001  0.300274  0.000341  0.967235  0.0  0.308858  0.000503  0.960313  0.0  0.29364  0.293736  0.000283  0.97288  0.0
H  H14  1  0.68024227  0.29149985  0.52807837  1  0.309653  0.001931  0.908925  0.001  0.300335  0.000341  0.967231  0.0  0.308916  0.000502  0.960316  0.0  0.293685  0.293807  0.000282  0.97288  0.0
H  H15  1  0.53630774  0.82001341  0.42900003  1  0.289683  0.001214  0.962197  0.002  0.276791  0.000114  1.027296  0.001  0.285397  0.000387  1.021333  0.001  0.280805  0.270516  -0.00016  1.031774  0.0
H  H16  1  0.46368113  0.18000613  0.57101814  1  0.289944  0.001216  0.962072  0.002  0.27699  0.000115  1.027226  0.001  0.285593  0.000388  1.021263  0.001  0.280905  0.270711  -0.00016  1.031711  0.0
C  C17  1  0.35990117  0.09280312  0.20542508  1  0.129334  0.00846  3.694358  0.006  0.101021  0.002749  3.948991  0.002  0.109577  0.004101  3.969368  0.003  0.049483  0.095306  0.00171  3.936463  0.001
C  C18  1  0.64010054  0.90719333  0.79459536  1  0.129272  0.008318  3.694065  0.006  0.101039  0.002756  3.948644  0.002  0.109592  0.004099  3.969006  0.003  0.049576  0.095329  0.001712  3.936119  0.001
C  C19  1  0.27978330  0.96355135  0.03937340  1  -0.137842  -0.006601  3.767841  -0.007  -0.152972  -0.003607  4.023165  -0.004  -0.161501  -0.003254  4.044819  -0.004  -0.088553  -0.147613  -0.003781  4.009389  -0.004
C  C20  1  0.72022143  0.03644667  0.96065008  1  -0.137711  -0.006536  3.768306  -0.007  -0.152877  -0.003608  4.02364  -0.004  -0.1614  -0.003252  4.045286  -0.004  -0.088572  -0.147522  -0.003781  4.009866  -0.004
C  C21  1  0.21478339  0.03892530  0.92799075  1  0.007744  0.009014  3.732652  0.005  -0.013243  0.004215  3.985115  0.002  -0.007421  0.004678  4.002806  0.003  -0.065665  -0.017369  0.003772  3.974152  0.002
C  C22  1  0.78521689  0.96109675  0.07202685  1  0.007768  0.008912  3.73297  0.005  -0.013219  0.004217  3.985307  0.002  -0.007397  0.004674  4.002994  0.003  -0.065653  -0.017345  0.003772  3.974349  0.002
C  C23  1  0.23313841  0.24150083  0.98655859  1  -0.176134  -0.004698  3.713575  -0.004  -0.192847  -0.002419  3.958566  -0.002  -0.202179  -0.002382  3.980531  -0.002  -0.085701  -0.187023  -0.002345  3.944758  -0.002
C  C24  1  0.76686845  0.75850911  0.01344810  1  -0.176356  -0.004621  3.713075  -0.004  -0.19302  -0.002423  3.958078  -0.002  -0.202354  -0.002382  3.980047  -0.002  -0.085737  -0.187197  -0.002347  3.944276  -0.002
C  C25  1  0.31253587  0.36155160  0.15583943  1  0.237237  0.004059  3.694005  0.001  0.242019  -3.1e-05  3.937215  -0.001  0.251314  0.001744  3.958173  0.0  0.125156  0.235952  -0.001374  3.923452  -0.003
C  C26  1  0.68746806  0.63842917  0.84415695  1  0.237432  0.003994  3.694257  0.001  0.242109  -2.8e-05  3.937607  -0.001  0.251402  0.001742  3.958565  0.0  0.125292  0.236045  -0.001371  3.923833  -0.003
C  C27  1  0.33607394  0.58128844  0.22689679  1  0.014855  0.001668  3.655994  0.003  -0.045599  -0.001236  3.917704  0.001  -0.040027  -0.000399  3.92728  0.001  -0.058415  -0.049193  -0.001788  3.911978  0.001
C  C28  1  0.66393512  0.41874818  0.77310050  1  0.015036  0.001655  3.656174  0.003  -0.045451  -0.001228  3.917954  0.001  -0.039881  -0.000391  3.927539  0.001  -0.058296  -0.049021  -0.001781  3.912197  0.001
C  C29  1  0.08986491  0.16442078  0.55475412  1  0.165583  -0.001843  3.948431  -0.001  0.147828  0.000308  4.248035  0.0  0.160045  0.000531  4.260853  0.0  0.067671  0.140268  -0.000818  4.236413  -0.001
C  C30  1  0.91009763  0.83555435  0.44520629  1  0.165552  -0.00184  3.948389  -0.001  0.147898  0.000308  4.247848  0.0  0.160117  0.000532  4.260662  0.0  0.067717  0.140336  -0.000818  4.236231  -0.001
C  C31  1  0.88358422  0.02757045  0.48523171  1  0.161773  -0.003415  3.893337  -0.003  0.137978  -0.000223  4.18406  0.0  0.148641  7e-06  4.19875  0.0  0.074527  0.131607  -0.001431  4.171281  -0.001
C  C32  1  0.11641075  0.97241359  0.51475457  1  0.161998  -0.003414  3.893084  -0.003  0.138186  -0.000223  4.183824  0.0  0.14886  7e-06  4.198499  0.0  0.074621  0.131806  -0.001432  4.171057  -0.001
N  N33  1  0.37468473  0.28746093  0.26299125  1  -0.318876  -0.065371  3.26896  -0.084  -0.267046  -0.052652  3.541855  -0.072  -0.296498  -0.043266  3.56408  -0.064  -0.334809  -0.250086  -0.05716  3.529436  -0.075
N  N34  1  0.62532067  0.71252852  0.73702122  1  -0.319074  -0.065319  3.268967  -0.084  -0.267233  -0.052654  3.541889  -0.072  -0.296671  -0.043264  3.564098  -0.064  -0.335063  -0.250283  -0.057159  3.529484  -0.075
N  N35  1  0.41567120  0.67477089  0.40849366  1  -0.598604  -0.0837  3.164721  -0.105  -0.580199  -0.058103  3.448189  -0.076  -0.611471  -0.046011  3.446699  -0.065  -0.653003  -0.5616  -0.06434  3.45214  -0.08
N  N36  1  0.58433048  0.32520861  0.59150702  1  -0.599035  -0.083735  3.165149  -0.105  -0.580491  -0.058123  3.448525  -0.076  -0.611767  -0.046027  3.447037  -0.065  -0.65319  -0.56191  -0.064362  3.452483  -0.08
O  O37  1  0.19679013  0.35965135  0.62067837  1  -0.520441  -0.010749  2.004756  -0.015  -0.504227  0.000418  2.241736  -0.001  -0.522398  0.001168  2.234166  0.0  -0.346789  -0.488115  -0.002701  2.244521  -0.005
O  O38  1  0.80320095  0.64031985  0.37926804  1  -0.520469  -0.010754  2.004764  -0.015  -0.504288  0.000418  2.241657  -0.001  -0.522453  0.001168  2.234086  0.0  -0.346852  -0.488178  -0.002702  2.244445  -0.005
O  O39  1  0.74154331  0.05978882  0.46505654  1  -0.509494  -0.011602  2.082682  -0.016  -0.467465  -0.001324  2.308407  -0.002  -0.487545  -0.000441  2.305035  -0.001  -0.312068  -0.450173  -0.004332  2.308375  -0.006
O  O40  1  0.25844210  0.94022182  0.53493808  1  -0.509357  -0.011587  2.083205  -0.016  -0.467317  -0.001322  2.308944  -0.002  -0.487384  -0.000439  2.305561  -0.001  -0.311933  -0.450029  -0.004328  2.308914  -0.006
