# generated using pymatgen
data_ZnH8C18N(O2F)2
_symmetry_space_group_name_H-M   'P 1'
_cell_length_a   13.97538814
_cell_length_b   15.30425326
_cell_length_c   16.23638650
_cell_angle_alpha   90.26729135
_cell_angle_beta   89.98304145
_cell_angle_gamma   90.01538327
_symmetry_Int_Tables_number   1
_chemical_formula_structural   ZnH8C18N(O2F)2
_chemical_formula_sum   'Zn2 H16 C36 N2 O8 F4'
_cell_volume   3472.64703323
_cell_formula_units_Z   2
loop_
 _symmetry_equiv_pos_site_id
 _symmetry_equiv_pos_as_xyz
  1  'x, y, z'
loop_
 _atom_site_type_symbol
 _atom_site_label
 _atom_site_symmetry_multiplicity
 _atom_site_fract_x
 _atom_site_fract_y
 _atom_site_fract_z
 _atom_site_occupancy
 _atom_site_pbe_bader_charge
 _atom_site_pbe_bader_spin_density
 _atom_site_pbe_cm5_charge
 _atom_site_pbe_ddec_charge
 _atom_site_pbe_ddec_spin_density
 _atom_site_pbe_ddec_sum_bond_order
 _atom_site_pbe_magmom
Zn  Zn0  1  0.39962579  0.49988051  0.50004201  1  1.292741  0  0.668555  0.816053  0  2.420074  0
Zn  Zn1  1  0.60049608  0.49992907  0.49996774  1  1.306959  0  0.668225  0.814745  0  2.427082  0
H  H2  1  0.35482015  0.05825568  0.45316572  1  0.042207  0  0.099845  0.098035  0  1.005743  0
H  H3  1  0.64346178  0.93903609  0.45401030  1  0.063437  0  0.100336  0.098912  0  1.005233  0
H  H4  1  0.35477811  0.94150075  0.54683000  1  0.042804  0  0.100013  0.098547  0  1.006049  0
H  H5  1  0.64345643  0.06085099  0.54600232  1  0.062706  0  0.100469  0.099068  0  1.005429  0
H  H6  1  0.35366182  0.22103681  0.45432949  1  0.060591  0  0.100792  0.101493  0  1.008843  0
H  H7  1  0.64211730  0.77603752  0.45593812  1  0.103447  0  0.104244  0.109372  0  0.998875  0
H  H8  1  0.35360376  0.77871482  0.54569609  1  0.061019  0  0.100837  0.101553  0  1.00837  0
H  H9  1  0.64211262  0.22385379  0.54406377  1  0.101656  0  0.104186  0.109034  0  0.998183  0
H  H10  1  0.93152948  0.43204916  0.38267605  1  0.085357  0  0.117436  0.12349  0  0.986214  0
H  H11  1  0.06850505  0.62677070  0.55942662  1  0.086544  0  0.116171  0.121059  0  0.988211  0
H  H12  1  0.93147794  0.56780559  0.61728300  1  0.08267  0  0.117505  0.123574  0  0.986285  0
H  H13  1  0.06846154  0.37308629  0.44054789  1  0.085935  0  0.116353  0.12163  0  0.988372  0
H  H14  1  0.75243853  0.43538792  0.38783745  1  0.152963  0  0.132759  0.112226  0  0.97086  0
H  H15  1  0.24775902  0.62082766  0.55692288  1  0.14837  0  0.130952  0.107536  0  0.978655  0
H  H16  1  0.75239063  0.56446423  0.61211390  1  0.155618  0  0.132916  0.11258  0  0.97047  0
H  H17  1  0.24772140  0.37898956  0.44309367  1  0.148919  0  0.13105  0.107715  0  0.978715  0
C  C18  1  0.49682687  0.33015836  0.49931860  1  1.580655  0  0.215377  0.594463  0  4.167093  0
C  C19  1  0.49683364  0.66966417  0.50069941  1  1.574566  0  0.215217  0.59454  0  4.167988  0
C  C20  1  0.49920456  0.04807919  0.49965914  1  -0.131845  0  -0.004705  0.074223  0  4.006981  0
C  C21  1  0.49920000  0.95174196  0.50036257  1  0.012817  0  -0.004587  0.074581  0  4.006443  0
C  C22  1  0.89519167  0.46148305  0.43532010  1  -0.036544  0  -0.074125  -0.173454  0  3.940365  0
C  C23  1  0.10486571  0.56988185  0.53370800  1  -0.042832  0  -0.074028  -0.171664  0  3.940183  0
C  C24  1  0.89516660  0.53835891  0.56464268  1  -0.031309  0  -0.074525  -0.173864  0  3.940162  0
C  C25  1  0.10484590  0.42995921  0.46627377  1  -0.045442  0  -0.074161  -0.17261  0  3.940891  0
C  C26  1  0.79581543  0.46310071  0.43731959  1  0.523195  0  0.065811  0.110385  0  3.905907  0
C  C27  1  0.20422312  0.56758087  0.53241997  1  0.518824  0  0.066211  0.111121  0  3.907727  0
C  C28  1  0.79578914  0.53674636  0.56263233  1  0.519935  0  0.06573  0.109974  0  3.905799  0
C  C29  1  0.20420211  0.43223943  0.46758926  1  0.522189  0  0.066192  0.111311  0  3.90841  0
C  C30  1  0.94715408  0.49993025  0.49997322  1  0.009073  0  0.017074  0.106818  0  3.987977  0
C  C31  1  0.05281611  0.49993146  0.49997880  1  -0.106292  0  0.017486  0.106826  0  3.987318  0
C  C32  1  0.50366024  0.49884069  0.33897817  1  1.652862  0  0.219935  0.661342  0  4.246434  0
C  C33  1  0.50366072  0.50107888  0.66102541  1  1.652325  0  0.219692  0.66061  0  4.248045  0
C  C34  1  0.41543284  0.49985502  0.95726443  1  0.527571  0  0.098878  0.13581  0  4.075705  0
C  C35  1  0.58763504  0.50075990  0.04272793  1  0.476245  0  0.09857  0.13676  0  4.075684  0
C  C36  1  0.41543000  0.49967713  0.04275767  1  0.697066  0  0.098488  0.136241  0  4.075502  0
C  C37  1  0.58763793  0.50127566  0.95726451  1  0.650601  0  0.098311  0.135789  0  4.077465  0
C  C38  1  0.50155638  0.50067371  0.91190913  1  0.155655  0  -0.009179  -0.038582  0  4.166319  0
C  C39  1  0.50152438  0.49994580  0.08809187  1  0.159095  0  -0.008929  -0.03891  0  4.16541  0
C  C40  1  0.50187745  0.50089679  0.82523566  1  -0.386572  0  -0.040443  -0.035023  0  4.131367  0
C  C41  1  0.50182508  0.49949672  0.17476899  1  -0.386816  0  -0.040488  -0.034738  0  4.130238  0
C  C42  1  0.50289986  0.49908715  0.24974582  1  0.169692  0  -0.024618  -0.140734  0  3.914698  0
C  C43  1  0.50292065  0.50103740  0.75025539  1  0.168879  0  -0.024665  -0.140516  0  3.915561  0
C  C44  1  0.41747841  0.09438988  0.47447112  1  -0.000912  0  -0.092977  -0.137732  0  3.996647  0
C  C45  1  0.58029764  0.90401676  0.47555982  1  0.035962  0  -0.092229  -0.137737  0  3.994666  0
C  C46  1  0.41743802  0.90538252  0.52553261  1  0.007234  0  -0.093349  -0.138941  0  3.996501  0
C  C47  1  0.58030278  0.09583923  0.52446028  1  0.050587  0  -0.092654  -0.138732  0  3.994018  0
C  C48  1  0.41673545  0.18520655  0.47439182  1  -0.00764  0  -0.0864  -0.086925  0  4.000607  0
C  C49  1  0.57966098  0.81312195  0.47585220  1  -0.142592  0  -0.084633  -0.085983  0  3.989569  0
C  C50  1  0.41670910  0.81456701  0.52562935  1  -0.021545  0  -0.086241  -0.086785  0  3.999369  0
C  C51  1  0.57965933  0.18672996  0.52416683  1  -0.136766  0  -0.084395  -0.084721  0  3.987836  0
C  C52  1  0.49778851  0.23240729  0.49920877  1  -0.037293  0  -0.019825  -0.036194  0  3.969335  0
C  C53  1  0.49776962  0.76740830  0.50081329  1  -0.029026  0  -0.019954  -0.035746  0  3.969085  0
N  N54  1  0.74711598  0.49993000  0.49997483  1  -1.2652  0  -0.315003  -0.19173  0  3.509425  0
N  N55  1  0.25295151  0.49989979  0.50001836  1  -1.25669  0  -0.313772  -0.187843  0  3.503796  0
O  O56  1  0.41712407  0.36772110  0.48452821  1  -1.169482  0  -0.319072  -0.554533  0  2.333157  0
O  O57  1  0.57565765  0.63085558  0.48565427  1  -1.168284  0  -0.319523  -0.549444  0  2.326153  0
O  O58  1  0.41712189  0.63205787  0.51553414  1  -1.169372  0  -0.318974  -0.554734  0  2.333235  0
O  O59  1  0.57566432  0.36899789  0.51432760  1  -1.168985  0  -0.31948  -0.549383  0  2.325989  0
O  O60  1  0.42407443  0.51397850  0.37409683  1  -1.142321  0  -0.310675  -0.534455  0  2.246946  0
O  O61  1  0.58399213  0.51630026  0.62691553  1  -1.143745  0  -0.310752  -0.542387  0  2.25981  0
O  O62  1  0.42406238  0.48584272  0.62598109  1  -1.141982  0  -0.310657  -0.534308  0  2.247282  0
O  O63  1  0.58399486  0.48357866  0.37301438  1  -1.144312  0  -0.310944  -0.542816  0  2.258645  0
F  F64  1  0.33121996  0.49902250  0.08324445  1  -0.612521  0  -0.086829  -0.100772  0  1.356562  0
F  F65  1  0.67186803  0.50216156  0.91675738  1  -0.604464  0  -0.088199  -0.102524  0  1.358552  0
F  F66  1  0.33123950  0.49938159  0.91680618  1  -0.614033  0  -0.086594  -0.100316  0  1.357108  0
F  F67  1  0.67184912  0.50119615  0.08322119  1  -0.604155  0  -0.088032  -0.102576  0  1.357469  0
