# generated using pymatgen
data_KH15C7S2NO
_symmetry_space_group_name_H-M   'P 1'
_cell_length_a   5.23289364
_cell_length_b   10.04330957
_cell_length_c   11.74269115
_cell_angle_alpha   64.51362114
_cell_angle_beta   90.43117848
_cell_angle_gamma   78.71919912
_symmetry_Int_Tables_number   1
_chemical_formula_structural   KH15C7S2NO
_chemical_formula_sum   'K2 H30 C14 S4 N2 O2'
_cell_volume   543.38636083
_cell_formula_units_Z   2
loop_
 _symmetry_equiv_pos_site_id
 _symmetry_equiv_pos_as_xyz
  1  'x, y, z'
loop_
 _atom_site_type_symbol
 _atom_site_label
 _atom_site_symmetry_multiplicity
 _atom_site_fract_x
 _atom_site_fract_y
 _atom_site_fract_z
 _atom_site_occupancy
 _atom_site_hle17_bader_spin_density
 _atom_site_hle17_ddec_charge
 _atom_site_hle17_ddec_spin_density
 _atom_site_hle17_ddec_sum_bond_order
 _atom_site_hle17_magmom
 _atom_site_hse06_10hf_bader_spin_density
 _atom_site_hse06_10hf_ddec_charge
 _atom_site_hse06_10hf_ddec_spin_density
 _atom_site_hse06_10hf_ddec_sum_bond_order
 _atom_site_hse06_10hf_magmom
 _atom_site_hse06_bader_spin_density
 _atom_site_hse06_ddec_charge
 _atom_site_hse06_ddec_spin_density
 _atom_site_hse06_ddec_sum_bond_order
 _atom_site_hse06_magmom
 _atom_site_pbe_bader_spin_density
 _atom_site_pbe_cm5_charge
 _atom_site_pbe_ddec_charge
 _atom_site_pbe_ddec_spin_density
 _atom_site_pbe_ddec_sum_bond_order
 _atom_site_pbe_magmom
K  K0  1  0.25010220  0.52793742  0.10798452  1  0  0.870274  0  0.521469  0  0  0.804354  0  0.724246  0  0  0.817677  0  0.706442  0  0  0.614624  0.794793  0  0.736463  0
K  K1  1  0.74987488  0.47207123  0.89202048  1  0  0.87028  0  0.521524  0  0  0.804358  0  0.724322  0  0  0.817679  0  0.706517  0  0  0.614686  0.794801  0  0.736542  0
H  H2  1  0.76779161  0.54295651  0.49023145  1  0  0.075372  0  0.975612  0  0  0.08846  0  1.04332  0  0  0.08934  0  1.043217  0  0  0.099837  0.088223  0  1.042935  0
H  H3  1  0.23213011  0.45703419  0.50975887  1  0  0.075379  0  0.975483  0  0  0.088325  0  1.043389  0  0  0.089207  0  1.043279  0  0  0.099758  0.088087  0  1.043002  0
H  H4  1  0.68675472  0.38642011  0.61772542  1  0  0.068298  0  0.983298  0  0  0.079809  0  1.056656  0  0  0.080555  0  1.056885  0  0  0.100595  0.079071  0  1.056974  0
H  H5  1  0.31318752  0.61356740  0.38226763  1  0  0.068261  0  0.983265  0  0  0.079777  0  1.056617  0  0  0.080522  0  1.05684  0  0  0.100591  0.079038  0  1.056926  0
H  H6  1  0.83687160  0.15253835  0.46297706  1  0  0.045601  0  0.948384  0  0  0.062791  0  1.002469  0  0  0.063331  0  1.002681  0  0  0.099711  0.06216  0  1.002823  0
H  H7  1  0.16310392  0.84745170  0.53701381  1  0  0.045628  0  0.948406  0  0  0.062738  0  1.002572  0  0  0.063279  0  1.002783  0  0  0.099663  0.062105  0  1.002926  0
H  H8  1  0.29792176  0.24464118  0.54128938  1  0  0.102055  0  0.986024  0  0  0.121025  0  1.051991  0  0  0.122454  0  1.052164  0  0  0.084833  0.119979  0  1.051919  0
H  H9  1  0.70207342  0.75533827  0.45873349  1  0  0.102047  0  0.985899  0  0  0.120978  0  1.051935  0  0  0.122409  0  1.052105  0  0  0.084817  0.119933  0  1.051861  0
H  H10  1  0.42756880  0.06424950  0.54972887  1  0  0.106993  0  0.953954  0  0  0.135722  0  1.004791  0  0  0.136389  0  1.005824  0  0  0.093011  0.135579  0  1.003363  0
H  H11  1  0.57241810  0.93573741  0.45027076  1  0  0.107058  0  0.95384  0  0  0.135748  0  1.004717  0  0  0.136408  0  1.005754  0  0  0.093078  0.135605  0  1.003283  0
H  H12  1  0.36081566  0.22499028  0.39952989  1  0  0.097187  0  0.976622  0  0  0.108896  0  1.057658  0  0  0.110579  0  1.057591  0  0  0.081146  0.107579  0  1.057792  0
H  H13  1  0.63913499  0.77499884  0.60048289  1  0  0.097177  0  0.976591  0  0  0.108861  0  1.057652  0  0  0.110546  0  1.057583  0  0  0.081108  0.107543  0  1.057793  0
H  H14  1  0.00273884  0.16653980  0.66540861  1  0  0.102994  0  0.980378  0  0  0.120785  0  1.048891  0  0  0.122352  0  1.04874  0  0  0.083597  0.118911  0  1.050108  0
H  H15  1  0.99726230  0.83347208  0.33457530  1  0  0.10299  0  0.980443  0  0  0.120779  0  1.048944  0  0  0.122346  0  1.048793  0  0  0.083561  0.1189  0  1.050165  0
H  H16  1  0.86986904  0.00850082  0.68659839  1  0  0.105544  0  0.966669  0  0  0.125879  0  1.032716  0  0  0.126858  0  1.033443  0  0  0.08651  0.124415  0  1.033181  0
H  H17  1  0.13015474  0.99148860  0.31339563  1  0  0.105567  0  0.966638  0  0  0.125885  0  1.032709  0  0  0.126865  0  1.033434  0  0  0.086523  0.124433  0  1.033156  0
H  H18  1  0.68036650  0.15889623  0.71244504  1  0  0.095194  0  0.975201  0  0  0.112757  0  1.045271  0  0  0.114307  0  1.045041  0  0  0.07982  0.111371  0  1.045864  0
H  H19  1  0.31964027  0.84109759  0.28754831  1  0  0.095324  0  0.975135  0  0  0.11288  0  1.0452  0  0  0.114433  0  1.044969  0  0  0.079851  0.111492  0  1.045788  0
H  H20  1  0.28553134  0.10309947  0.08242536  1  0  0.024824  0  0.944144  0  0  0.042457  0  1.008977  0  0  0.042011  0  1.009439  0  0  0.092628  0.04258  0  1.008907  0
H  H21  1  0.71453667  0.89692468  0.91757017  1  0  0.024723  0  0.944221  0  0  0.042415  0  1.009065  0  0  0.041969  0  1.009527  0  0  0.092547  0.042542  0  1.008984  0
H  H22  1  0.44673493  0.14283654  0.19416997  1  0  0.048796  0  0.921685  0  0  0.063303  0  0.987342  0  0  0.063426  0  0.987302  0  0  0.099915  0.063059  0  0.987666  0
H  H23  1  0.55328593  0.85719960  0.80581803  1  0  0.048805  0  0.92164  0  0  0.063341  0  0.987314  0  0  0.063464  0  0.987274  0  0  0.099976  0.063099  0  0.98764  0
H  H24  1  0.69385289  0.11881957  0.96416649  1  0  0.097174  0  0.962104  0  0  0.116914  0  1.028  0  0  0.118179  0  1.028327  0  0  0.088021  0.115745  0  1.028028  0
H  H25  1  0.30624235  0.88117790  0.03585437  1  0  0.097204  0  0.962316  0  0  0.116871  0  1.028197  0  0  0.118136  0  1.028524  0  0  0.087985  0.115703  0  1.02822  0
H  H26  1  0.75212011  0.97123369  0.12172557  1  0  0.114848  0  0.948483  0  0  0.14044  0  1.002263  0  0  0.14129  0  1.00327  0  0  0.091889  0.139512  0  1.002051  0
H  H27  1  0.24794660  0.02876610  0.87831002  1  0  0.114806  0  0.948574  0  0  0.140348  0  1.002398  0  0  0.141196  0  1.003403  0  0  0.09181  0.139424  0  1.002187  0
H  H28  1  0.85423944  0.14144229  0.08803919  1  0  0.099143  0  0.969885  0  0  0.121414  0  1.031126  0  0  0.122707  0  1.031207  0  0  0.088239  0.120346  0  1.031125  0
H  H29  1  0.14581089  0.85857763  0.91198116  1  0  0.099142  0  0.969747  0  0  0.12132  0  1.031079  0  0  0.122614  0  1.03116  0  0  0.088226  0.120253  0  1.031079  0
H  H30  1  0.30392883  0.33832319  0.92868356  1  0  0.283633  0  1.062124  0  0  0.258985  0  1.14529  0  0  0.268908  0  1.134889  0  0  0.234137  0.252279  0  1.151821  0
H  H31  1  0.69607730  0.66168655  0.07130538  1  0  0.283531  0  1.062363  0  0  0.25889  0  1.145481  0  0  0.268812  0  1.135042  0  0  0.234011  0.252184  0  1.152011  0
C  C32  1  0.64559056  0.45956625  0.51584091  1  0  -0.025029  0  3.628486  0  0  -0.084307  0  3.874795  0  0  -0.080966  0  3.88687  0  0  -0.069079  -0.086658  0  3.866574  0
C  C33  1  0.35435647  0.54042357  0.48415120  1  0  -0.024777  0  3.628125  0  0  -0.084027  0  3.87451  0  0  -0.080666  0  3.886574  0  0  -0.068933  -0.086366  0  3.866265  0
C  C34  1  0.71115653  0.20498629  0.51378341  1  0  0.211626  0  3.588872  0  0  0.202186  0  3.821722  0  0  0.207007  0  3.837701  0  0  0.005266  0.198911  0  3.810453  0
C  C35  1  0.28882878  0.79500394  0.48621155  1  0  0.211722  0  3.588777  0  0  0.202357  0  3.821517  0  0  0.207178  0  3.837498  0  0  0.005356  0.199064  0  3.810295  0
C  C36  1  0.43289806  0.18432153  0.49943281  1  0  -0.338469  0  3.651921  0  0  -0.418512  0  3.889066  0  0  -0.421873  0  3.899048  0  0  -0.246615  -0.415691  0  3.881203  0
C  C37  1  0.56709477  0.81566679  0.50057729  1  0  -0.338398  0  3.651594  0  0  -0.418402  0  3.888817  0  0  -0.421759  0  3.898788  0  0  -0.246621  -0.41558  0  3.880965  0
C  C38  1  0.82256408  0.13171059  0.65284203  1  0  -0.351497  0  3.680963  0  0  -0.432785  0  3.921976  0  0  -0.435795  0  3.931486  0  0  -0.248975  -0.429449  0  3.915824  0
C  C39  1  0.17744473  0.86828201  0.34714667  1  0  -0.351687  0  3.68084  0  0  -0.432916  0  3.92179  0  0  -0.43593  0  3.931298  0  0  -0.248951  -0.429581  0  3.915628  0
C  C40  1  0.77408292  0.43191416  0.32548381  1  0  0.258673  0  3.812433  0  0  0.235269  0  4.112763  0  0  0.259094  0  4.121733  0  0  0.112121  0.219284  0  4.105618  0
C  C41  1  0.22587231  0.56808497  0.67451230  1  0  0.258853  0  3.812639  0  0  0.235485  0  4.112883  0  0  0.259316  0  4.12185  0  0  0.112235  0.219498  0  4.10574  0
C  C42  1  0.43563373  0.16006133  0.09513756  1  0  0.201641  0  3.655039  0  0  0.15122  0  3.92719  0  0  0.159192  0  3.933674  0  0  -0.084019  0.1455  0  3.922766  0
C  C43  1  0.56440626  0.83997050  0.90485445  1  0  0.201843  0  3.654812  0  0  0.151222  0  3.927177  0  0  0.159194  0  3.933658  0  0  -0.083857  0.145507  0  3.922758  0
C  C44  1  0.69916404  0.09465550  0.06498315  1  0  -0.342999  0  3.701133  0  0  -0.417176  0  3.939395  0  0  -0.420666  0  3.949615  0  0  -0.252934  -0.414122  0  3.93235  0
C  C45  1  0.30089536  0.90535079  0.93503808  1  0  -0.343041  0  3.701221  0  0  -0.416964  0  3.939602  0  0  -0.420456  0  3.949826  0  0  -0.25286  -0.413916  0  3.93256  0
S  S46  1  0.77838692  0.62306942  0.25520781  1  0  -0.540341  0  1.993295  0  0  -0.508649  0  2.307093  0  0  -0.523557  0  2.300257  0  0  -0.235252  -0.498072  0  2.312102  0
S  S47  1  0.22152988  0.37693053  0.74479008  1  0  -0.540378  0  1.993312  0  0  -0.508668  0  2.307074  0  0  -0.523579  0  2.300244  0  0  -0.235255  -0.498084  0  2.312083  0
S  S48  1  0.83517507  0.32675253  0.24166513  1  0  -0.577001  0  1.92672  0  0  -0.552662  0  2.242535  0  0  -0.566883  0  2.235685  0  0  -0.28552  -0.542299  0  2.247881  0
S  S49  1  0.16481812  0.67324561  0.75832159  1  0  -0.57703  0  1.92697  0  0  -0.552681  0  2.24275  0  0  -0.5669  0  2.235904  0  0  -0.28553  -0.542306  0  2.248086  0
N  N50  1  0.71999998  0.36756496  0.44802868  1  0  -0.158644  0  3.324744  0  0  -0.062643  0  3.540655  0  0  -0.081981  0  3.564163  0  0  -0.258725  -0.049842  0  3.524578  0
N  N51  1  0.27994952  0.63242830  0.55196293  1  0  -0.159085  0  3.324988  0  0  -0.063056  0  3.540828  0  0  -0.082411  0  3.564342  0  0  -0.258942  -0.050244  0  3.524748  0
O  O52  1  0.35227627  0.32057675  0.01845172  1  0  -0.675937  0  2.21501  0  0  -0.615937  0  2.457607  0  0  -0.633946  0  2.447158  0  0  -0.55485  -0.603183  0  2.463898  0
O  O53  1  0.64778508  0.67944251  0.98153127  1  0  -0.675895  0  2.214785  0  0  -0.615862  0  2.457503  0  0  -0.633861  0  2.446995  0  0  -0.554764  -0.603113  0  2.463792  0
