# generated using pymatgen
data_Zn2H45C51I5N4O17
_symmetry_space_group_name_H-M   'P 1'
_cell_length_a   9.34035411
_cell_length_b   10.87838696
_cell_length_c   23.42241297
_cell_angle_alpha   91.32973642
_cell_angle_beta   88.87507833
_cell_angle_gamma   72.32618301
_symmetry_Int_Tables_number   1
_chemical_formula_structural   Zn2H45C51I5N4O17
_chemical_formula_sum   'Zn2 H45 C51 I5 N4 O17'
_cell_volume   2266.07358720
_cell_formula_units_Z   1
loop_
 _symmetry_equiv_pos_site_id
 _symmetry_equiv_pos_as_xyz
  1  'x, y, z'
loop_
 _atom_site_type_symbol
 _atom_site_label
 _atom_site_symmetry_multiplicity
 _atom_site_fract_x
 _atom_site_fract_y
 _atom_site_fract_z
 _atom_site_occupancy
 _atom_site_pbe_bader_charge
 _atom_site_pbe_bader_spin_density
 _atom_site_pbe_cm5_charge
 _atom_site_pbe_ddec_charge
 _atom_site_pbe_ddec_spin_density
 _atom_site_pbe_ddec_sum_bond_order
 _atom_site_pbe_magmom
Zn  Zn0  1  0.65500318  0.44008156  0.50071019  1  1.284583  0  0.673366  0.853418  0  2.400741  0
Zn  Zn1  1  0.34250977  0.52118013  0.50332423  1  1.294964  0  0.67943  0.815765  0  2.46937  0
H  H2  1  0.47491594  0.82640451  0.96749208  1  0.126677  0  0.112652  0.125454  0  1.031184  0
H  H3  1  0.73610530  0.48994032  0.66981682  1  0.089573  0  0.104865  0.106348  0  1.014391  0
H  H4  1  0.76793999  0.48171208  0.77556307  1  0.055858  0  0.110251  0.117535  0  1.00079  0
H  H5  1  0.63635923  0.04753206  0.52014978  1  0.106085  0  0.107043  0.138301  0  1.001979  0
H  H6  1  0.37914292  0.87129780  0.55669002  1  0.106889  0  0.11223  0.133567  0  0.986405  0
H  H7  1  0.84987220  0.49454543  0.58346511  1  0.16052  0  0.134161  0.118156  0  0.985416  0
H  H8  1  0.14830858  0.46106946  0.58176995  1  0.199822  0  0.128686  0.121939  0  1.014349  0
H  H9  1  0.60896799  0.16496053  0.03917038  1  0.119273  0  0.110296  0.120806  0  1.010479  0
H  H10  1  0.33447526  0.37365901  0.20846677  1  0.071104  0  0.109136  0.121682  0  1.011516  0
H  H11  1  0.69521167  0.48824264  0.33557849  1  0.107727  0  0.104957  0.121533  0  1.031987  0
H  H12  1  0.27754538  0.95522110  0.04493962  1  0.04292  0  0.104094  0.069977  0  0.956142  0
H  H13  1  0.45454231  0.97938364  0.02772694  1  0.054445  0  0.089525  0.043666  0  1.037056  0
H  H14  1  0.33056896  0.00269892  0.15030985  1  0.052416  0  0.099661  0.098514  0  0.978142  0
H  H15  1  0.47517318  0.06128114  0.12368880  1  0.068948  0  0.095276  0.101311  0  0.984302  0
H  H16  1  0.27959650  0.22190862  0.06378620  1  0.013436  0  0.081212  0.107067  0  1.013963  0
H  H17  1  0.24430197  0.24611496  0.13845110  1  0.029912  0  0.084564  0.10961  0  1.023654  0
H  H18  1  0.13792131  0.16806038  0.09731931  1  0.045366  0  0.086859  0.111927  0  1.001814  0
H  H19  1  0.97212512  0.73983672  0.40520159  1  0.05524  0  0.102877  0.075348  0  1.007327  0
H  H20  1  0.16576457  0.67753310  0.42218531  1  0.094021  0  0.106946  0.090419  0  1.007912  0
H  H21  1  0.92352235  0.89388815  0.48832375  1  0.013543  0  0.083185  0.078042  0  0.997787  0
H  H22  1  0.11406323  0.83158700  0.50854688  1  0.056924  0  0.08844  0.090925  0  1.006273  0
H  H23  1  0.19990540  0.90161872  0.41534509  1  0.042837  0  0.080568  0.111335  0  1.013987  0
H  H24  1  0.07650741  0.03488885  0.45450433  1  0.03705  0  0.070909  0.093808  0  1.070048  0
H  H25  1  0.00942595  0.96597637  0.39531703  1  -0.001116  0  0.079058  0.102342  0  1.017436  0
H  H26  1  0.40492486  0.13093438  0.31048927  1  0.038051  0  0.09022  0.050986  0  0.997407  0
H  H27  1  0.32132130  0.20256585  0.24677246  1  0.049603  0  0.097382  0.061001  0  1.00044  0
H  H28  1  0.15492686  0.16220594  0.35537863  1  -0.008454  0  0.081208  0.084003  0  1.016746  0
H  H29  1  0.06573782  0.25392314  0.29700833  1  0.019154  0  0.086597  0.078494  0  1.004083  0
H  H30  1  0.15809483  0.05583097  0.23208676  1  0.023845  0  0.086971  0.112685  0  1.011678  0
H  H31  1  0.04874548  0.02920314  0.29047398  1  0.022153  0  0.090135  0.119035  0  1.00238  0
H  H32  1  0.24756581  0.96415400  0.29036305  1  0.025042  0  0.089722  0.117994  0  1.002907  0
H  H33  1  0.96583669  0.48172836  0.21736205  1  0.045211  0  0.102942  0.07029  0  0.959836  0
H  H34  1  0.89755720  0.44498587  0.28423104  1  0.060393  0  0.094929  0.050936  0  1.029294  0
H  H35  1  0.81325488  0.71795844  0.23764079  1  0.03764  0  0.095899  0.096029  0  0.963178  0
H  H36  1  0.78386800  0.67704144  0.30859588  1  0.031773  0  0.081043  0.071335  0  1.020357  0
H  H37  1  0.07016967  0.58988791  0.31906549  1  0.041879  0  0.084413  0.117793  0  1.019995  0
H  H38  1  0.01047597  0.75612099  0.30272915  1  -0.000623  0  0.085781  0.114473  0  1.009227  0
H  H39  1  0.09390705  0.63824136  0.24873925  1  0.047595  0  0.084799  0.114083  0  1.0039  0
H  H40  1  0.27593789  0.44414970  0.83845496  1  0.047736  0  0.093496  0.060957  0  0.992075  0
H  H41  1  0.16853142  0.49013877  0.77606038  1  0.049318  0  0.088081  0.049369  0  1.012136  0
H  H42  1  0.08204634  0.62822145  0.89304600  1  0.026549  0  0.092883  0.089241  0  0.964782  0
H  H43  1  0.97295677  0.65668494  0.83113387  1  0.040106  0  0.092705  0.088035  0  0.977155  0
H  H44  1  0.96167997  0.42351249  0.83388264  1  0.006438  0  0.08554  0.110539  0  1.012342  0
H  H45  1  0.87920649  0.51649104  0.89609359  1  0.032998  0  0.082628  0.11183  0  1.014965  0
H  H46  1  0.06179523  0.40346401  0.89806795  1  0.022443  0  0.08599  0.110761  0  1.002136  0
C  C47  1  0.50529689  0.70896377  0.47869561  1  1.629145  0  0.206425  0.595909  0  4.222087  0
C  C48  1  0.49236304  0.73326042  0.98701316  1  0.022607  0  -0.079576  -0.200465  0  3.92667  0
C  C49  1  0.48632484  0.72347640  0.04711510  1  0.565638  0  0.11395  0.271549  0  4.019723  0
C  C50  1  0.51134105  0.60067857  0.07095374  1  0.001593  0  -0.016405  -0.175997  0  3.926098  0
C  C51  1  0.54244241  0.49021790  0.03377029  1  0.014289  0  0.002712  0.045763  0  4.00866  0
C  C52  1  0.56888808  0.36526940  0.05591319  1  -0.021244  0  -0.005019  -0.046297  0  3.981317  0
C  C53  1  0.59002455  0.25845107  0.01981859  1  0.005979  0  -0.07842  -0.118812  0  3.972392  0
C  C54  1  0.58560191  0.26938044  0.96010782  1  -0.192947  0  -0.036104  0.045126  0  3.879614  0
C  C55  1  0.49448661  0.58621108  0.13322865  1  1.338447  0  0.242711  0.456975  0  4.070407  0
C  C56  1  0.57287717  0.34481824  0.11819773  1  1.35151  0  0.243405  0.442162  0  4.105729  0
C  C57  1  0.41389965  0.39756666  0.23678380  1  0.01538  0  -0.095848  -0.256662  0  4.013291  0
C  C58  1  0.49177478  0.42468227  0.39477536  1  1.585384  0  0.219072  0.622022  0  4.138725  0
C  C59  1  0.40442272  0.38086981  0.29554370  1  0.470121  0  0.076995  0.22513  0  4.044837  0
C  C60  1  0.50467976  0.41836823  0.33088002  1  0.040211  0  -0.017738  -0.092903  0  3.942677  0
C  C61  1  0.61885568  0.46169831  0.30664011  1  -0.002555  0  -0.102437  -0.215905  0  3.973433  0
C  C62  1  0.63296762  0.47177474  0.24764081  1  0.49751  0  0.086156  0.191125  0  4.063421  0
C  C63  1  0.52479263  0.44295819  0.21324214  1  0.363019  0  0.078479  0.106566  0  4.034215  0
C  C64  1  0.38509901  0.59275186  0.77152540  1  0.546682  0  0.082867  0.153447  0  4.036466  0
C  C65  1  0.36843378  0.60293955  0.71206805  1  -0.198652  0  -0.042186  -0.040028  0  3.827953  0
C  C66  1  0.49580561  0.56165089  0.67497601  1  0.011861  0  -0.016352  -0.044828  0  3.935896  0
C  C67  1  0.63865054  0.52069439  0.69886882  1  0.029027  0  -0.08267  -0.079601  0  3.979933  0
C  C68  1  0.65670466  0.51524980  0.75751123  1  -0.037009  0  -0.081791  -0.131377  0  3.992198  0
C  C69  1  0.51067767  0.25015471  0.52860209  1  1.580384  0  0.205605  0.650249  0  4.16632  0
C  C70  1  0.52990059  0.54868771  0.79348026  1  0.414316  0  0.089269  0.116025  0  4.005927  0
C  C71  1  0.41545621  0.05533772  0.53896940  1  -0.255493  0  -0.037143  0.112266  0  3.935592  0
C  C72  1  0.52328585  0.11180689  0.53015647  1  0.020015  0  -0.103108  -0.272558  0  3.906647  0
C  C73  1  0.43425432  0.92034702  0.52719140  1  0.051314  0  -0.09638  -0.132455  0  4.011732  0
C  C74  1  0.50206209  0.84766092  0.48099581  1  -0.236324  0  -0.044783  -0.05811  0  3.7949  0
C  C75  1  0.92703718  0.47134686  0.54588331  1  0.653804  0  0.085291  0.136974  0  3.882955  0
C  C76  1  0.06855059  0.50153528  0.54859568  1  0.539411  0  0.051405  -0.014836  0  3.928266  0
C  C77  1  0.48935487  0.54705588  0.61103851  1  1.596157  0  0.213665  0.600484  0  4.154302  0
C  C78  1  0.56360772  0.40739944  0.87352079  1  1.345576  0  0.240755  0.440515  0  4.082878  0
C  C79  1  0.52594041  0.64451437  0.88860453  1  1.351659  0  0.246581  0.449336  0  4.098991  0
C  C80  1  0.52148226  0.62549465  0.95098920  1  -0.031841  0  -0.004578  -0.038608  0  4.004218  0
C  C81  1  0.54513140  0.50068585  0.97312339  1  -0.021215  0  -0.001156  0.025651  0  3.986057  0
C  C82  1  0.56662710  0.39010912  0.93611628  1  -0.000901  0  -0.012424  -0.097822  0  3.958573  0
C  C83  1  0.38676341  0.95492790  0.06220848  1  0.377562  0  -0.058989  0.042635  0  3.850553  0
C  C84  1  0.36643901  0.04781623  0.11336119  1  -0.014094  0  -0.167093  -0.139836  0  3.958032  0
C  C85  1  0.25075024  0.17792605  0.10245010  1  -0.09376  0  -0.243222  -0.348635  0  3.980227  0
C  C86  1  0.05209759  0.72505262  0.43997973  1  0.36032  0  -0.069008  -0.009687  0  3.85279  0
C  C87  1  0.03970413  0.85086503  0.47187496  1  -0.004618  0  -0.177785  -0.141787  0  3.985442  0
C  C88  1  0.08383024  0.94349599  0.43198529  1  -0.070471  0  -0.249573  -0.341239  0  3.952012  0
C  C89  1  0.30589199  0.20341139  0.29356250  1  0.391893  0  -0.067956  0.0393  0  3.886522  0
C  C90  1  0.16238353  0.17229433  0.30873584  1  0.020399  0  -0.170476  -0.128891  0  3.966463  0
C  C91  1  0.15424417  0.04829673  0.27878697  1  -0.037971  0  -0.239273  -0.346835  0  3.953688  0
C  C92  1  0.87347493  0.51427787  0.24947800  1  0.385689  0  -0.061825  0.046885  0  3.874854  0
C  C93  1  0.86196584  0.65004161  0.27132101  1  -0.012334  0  -0.171726  -0.142387  0  3.978463  0
C  C94  1  0.01729773  0.65896379  0.28644117  1  -0.070883  0  -0.244814  -0.353439  0  3.956947  0
C  C95  1  0.19496238  0.52564734  0.81785375  1  0.378713  0  -0.072114  0.03512  0  3.883281  0
C  C96  1  0.05369720  0.58097580  0.85466790  1  0.009884  0  -0.167678  -0.127765  0  3.982508  0
C  C97  1  0.98524541  0.47554149  0.87161824  1  -0.057731  0  -0.242044  -0.346408  0  3.967767  0
I  I98  1  0.14741441  0.69245827  0.68535437  1  0.14934  0  0.087723  -0.002694  0  1.501952  0
I  I99  1  0.19476112  0.15112126  0.57135336  1  0.119684  0  0.098249  -0.00205  0  1.495853  0
I  I100  1  0.60241255  0.90886948  0.41063810  1  0.146582  0  0.134226  0.044553  0  1.473943  0
I  I101  1  0.00801137  0.35799868  0.42961762  1  0.414221  0  0.29324  0.191463  0  1.711721  0
I  I102  1  0.60238080  0.09573238  0.91495382  1  0.196096  0  0.11852  0.030706  0  1.44411  0
N  N103  1  0.54329119  0.53342693  0.85421459  1  -1.179839  0  -0.23201  -0.217794  0  3.62436  0
N  N104  1  0.53198599  0.45716716  0.15258782  1  -1.139335  0  -0.231032  -0.208674  0  3.609479  0
N  N105  1  0.87876872  0.41983791  0.50328463  1  -1.123078  0  -0.354612  -0.261916  0  3.288165  0
N  N106  1  0.11003896  0.57588722  0.51388600  1  -0.610891  0  -0.217248  -0.059736  0  3.435416  0
O  O107  1  0.62679506  0.62293777  0.46489796  1  -1.157881  0  -0.313503  -0.534753  0  2.311047  0
O  O108  1  0.51573177  0.74915289  0.86752899  1  -1.094206  0  -0.277552  -0.427412  0  2.057539  0
O  O109  1  0.44833296  0.67575456  0.16822914  1  -1.084142  0  -0.264399  -0.416177  0  2.104139  0
O  O110  1  0.60694362  0.23653455  0.13850973  1  -1.110138  0  -0.281721  -0.446118  0  2.089379  0
O  O111  1  0.38126797  0.69187513  0.49385119  1  -1.153253  0  -0.304223  -0.523498  0  2.395464  0
O  O112  1  0.61289179  0.37938249  0.42165370  1  -1.166477  0  -0.321407  -0.557678  0  2.341228  0
O  O113  1  0.36265736  0.48235757  0.41708168  1  -1.15299  0  -0.31034  -0.537454  0  2.335995  0
O  O114  1  0.63316619  0.27782719  0.53499405  1  -1.146165  0  -0.327334  -0.540159  0  2.249096  0
O  O115  1  0.38331591  0.32896035  0.51775614  1  -1.163957  0  -0.315343  -0.556218  0  2.40297  0
O  O116  1  0.60916297  0.53717163  0.58160999  1  -1.177886  0  -0.316157  -0.560338  0  2.323777  0
O  O117  1  0.36730833  0.53993113  0.59081477  1  -1.164602  0  -0.309896  -0.535779  0  2.422482  0
O  O118  1  0.57651609  0.31886696  0.83828150  1  -1.091976  0  -0.266447  -0.419917  0  2.173886  0
O  O119  1  0.46010446  0.82689060  0.08257674  1  -1.048044  0  -0.155921  -0.163422  0  2.569816  0
O  O120  1  0.00547908  0.63366041  0.47482485  1  -0.64298  0  -0.078684  -0.078326  0  2.484419  0
O  O121  1  0.29794155  0.32915391  0.31795854  1  -1.063379  0  -0.203583  -0.239752  0  2.49991  0
O  O122  1  0.74272867  0.50704183  0.21956494  1  -1.072292  0  -0.187126  -0.207237  0  2.55488  0
O  O123  1  0.26394765  0.62714478  0.80901326  1  -1.075735  0  -0.204677  -0.235321  0  2.551948  0
