# generated using pymatgen
data_CaH4C5N2O5
_symmetry_space_group_name_H-M   'P 1'
_cell_length_a   6.63081000
_cell_length_b   8.78440304
_cell_length_c   12.71959570
_cell_angle_alpha   89.99967455
_cell_angle_beta   89.99956985
_cell_angle_gamma   105.46565813
_symmetry_Int_Tables_number   1
_chemical_formula_structural   CaH4C5N2O5
_chemical_formula_sum   'Ca4 H16 C20 N8 O20'
_cell_volume   714.06010054
_cell_formula_units_Z   4
loop_
 _symmetry_equiv_pos_site_id
 _symmetry_equiv_pos_as_xyz
  1  'x, y, z'
loop_
 _atom_site_type_symbol
 _atom_site_label
 _atom_site_symmetry_multiplicity
 _atom_site_fract_x
 _atom_site_fract_y
 _atom_site_fract_z
 _atom_site_occupancy
 _atom_site_hle17_bader_spin_density
 _atom_site_hle17_ddec_charge
 _atom_site_hle17_ddec_spin_density
 _atom_site_hle17_ddec_sum_bond_order
 _atom_site_hle17_magmom
 _atom_site_hse06_10hf_bader_spin_density
 _atom_site_hse06_10hf_ddec_charge
 _atom_site_hse06_10hf_ddec_spin_density
 _atom_site_hse06_10hf_ddec_sum_bond_order
 _atom_site_hse06_10hf_magmom
 _atom_site_hse06_bader_spin_density
 _atom_site_hse06_ddec_charge
 _atom_site_hse06_ddec_spin_density
 _atom_site_hse06_ddec_sum_bond_order
 _atom_site_hse06_magmom
 _atom_site_pbe_bader_spin_density
 _atom_site_pbe_cm5_charge
 _atom_site_pbe_ddec_charge
 _atom_site_pbe_ddec_spin_density
 _atom_site_pbe_ddec_sum_bond_order
 _atom_site_pbe_magmom
Ca  Ca0  1  0.73992819  0.89363248  0.33060954  1  0  1.512328  0  1.125129  0  0  1.367367  0  1.487819  0  0  1.410964  0  1.444094  0  0  0.893341  1.334577  0  1.518916  0
Ca  Ca1  1  0.73992728  0.39362788  0.16938527  1  0  1.512342  0  1.125075  0  0  1.367469  0  1.487652  0  0  1.411066  0  1.443925  0  0  0.89336  1.334683  0  1.518745  0
Ca  Ca2  1  0.26007371  0.10636933  0.66938928  1  0  1.512361  0  1.125081  0  0  1.36739  0  1.487794  0  0  1.410984  0  1.444072  0  0  0.893359  1.334603  0  1.518888  0
Ca  Ca3  1  0.26007041  0.60637035  0.83061512  1  0  1.512369  0  1.125057  0  0  1.367512  0  1.487617  0  0  1.411104  0  1.443892  0  0  0.893378  1.334728  0  1.51871  0
H  H4  1  0.73578589  0.20921017  0.42129695  1  0  0.444186  0  0.851233  0  0  0.41245  0  0.915623  0  0  0.424062  0  0.89866  0  0  0.303397  0.404159  0  0.927722  0
H  H5  1  0.73578422  0.70920478  0.07870096  1  0  0.444219  0  0.851193  0  0  0.412464  0  0.915615  0  0  0.424077  0  0.898652  0  0  0.303415  0.404176  0  0.92771  0
H  H6  1  0.26421865  0.79079050  0.57870266  1  0  0.444182  0  0.851241  0  0  0.412442  0  0.915638  0  0  0.424055  0  0.898675  0  0  0.303395  0.404152  0  0.927734  0
H  H7  1  0.26421953  0.29079353  0.92130022  1  0  0.444124  0  0.851337  0  0  0.412395  0  0.915704  0  0  0.424008  0  0.898741  0  0  0.303389  0.404111  0  0.92779  0
H  H8  1  0.71168189  0.10649519  0.52468020  1  0  0.423449  0  0.867133  0  0  0.389115  0  0.939543  0  0  0.400439  0  0.922503  0  0  0.306737  0.380927  0  0.951838  0
H  H9  1  0.71168796  0.60649461  0.97531697  1  0  0.423411  0  0.867139  0  0  0.389081  0  0.939579  0  0  0.400405  0  0.922536  0  0  0.306726  0.380895  0  0.951874  0
H  H10  1  0.28831658  0.89350540  0.47531862  1  0  0.423436  0  0.867132  0  0  0.389101  0  0.939557  0  0  0.400425  0  0.922516  0  0  0.306732  0.380911  0  0.951855  0
H  H11  1  0.28831315  0.39350484  0.02468421  1  0  0.423437  0  0.867105  0  0  0.389113  0  0.939532  0  0  0.400434  0  0.922493  0  0  0.306748  0.380922  0  0.951834  0
H  H12  1  0.77101486  0.86949929  0.63091467  1  0  0.297269  0  0.932582  0  0  0.276235  0  0.99513  0  0  0.284808  0  0.988454  0  0  0.334964  0.270227  0  0.999884  0
H  H13  1  0.77101477  0.36949705  0.86908203  1  0  0.297324  0  0.932622  0  0  0.276279  0  0.995186  0  0  0.284852  0  0.988509  0  0  0.334957  0.270266  0  0.999938  0
H  H14  1  0.22898440  0.13050366  0.36908965  1  0  0.297328  0  0.93257  0  0  0.276295  0  0.995108  0  0  0.284862  0  0.988435  0  0  0.334992  0.270284  0  0.999861  0
H  H15  1  0.22898977  0.63050362  0.13091915  1  0  0.29728  0  0.932674  0  0  0.276243  0  0.995223  0  0  0.284816  0  0.988547  0  0  0.334947  0.270233  0  0.999975  0
H  H16  1  0.77521489  0.39215381  0.59305748  1  0  0.145195  0  0.966367  0  0  0.153036  0  1.027469  0  0  0.156956  0  1.025547  0  0  0.11993  0.150209  0  1.029016  0
H  H17  1  0.77519376  0.89214548  0.90693833  1  0  0.145235  0  0.966295  0  0  0.153061  0  1.027423  0  0  0.156981  0  1.025498  0  0  0.119925  0.150241  0  1.028974  0
H  H18  1  0.22479116  0.60784687  0.40694370  1  0  0.145169  0  0.966384  0  0  0.153043  0  1.027457  0  0  0.156963  0  1.025535  0  0  0.119923  0.150224  0  1.028976  0
H  H19  1  0.22478721  0.10784785  0.09305892  1  0  0.145221  0  0.966316  0  0  0.153065  0  1.02742  0  0  0.156983  0  1.025499  0  0  0.11992  0.150237  0  1.028964  0
C  C20  1  0.74564949  0.52376401  0.37356288  1  0  0.632043  0  3.967741  0  0  0.581914  0  4.262227  0  0  0.615864  0  4.254529  0  0  0.214562  0.558796  0  4.266723  0
C  C21  1  0.74564564  0.02376224  0.12643415  1  0  0.631801  0  3.967776  0  0  0.581595  0  4.262392  0  0  0.615553  0  4.25469  0  0  0.214455  0.558471  0  4.266887  0
C  C22  1  0.25435695  0.47623785  0.62643752  1  0  0.632056  0  3.967566  0  0  0.581876  0  4.262135  0  0  0.615832  0  4.254434  0  0  0.214582  0.558749  0  4.26664  0
C  C23  1  0.25434942  0.97623714  0.87356546  1  0  0.631947  0  3.967807  0  0  0.581721  0  4.262435  0  0  0.615678  0  4.25473  0  0  0.214467  0.558591  0  4.266944  0
C  C24  1  0.75567800  0.58586474  0.48164086  1  0  0.029859  0  3.806971  0  0  0.029588  0  4.072897  0  0  0.028225  0  4.091184  0  0  0.090484  0.030409  0  4.060567  0
C  C25  1  0.75566554  0.08585943  0.01835353  1  0  0.029877  0  3.80694  0  0  0.029604  0  4.072926  0  0  0.02824  0  4.091212  0  0  0.090407  0.03043  0  4.060605  0
C  C26  1  0.24432844  0.41413713  0.51835875  1  0  0.029927  0  3.806847  0  0  0.02967  0  4.072802  0  0  0.028305  0  4.091091  0  0  0.090501  0.030492  0  4.060478  0
C  C27  1  0.24432346  0.91413987  0.98164529  1  0  0.029806  0  3.807103  0  0  0.029558  0  4.073052  0  0  0.02819  0  4.091339  0  0  0.090474  0.030383  0  4.060734  0
C  C28  1  0.76989407  0.51233349  0.57835553  1  0  -0.180884  0  3.663133  0  0  -0.221447  0  3.931586  0  0  -0.225677  0  3.949684  0  0  -0.08654  -0.218665  0  3.919675  0
C  C29  1  0.76988007  0.01232811  0.92164022  1  0  -0.180991  0  3.66306  0  0  -0.221553  0  3.931501  0  0  -0.225784  0  3.949599  0  0  -0.086536  -0.218786  0  3.919601  0
C  C30  1  0.23011047  0.48766717  0.42164330  1  0  -0.180948  0  3.663205  0  0  -0.22155  0  3.931643  0  0  -0.225778  0  3.949738  0  0  -0.086567  -0.218763  0  3.919724  0
C  C31  1  0.23010662  0.98766881  0.07835625  1  0  -0.181002  0  3.663207  0  0  -0.221553  0  3.931633  0  0  -0.225783  0  3.949732  0  0  -0.086567  -0.218769  0  3.919708  0
C  C32  1  0.76515540  0.62636759  0.65347405  1  0  0.053683  0  3.685055  0  0  0.04138  0  3.952409  0  0  0.043033  0  3.966376  0  0  0.109196  0.040278  0  3.9432  0
C  C33  1  0.76514244  0.12636193  0.84652048  1  0  0.053715  0  3.685074  0  0  0.04151  0  3.95243  0  0  0.043162  0  3.966402  0  0  0.109221  0.040424  0  3.943194  0
C  C34  1  0.23484459  0.37363302  0.34652634  1  0  0.053707  0  3.68502  0  0  0.041448  0  3.952392  0  0  0.043095  0  3.966359  0  0  0.109231  0.040343  0  3.943175  0
C  C35  1  0.23484729  0.87363503  0.15347756  1  0  0.053795  0  3.684965  0  0  0.041482  0  3.952391  0  0  0.043137  0  3.966357  0  0  0.109201  0.040395  0  3.943156  0
C  C36  1  0.76253325  0.61336334  0.77011773  1  0  0.68675  0  3.891262  0  0  0.631664  0  4.193436  0  0  0.6681  0  4.179483  0  0  0.251228  0.606701  0  4.202319  0
C  C37  1  0.76253350  0.11336039  0.72988001  1  0  0.687039  0  3.890747  0  0  0.631737  0  4.19323  0  0  0.66817  0  4.179283  0  0  0.251259  0.606756  0  4.202127  0
C  C38  1  0.23746707  0.38663375  0.22988581  1  0  0.686963  0  3.891011  0  0  0.631775  0  4.193335  0  0  0.668217  0  4.179374  0  0  0.251302  0.606809  0  4.202221  0
C  C39  1  0.23746347  0.88664019  0.27011882  1  0  0.686848  0  3.890987  0  0  0.631659  0  4.193327  0  0  0.668095  0  4.179374  0  0  0.25123  0.606683  0  4.202219  0
N  N40  1  0.74729840  0.73665602  0.49618664  1  0  -0.28277  0  3.022276  0  0  -0.257449  0  3.296968  0  0  -0.264979  0  3.312083  0  0  -0.261741  -0.251653  0  3.286444  0
N  N41  1  0.74729911  0.23665340  0.00380798  1  0  -0.282818  0  3.022417  0  0  -0.257506  0  3.297113  0  0  -0.265041  0  3.312234  0  0  -0.26182  -0.251726  0  3.286596  0
N  N42  1  0.25270462  0.26334462  0.50381376  1  0  -0.282791  0  3.022223  0  0  -0.25747  0  3.296937  0  0  -0.265008  0  3.312058  0  0  -0.261764  -0.251685  0  3.286418  0
N  N43  1  0.25269976  0.76334837  0.99619163  1  0  -0.28271  0  3.022466  0  0  -0.257405  0  3.297148  0  0  -0.264935  0  3.312265  0  0  -0.261771  -0.251623  0  3.286635  0
N  N44  1  0.74854364  0.75684378  0.60008770  1  0  -0.122415  0  3.472516  0  0  -0.067846  0  3.709997  0  0  -0.077515  0  3.725999  0  0  -0.243305  -0.061485  0  3.699243  0
N  N45  1  0.74853842  0.25684111  0.89990638  1  0  -0.12252  0  3.472656  0  0  -0.067944  0  3.710122  0  0  -0.077612  0  3.726124  0  0  -0.243205  -0.061551  0  3.699329  0
N  N46  1  0.25145714  0.24315919  0.39991348  1  0  -0.122572  0  3.472444  0  0  -0.068011  0  3.709956  0  0  -0.077671  0  3.72596  0  0  -0.243373  -0.06163  0  3.699179  0
N  N47  1  0.25146006  0.74315949  0.10009244  1  0  -0.12253  0  3.472788  0  0  -0.067934  0  3.710275  0  0  -0.077602  0  3.726276  0  0  -0.243223  -0.061551  0  3.699495  0
O  O48  1  0.74628278  0.61934604  0.29710586  1  0  -0.709818  0  1.935217  0  0  -0.647306  0  2.175635  0  0  -0.675625  0  2.16775  0  0  -0.367085  -0.627064  0  2.180272  0
O  O49  1  0.74628236  0.11933988  0.20288765  1  0  -0.70968  0  1.935328  0  0  -0.647151  0  2.17581  0  0  -0.675456  0  2.167888  0  0  -0.367071  -0.626899  0  2.180443  0
O  O50  1  0.25372254  0.38065698  0.70289611  1  0  -0.709826  0  1.93515  0  0  -0.64731  0  2.175651  0  0  -0.675602  0  2.167695  0  0  -0.367105  -0.627065  0  2.180289  0
O  O51  1  0.25371652  0.88066189  0.79711118  1  0  -0.709739  0  1.935376  0  0  -0.647205  0  2.17586  0  0  -0.675515  0  2.167946  0  0  -0.367079  -0.626949  0  2.180494  0
O  O52  1  0.73593823  0.37894709  0.35812008  1  0  -0.667548  0  2.031744  0  0  -0.606354  0  2.268204  0  0  -0.633217  0  2.25945  0  0  -0.341767  -0.587415  0  2.273813  0
O  O53  1  0.73593833  0.87893626  0.14187559  1  0  -0.667424  0  2.031575  0  0  -0.606164  0  2.268038  0  0  -0.633029  0  2.259285  0  0  -0.341641  -0.587218  0  2.273647  0
O  O54  1  0.26406367  0.62105472  0.64188189  1  0  -0.667538  0  2.031706  0  0  -0.606346  0  2.268215  0  0  -0.63321  0  2.25946  0  0  -0.34176  -0.587398  0  2.273819  0
O  O55  1  0.26406009  0.12105962  0.85812402  1  0  -0.66744  0  2.031559  0  0  -0.606185  0  2.268033  0  0  -0.633051  0  2.259277  0  0  -0.34163  -0.587239  0  2.273641  0
O  O56  1  0.63123798  0.66408055  0.82256137  1  0  -0.681918  0  1.970844  0  0  -0.617936  0  2.210275  0  0  -0.644568  0  2.197296  0  0  -0.345211  -0.598977  0  2.218715  0
O  O57  1  0.63123692  0.16407586  0.67742959  1  0  -0.682084  0  1.970502  0  0  -0.617978  0  2.209976  0  0  -0.64461  0  2.197001  0  0  -0.345276  -0.599011  0  2.21842  0
O  O58  1  0.36876122  0.33591770  0.17744060  1  0  -0.681984  0  1.970643  0  0  -0.617987  0  2.21018  0  0  -0.644609  0  2.197169  0  0  -0.345251  -0.599029  0  2.218623  0
O  O59  1  0.36876419  0.83592359  0.32256687  1  0  -0.682034  0  1.970653  0  0  -0.617957  0  2.210049  0  0  -0.64459  0  2.19707  0  0  -0.345254  -0.598994  0  2.218492  0
O  O60  1  0.89076300  0.54510325  0.81147428  1  0  -0.689299  0  2.006072  0  0  -0.627141  0  2.249163  0  0  -0.653997  0  2.236952  0  0  -0.353499  -0.607987  0  2.257  0
O  O61  1  0.89075876  0.04510309  0.68852402  1  0  -0.689363  0  2.005954  0  0  -0.627143  0  2.249189  0  0  -0.653996  0  2.236979  0  0  -0.353464  -0.607976  0  2.257023  0
O  O62  1  0.10924226  0.45489507  0.18852690  1  0  -0.689325  0  2.005925  0  0  -0.627166  0  2.249122  0  0  -0.654022  0  2.236904  0  0  -0.353518  -0.608007  0  2.256952  0
O  O63  1  0.10923821  0.95489748  0.31147637  1  0  -0.689332  0  2.006046  0  0  -0.627132  0  2.249201  0  0  -0.653984  0  2.236987  0  0  -0.353488  -0.607966  0  2.257031  0
O  O64  1  0.73487427  0.10269025  0.44870998  1  0  -0.890107  0  1.784127  0  0  -0.837307  0  1.975272  0  0  -0.856923  0  1.940439  0  0  -0.624706  -0.823101  0  1.999912  0
O  O65  1  0.73487391  0.60268755  0.05128756  1  0  -0.890111  0  1.784077  0  0  -0.837322  0  1.975262  0  0  -0.856938  0  1.94043  0  0  -0.624706  -0.823115  0  1.999897  0
O  O66  1  0.26512724  0.89731038  0.55128963  1  0  -0.890094  0  1.78413  0  0  -0.837288  0  1.975291  0  0  -0.856905  0  1.940458  0  0  -0.624699  -0.823087  0  1.99993  0
O  O67  1  0.26513024  0.39731193  0.94871283  1  0  -0.890062  0  1.784141  0  0  -0.837291  0  1.97534  0  0  -0.856908  0  1.940513  0  0  -0.624714  -0.823085  0  1.999974  0
