# generated using pymatgen
data_CuH9C11SN3O4
_symmetry_space_group_name_H-M   'P 1'
_cell_length_a   6.73401549
_cell_length_b   11.99175116
_cell_length_c   15.21818451
_cell_angle_alpha   90.72408691
_cell_angle_beta   90.00184968
_cell_angle_gamma   89.99824264
_symmetry_Int_Tables_number   1
_chemical_formula_structural   CuH9C11SN3O4
_chemical_formula_sum   'Cu4 H36 C44 S4 N12 O16'
_cell_volume   1228.81041053
_cell_formula_units_Z   4
loop_
 _symmetry_equiv_pos_site_id
 _symmetry_equiv_pos_as_xyz
  1  'x, y, z'
loop_
 _atom_site_type_symbol
 _atom_site_label
 _atom_site_symmetry_multiplicity
 _atom_site_fract_x
 _atom_site_fract_y
 _atom_site_fract_z
 _atom_site_occupancy
 _atom_site_hle17_ddec_charge
 _atom_site_hle17_ddec_spin_density
 _atom_site_hle17_ddec_sum_bond_order
 _atom_site_hle17_magmom
 _atom_site_hse06_10hf_ddec_charge
 _atom_site_hse06_10hf_ddec_spin_density
 _atom_site_hse06_10hf_ddec_sum_bond_order
 _atom_site_hse06_10hf_magmom
 _atom_site_hse06_ddec_charge
 _atom_site_hse06_ddec_spin_density
 _atom_site_hse06_ddec_sum_bond_order
 _atom_site_hse06_magmom
 _atom_site_pbe_cm5_charge
 _atom_site_pbe_ddec_charge
 _atom_site_pbe_ddec_spin_density
 _atom_site_pbe_ddec_sum_bond_order
 _atom_site_pbe_magmom
Cu  Cu0  1  0.80860815  0.49151779  0.75168272  1  0.872497  0.62733  1.874568  0.461  0.852981  0.746527  2.275116  0.606  0.939274  0.850676  2.211151  0.711  0.724626  0.798831  0.577923  2.318995  0.46
Cu  Cu1  1  0.30860128  0.50848745  0.74830019  1  0.872477  -0.627325  1.874719  -0.461  0.852925  -0.746527  2.275327  -0.606  0.939237  -0.850677  2.211322  -0.711  0.724641  0.798816  -0.577909  2.319118  -0.46
Cu  Cu2  1  0.19139379  0.50848093  0.24831688  1  0.872488  0.627335  1.874588  0.461  0.85295  0.746532  2.275121  0.606  0.939242  0.850677  2.211163  0.711  0.724624  0.798761  0.577931  2.319068  0.46
Cu  Cu3  1  0.69139324  0.49151545  0.25169816  1  0.872417  -0.627343  1.87464  -0.461  0.85281  -0.74654  2.275272  -0.606  0.939254  -0.850686  2.211101  -0.711  0.724614  0.798849  -0.577945  2.318818  -0.46
H  H4  1  0.31135158  0.01460159  0.78356884  1  0.104906  -5e-06  0.962341  0.0  0.113182  -1e-06  1.025352  0.0  0.115289  -0.0  1.025946  0.0  0.105536  0.111605  -2e-06  1.025163  0.0
H  H5  1  0.81134194  0.98540596  0.71643517  1  0.104795  4e-06  0.962357  0.0  0.113083  1e-06  1.025362  0.0  0.115181  0.0  1.025954  0.0  0.105559  0.111498  2e-06  1.025165  0.0
H  H6  1  0.68864145  0.98539211  0.21643266  1  0.104913  -5e-06  0.962265  0.0  0.113198  -1e-06  1.025281  0.0  0.1153  -0.0  1.025876  0.0  0.105578  0.11162  -2e-06  1.025089  0.0
H  H7  1  0.18865257  0.01458691  0.28356501  1  0.104751  5e-06  0.962457  0.0  0.113061  1e-06  1.025462  0.0  0.115156  0.0  1.026052  0.0  0.105541  0.111477  2e-06  1.025264  0.0
H  H8  1  0.42614158  0.86382669  0.88258953  1  0.09718  -3.6e-05  0.957885  0.0  0.105479  -2.3e-05  1.020397  0.0  0.10891  -2.4e-05  1.019188  0.0  0.099919  0.103019  -2e-05  1.021361  0.0
H  H9  1  0.92611928  0.13617811  0.61741341  1  0.097034  3.7e-05  0.957844  0.0  0.105362  2.3e-05  1.020355  0.0  0.108784  2.4e-05  1.019145  0.0  0.099862  0.102899  2e-05  1.021313  0.0
H  H10  1  0.57386036  0.13616451  0.11741194  1  0.097182  -3.6e-05  0.957898  0.0  0.105433  -2.3e-05  1.020473  0.0  0.108906  -2.4e-05  1.019205  0.0  0.099895  0.102976  -2e-05  1.021421  0.0
H  H11  1  0.07387672  0.86382057  0.38259211  1  0.097048  3.6e-05  0.957949  0.0  0.105391  2.3e-05  1.020431  0.0  0.108806  2.4e-05  1.019231  0.0  0.099847  0.102932  2e-05  1.021385  0.0
H  H12  1  0.74634831  0.88236185  0.96352691  1  0.09175  5.5e-05  0.95379  0.0  0.103094  2.7e-05  1.014287  0.0  0.106222  3.1e-05  1.012656  0.0  0.102395  0.100897  1.9e-05  1.015549  0.0
H  H13  1  0.24631729  0.11764348  0.53647353  1  0.091772  -5.7e-05  0.953771  0.0  0.103114  -2.7e-05  1.014232  0.0  0.106239  -3.1e-05  1.012608  0.0  0.102405  0.100917  -1.9e-05  1.015492  0.0
H  H14  1  0.25365511  0.11763354  0.03647067  1  0.091777  5.6e-05  0.953807  0.0  0.103124  2.7e-05  1.014304  0.0  0.106254  3.1e-05  1.012671  0.0  0.102395  0.100923  1.9e-05  1.015562  0.0
H  H15  1  0.75368613  0.88236356  0.46352882  1  0.091751  -5.5e-05  0.953775  0.0  0.103092  -2.7e-05  1.014254  0.0  0.10622  -3.1e-05  1.012624  0.0  0.102379  0.100893  -1.9e-05  1.015513  0.0
H  H16  1  0.94945446  0.05712604  0.95103208  1  0.103687  0.0  0.949559  0.0  0.114461  -1e-06  1.009905  0.0  0.117747  1e-06  1.007591  0.0  0.109492  0.112069  -3e-06  1.011727  0.0
H  H17  1  0.44944871  0.94288250  0.54897715  1  0.103744  1e-06  0.949416  0.0  0.114513  1e-06  1.009804  0.0  0.117798  -1e-06  1.00749  0.0  0.109512  0.112124  3e-06  1.011624  0.0
H  H18  1  0.05053560  0.94287515  0.04897216  1  0.103681  0.0  0.949615  0.0  0.114461  -1e-06  1.009936  0.0  0.117747  1e-06  1.007621  0.0  0.109494  0.112072  -3e-06  1.011754  0.0
H  H19  1  0.55055769  0.05712455  0.45102454  1  0.103817  -0.0  0.949417  0.0  0.114567  1e-06  1.009808  0.0  0.117852  -1e-06  1.007493  0.0  0.109548  0.112179  3e-06  1.011627  0.0
H  H20  1  0.70531864  0.38943232  0.58601562  1  0.10538  -0.000232  0.965791  0.001  0.112814  -0.000177  1.028124  0.001  0.11628  -0.000126  1.024497  0.0  0.126352  0.109833  -0.000206  1.031431  0.0
H  H21  1  0.20532458  0.61054377  0.91397069  1  0.105189  0.000233  0.965829  -0.001  0.112776  0.000177  1.028055  -0.001  0.116239  0.000126  1.024427  0.0  0.126347  0.109793  0.000206  1.031371  0.0
H  H22  1  0.29470260  0.61056314  0.41397342  1  0.105498  -0.000232  0.965721  0.001  0.112879  -0.000177  1.028105  0.001  0.116348  -0.000126  1.024471  0.0  0.126368  0.109897  -0.000206  1.031416  0.0
H  H23  1  0.79467438  0.38946166  0.08602309  1  0.105199  0.000233  0.965824  -0.001  0.112764  0.000177  1.028049  -0.001  0.11623  0.000127  1.024421  0.0  0.126359  0.109782  0.000207  1.03136  0.0
H  H24  1  0.42074768  0.40994713  0.58027030  1  0.103695  0.000322  0.966872  -0.001  0.112889  0.000274  1.025994  -0.001  0.116488  0.000217  1.022588  0.0  0.126273  0.109889  0.000286  1.029023  0.0
H  H25  1  0.92076625  0.59006962  0.91970644  1  0.10359  -0.000322  0.966923  0.001  0.112784  -0.000274  1.026074  0.001  0.11639  -0.000217  1.022672  0.0  0.126233  0.109786  -0.000286  1.029099  0.0
H  H26  1  0.57926466  0.59005819  0.41973925  1  0.103637  0.000322  0.966998  -0.001  0.112878  0.000274  1.026092  -0.001  0.116476  0.000217  1.022689  0.0  0.126284  0.109881  0.000286  1.029117  0.0
H  H27  1  0.07922232  0.40992488  0.08029967  1  0.103606  -0.000322  0.966994  0.001  0.112792  -0.000274  1.026138  0.001  0.116397  -0.000217  1.022737  0.0  0.126269  0.109791  -0.000286  1.029166  0.0
H  H28  1  0.87699542  0.29729573  0.45626143  1  0.113278  6.3e-05  0.970727  0.0  0.120758  0.000282  1.031326  0.0  0.121795  0.000223  1.032417  0.0  0.116565  0.119979  0.000266  1.030812  0.0
H  H29  1  0.37701736  0.70268185  0.04373095  1  0.113134  -6.3e-05  0.970905  0.0  0.12075  -0.000282  1.031328  0.0  0.121774  -0.000223  1.032434  0.0  0.116489  0.11997  -0.000266  1.030814  0.0
H  H30  1  0.12304215  0.70271644  0.54372325  1  0.11316  6.3e-05  0.970854  0.0  0.120727  0.000282  1.031337  0.0  0.12175  0.000223  1.032447  0.0  0.116583  0.119947  0.000266  1.030824  0.0
H  H31  1  0.62296973  0.29732691  0.95626420  1  0.113138  -6.3e-05  0.970827  0.0  0.120732  -0.000282  1.031267  0.0  0.12177  -0.000223  1.032355  0.0  0.116478  0.119948  -0.000266  1.030751  0.0
H  H32  1  0.25593314  0.30792896  0.45197604  1  0.143421  -9.6e-05  0.967581  0.0  0.14853  -0.000351  1.028747  0.0  0.152289  -0.000277  1.025381  0.0  0.123787  0.145803  -0.000333  1.031452  0.0
H  H33  1  0.75595814  0.69205818  0.04801282  1  0.143418  9.6e-05  0.967574  0.0  0.148582  0.000351  1.028693  0.0  0.152328  0.000276  1.025345  0.0  0.123799  0.145854  0.000333  1.031394  0.0
H  H34  1  0.74409108  0.69208394  0.54802442  1  0.143306  -9.6e-05  0.96745  0.0  0.148543  -0.000351  1.028519  0.0  0.152221  -0.000277  1.025267  0.0  0.123756  0.145835  -0.000333  1.031196  0.0
H  H35  1  0.24402301  0.30794139  0.95198482  1  0.143485  9.6e-05  0.967467  0.0  0.148614  0.000351  1.028618  0.0  0.152372  0.000276  1.025245  0.0  0.123836  0.145881  0.000333  1.03132  0.0
H  H36  1  0.06265018  0.40891619  0.83890873  1  0.38981  -0.00025  0.914889  -0.001  0.363918  -0.000207  0.986988  -0.001  0.376505  -0.000248  0.969623  -0.001  0.268247  0.354726  -0.000137  0.999774  0.0
H  H37  1  0.56263433  0.59107733  0.66107388  1  0.389876  0.00025  0.914733  0.001  0.3639  0.000207  0.987009  0.001  0.376487  0.000247  0.969648  0.001  0.268224  0.354711  0.000137  0.999794  0.0
H  H38  1  0.93735473  0.59107836  0.16109081  1  0.389961  -0.00025  0.914714  -0.001  0.364039  -0.000206  0.986824  -0.001  0.376625  -0.000247  0.969464  -0.001  0.268298  0.354847  -0.000137  0.999612  0.0
H  H39  1  0.43737503  0.40892639  0.33892645  1  0.38981  0.00025  0.91478  0.001  0.363848  0.000207  0.987065  0.001  0.37643  0.000248  0.969708  0.001  0.268212  0.354657  0.000138  0.999851  0.0
C  C40  1  0.84063797  0.24121770  0.84190654  1  0.542357  -3.6e-05  3.916416  0.0  0.502706  -0.00019  4.20809  0.0  0.533255  -0.00013  4.205889  0.0  0.219009  0.482171  -0.00021  4.208669  0.0
C  C41  1  0.34064318  0.75877853  0.65809574  1  0.542341  3.3e-05  3.916328  0.0  0.502695  0.000191  4.20798  0.0  0.53325  0.000129  4.205781  0.0  0.219043  0.482163  0.00021  4.208565  0.0
C  C42  1  0.15935802  0.75877598  0.15809825  1  0.542302  -3.4e-05  3.916534  0.0  0.502593  -0.000189  4.20828  0.0  0.533142  -0.000131  4.206082  0.0  0.218984  0.482058  -0.00021  4.208859  0.0
C  C43  1  0.65936322  0.24121934  0.34190582  1  0.54221  3.6e-05  3.916488  0.0  0.502597  0.000191  4.208107  0.0  0.533149  0.000129  4.205914  0.0  0.218909  0.482064  0.000211  4.208696  0.0
C  C44  1  0.74703186  0.12979018  0.85893290  1  -0.07973  -0.000128  3.827751  0.0  -0.065981  -5e-05  4.061879  0.0  -0.071589  -8e-06  4.084729  0.0  -0.01776  -0.062234  -9.3e-05  4.046386  0.0
C  C45  1  0.24704746  0.87021925  0.64107550  1  -0.079732  0.000147  3.827565  0.0  -0.065973  4.9e-05  4.061759  0.0  -0.071585  9e-06  4.08462  0.0  -0.017779  -0.062221  9.2e-05  4.046264  0.0
C  C46  1  0.25295374  0.87021014  0.14107658  1  -0.079847  -0.000129  3.827935  0.0  -0.066143  -5.1e-05  4.061977  0.0  -0.07176  -8e-06  4.084829  0.0  -0.01775  -0.062391  -9.2e-05  4.046482  0.0
C  C47  1  0.75296487  0.12978362  0.35892679  1  -0.079801  0.000124  3.827747  0.0  -0.066052  4.9e-05  4.061975  0.0  -0.071665  1e-05  4.084833  0.0  -0.017825  -0.062298  9.2e-05  4.04648  0.0
C  C48  1  0.57076564  0.11604807  0.81163714  1  -0.140863  -0.000157  3.764463  0.0  -0.119602  -0.000104  4.002644  0.0  -0.124131  -9.3e-05  4.022863  0.0  -0.017857  -0.116675  -0.000104  3.989198  0.0
C  C49  1  0.07077217  0.88395934  0.68836616  1  -0.140871  0.000138  3.764331  0.0  -0.11974  0.000104  4.002723  0.0  -0.124276  9.3e-05  4.022951  0.0  -0.01779  -0.116815  0.000105  3.989274  0.0
C  C50  1  0.42923184  0.88394727  0.18836767  1  -0.140745  -0.000156  3.764673  0.0  -0.119206  -0.000104  4.002477  0.0  -0.123712  -9.2e-05  4.022658  0.0  -0.017812  -0.116284  -0.000104  3.989033  0.0
C  C51  1  0.92922828  0.11603857  0.31162883  1  -0.140626  0.000161  3.764075  0.0  -0.119536  0.000105  4.002555  0.0  -0.124069  9e-05  4.022778  0.0  -0.017744  -0.116612  0.000104  3.98911  0.0
C  C52  1  0.45092174  0.02249709  0.81928129  1  -0.049656  6.6e-05  3.717713  0.0  -0.072268  2.9e-05  3.963823  0.0  -0.071808  3e-05  3.982362  0.0  -0.078035  -0.072591  2.8e-05  3.951474  0.0
C  C53  1  0.95091578  0.97751059  0.68072794  1  -0.049459  -4.5e-05  3.717572  0.0  -0.072032  -2.9e-05  3.96371  0.0  -0.071555  -3e-05  3.982238  0.0  -0.078097  -0.072336  -2.8e-05  3.951341  0.0
C  C54  1  0.54907426  0.97749660  0.18072218  1  -0.049778  6.2e-05  3.717829  0.0  -0.072509  3e-05  3.963921  0.0  -0.07205  2.8e-05  3.982465  0.0  -0.078156  -0.072826  2.8e-05  3.951571  0.0
C  C55  1  0.04908319  0.02248644  0.31927426  1  -0.049514  -6.5e-05  3.717576  0.0  -0.072132  -3e-05  3.963808  0.0  -0.07165  -2.7e-05  3.982328  0.0  -0.07813  -0.072437  -2.8e-05  3.951443  0.0
C  C56  1  0.51722903  0.93832354  0.87527830  1  -0.051876  -0.000136  3.705788  0.0  -0.065988  -9.6e-05  3.957926  0.0  -0.067216  -8.3e-05  3.976373  0.0  -0.080612  -0.064998  -9.6e-05  3.945326  0.0
C  C57  1  0.01722260  0.06168718  0.62473876  1  -0.051731  0.000114  3.705731  0.0  -0.065906  9.5e-05  3.957872  0.0  -0.067119  8.3e-05  3.976309  0.0  -0.08049  -0.064909  9.6e-05  3.945254  0.0
C  C58  1  0.48276845  0.06167098  0.12472518  1  -0.051831  -0.000134  3.705919  0.0  -0.06591  -9.5e-05  3.958114  0.0  -0.067166  -8.2e-05  3.976531  0.0  -0.080565  -0.064916  -9.6e-05  3.945505  0.0
C  C59  1  0.98278230  0.93831313  0.37527204  1  -0.051778  0.000135  3.705704  0.0  -0.065933  9.5e-05  3.957847  0.0  -0.067142  8.3e-05  3.976291  0.0  -0.080474  -0.064939  9.6e-05  3.94523  0.0
C  C60  1  0.69605393  0.94965970  0.92157442  1  -0.050314  0.000122  3.732534  0.0  -0.069052  7.3e-05  3.989561  0.0  -0.069419  7.1e-05  4.008436  0.0  -0.080188  -0.068788  7e-05  3.976651  0.0
C  C61  1  0.19604464  0.05035306  0.57843792  1  -0.050337  -9.8e-05  3.732528  0.0  -0.068995  -7.4e-05  3.989471  0.0  -0.069361  -7e-05  4.008343  0.0  -0.080181  -0.06873  -7e-05  3.976555  0.0
C  C62  1  0.30394504  0.05033651  0.07842646  1  -0.050302  0.000119  3.732492  0.0  -0.069057  7.3e-05  3.989527  0.0  -0.069427  6.9e-05  4.008414  0.0  -0.080148  -0.068789  7e-05  3.976608  0.0
C  C63  1  0.80395730  0.94965479  0.42156707  1  -0.050302  -0.000123  3.732467  0.0  -0.068976  -7.3e-05  3.989413  0.0  -0.069346  -7.1e-05  4.008288  0.0  -0.080146  -0.06871  -6.9e-05  3.976497  0.0
C  C64  1  0.81147182  0.04617829  0.91466822  1  -0.05534  -9.8e-05  3.709571  0.0  -0.078796  -7.4e-05  3.960328  0.0  -0.078545  -6.2e-05  3.978067  0.0  -0.075107  -0.078903  -7.9e-05  3.948348  0.0
C  C65  1  0.31146376  0.95382840  0.58533841  1  -0.055402  7.5e-05  3.709567  0.0  -0.078884  7.5e-05  3.960372  0.0  -0.078633  6.1e-05  3.97811  0.0  -0.075138  -0.078994  8e-05  3.948395  0.0
C  C66  1  0.18852269  0.95381957  0.08533466  1  -0.055287  -9.7e-05  3.709344  0.0  -0.078741  -7.3e-05  3.960131  0.0  -0.078491  -6.1e-05  3.977874  0.0  -0.075097  -0.078851  -8e-05  3.948151  0.0
C  C67  1  0.68853967  0.04617698  0.41466260  1  -0.055453  9.9e-05  3.709698  0.0  -0.078903  7.4e-05  3.960501  0.0  -0.078652  6.2e-05  3.978243  0.0  -0.075152  -0.079012  8e-05  3.948524  0.0
C  C68  1  0.86532835  0.39000577  0.57796865  1  0.101125  -0.010592  3.650223  -0.011  0.069714  -0.003609  3.906742  -0.005  0.074645  -0.004359  3.92293  -0.006  0.064703  0.066735  -0.002527  3.897011  -0.003
C  C69  1  0.36534087  0.60998349  0.92201745  1  0.101453  0.010596  3.650042  0.011  0.069748  0.003609  3.906761  0.005  0.074689  0.004359  3.922938  0.006  0.064741  0.066765  0.002526  3.897038  0.003
C  C70  1  0.13468844  0.60999801  0.42202380  1  0.100904  -0.010596  3.650333  -0.011  0.069485  -0.003609  3.906917  -0.005  0.074421  -0.00436  3.923092  -0.006  0.064698  0.066507  -0.002527  3.89718  -0.003
C  C71  1  0.63465364  0.39001610  0.07797757  1  0.101405  0.010593  3.650034  0.011  0.069778  0.003609  3.906653  0.005  0.074715  0.004358  3.922848  0.006  0.064671  0.06679  0.002526  3.896942  0.003
C  C72  1  0.96252317  0.33932398  0.50720467  1  -0.037955  0.012715  3.652971  0.013  -0.055037  0.004835  3.902242  0.005  -0.056863  0.005057  3.920972  0.006  -0.05154  -0.054574  0.003896  3.890708  0.004
C  C73  1  0.46253230  0.66066780  0.99278478  1  -0.037848  -0.012717  3.653183  -0.013  -0.054911  -0.004836  3.902441  -0.005  -0.056726  -0.005058  3.921167  -0.006  -0.051461  -0.054447  -0.003896  3.890904  -0.004
C  C74  1  0.03749956  0.66068647  0.49278787  1  -0.037774  0.012714  3.652792  0.013  -0.054857  0.004835  3.902014  0.005  -0.056667  0.005057  3.92073  0.006  -0.051492  -0.054395  0.003896  3.890484  0.004
C  C75  1  0.53745330  0.33933678  0.00721227  1  -0.037848  -0.012716  3.653251  -0.013  -0.05493  -0.004837  3.902476  -0.005  -0.056757  -0.005058  3.921197  -0.006  -0.051456  -0.054463  -0.003896  3.890933  -0.004
C  C76  1  0.26094262  0.40055098  0.57456463  1  0.112856  0.010843  3.626173  0.012  0.082842  0.003685  3.876505  0.005  0.087729  0.004363  3.891717  0.006  0.068552  0.079867  0.002683  3.867473  0.003
C  C77  1  0.76096111  0.59944754  0.92541950  1  0.113153  -0.010844  3.626349  -0.012  0.083132  -0.003685  3.876771  -0.005  0.088012  -0.004363  3.89198  -0.006  0.068603  0.080159  -0.002684  3.867731  -0.003
C  C78  1  0.73906971  0.59945605  0.42543838  1  0.112977  0.01084  3.625888  0.012  0.082834  0.003684  3.8764  0.005  0.087729  0.004362  3.891593  0.006  0.068625  0.079856  0.002683  3.867385  0.003
C  C79  1  0.23903043  0.40055035  0.07457878  1  0.113103  -0.010841  3.626372  -0.012  0.083089  -0.003685  3.876742  -0.005  0.087965  -0.004364  3.891949  -0.006  0.068559  0.080116  -0.002684  3.867696  -0.003
C  C80  1  0.16764652  0.34491948  0.50482012  1  -0.047111  -0.013081  3.631402  -0.013  -0.064267  -0.005142  3.879579  -0.006  -0.064727  -0.005328  3.894388  -0.006  -0.047793  -0.064804  -0.004168  3.870849  -0.005
C  C81  1  0.66766126  0.65506809  0.99516518  1  -0.047181  0.013078  3.631611  0.013  -0.064418  0.005142  3.879871  0.006  -0.064876  0.005328  3.894693  0.006  -0.047761  -0.064952  0.004167  3.871133  0.005
C  C82  1  0.83237324  0.65508841  0.49517896  1  -0.046988  -0.013077  3.63082  -0.013  -0.064254  -0.005142  3.879082  -0.006  -0.064665  -0.005327  3.893944  -0.006  -0.047825  -0.064803  -0.004168  3.870337  -0.005
C  C83  1  0.33232731  0.34493233  0.00482984  1  -0.047265  0.013079  3.631781  0.013  -0.064441  0.005143  3.879957  0.006  -0.064913  0.005328  3.894801  0.006  -0.047827  -0.064971  0.004168  3.871211  0.005
S  S84  1  0.54067379  0.23712828  0.74667034  1  1.231013  -6.4e-05  5.421837  0.0  1.157295  -4.1e-05  5.926305  0.0  1.202379  -5.7e-05  5.910726  0.0  0.545076  1.126272  -1.4e-05  5.935985  0.0
S  S85  1  0.04069041  0.76287554  0.75332264  1  1.231398  6.6e-05  5.421544  0.0  1.157691  4.1e-05  5.926058  0.0  1.202782  5.9e-05  5.910464  0.0  0.545215  1.126671  1.5e-05  5.935742  0.0
S  S86  1  0.45931775  0.76286958  0.25333188  1  1.231124  -6.5e-05  5.422059  0.0  1.15733  -4.1e-05  5.926501  0.0  1.202414  -5.8e-05  5.910911  0.0  0.545044  1.126309  -1.4e-05  5.936187  0.0
S  S87  1  0.95929816  0.23712490  0.24666976  1  1.231144  6.6e-05  5.421697  0.0  1.157457  4.1e-05  5.92623  0.0  1.202545  5.8e-05  5.910646  0.0  0.545068  1.126436  1.4e-05  5.935915  0.0
N  N88  1  0.73918640  0.30169033  0.78195829  1  -0.709998  -0.000879  2.99328  0.0  -0.676581  -0.000834  3.313268  0.0  -0.706088  -0.00101  3.312754  0.0  -0.403948  -0.656546  -0.000525  3.313493  0.0
N  N89  1  0.23918461  0.69830517  0.71803337  1  -0.71005  0.00088  2.993694  0.0  -0.676634  0.000834  3.313693  0.0  -0.706149  0.001011  3.31318  0.0  -0.404005  -0.656602  0.000525  3.313926  0.0
N  N90  1  0.26081553  0.69830504  0.21804323  1  -0.71005  -0.00088  2.99362  0.0  -0.676641  -0.000834  3.31365  0.0  -0.706148  -0.001009  3.313137  0.0  -0.403995  -0.656597  -0.000525  3.31388  0.0
N  N91  1  0.76079208  0.30168778  0.28195629  1  -0.709989  0.000879  2.993657  0.0  -0.676526  0.000833  3.313565  0.0  -0.706056  0.00101  3.313044  0.0  -0.40392  -0.656518  0.000525  3.313799  0.0
N  N92  1  0.96372978  0.44206191  0.64276792  1  -0.131546  0.057561  3.271459  0.075  -0.093985  0.04275  3.563406  0.061  -0.114018  0.038103  3.586166  0.056  -0.20818  -0.081479  0.038137  3.550368  0.052
N  N93  1  0.46374326  0.55793238  0.85721764  1  -0.131607  -0.057566  3.271351  -0.075  -0.09393  -0.042753  3.563385  -0.061  -0.113969  -0.038104  3.58614  -0.056  -0.20818  -0.081424  -0.038142  3.550345  -0.052
N  N94  1  0.03627067  0.55793932  0.35723106  1  -0.131484  0.057569  3.271573  0.075  -0.093928  0.042755  3.563527  0.061  -0.113962  0.038106  3.586295  0.056  -0.20822  -0.081413  0.038144  3.550498  0.052
N  N95  1  0.53626165  0.44206468  0.14278128  1  -0.13164  -0.057562  3.271498  -0.075  -0.093993  -0.042751  3.563493  -0.061  -0.114064  -0.038103  3.586259  -0.056  -0.208181  -0.081518  -0.038142  3.550457  -0.052
N  N96  1  0.15987936  0.44667200  0.64129183  1  -0.126899  -0.05681  3.266937  -0.074  -0.088679  -0.042296  3.556377  -0.06  -0.107858  -0.037818  3.578833  -0.056  -0.206113  -0.076716  -0.037573  3.54346  -0.051
N  N97  1  0.65989386  0.55332990  0.85869028  1  -0.127015  0.056818  3.266993  0.074  -0.088853  0.042301  3.556497  0.06  -0.108028  0.037822  3.578958  0.056  -0.206174  -0.076887  0.037574  3.543586  0.051
N  N98  1  0.84012110  0.55333422  0.35870919  1  -0.126988  -0.056806  3.266746  -0.074  -0.088718  -0.042293  3.556224  -0.06  -0.107921  -0.037816  3.578685  -0.056  -0.206159  -0.07678  -0.037572  3.543304  -0.051
N  N99  1  0.34010807  0.44666465  0.14130795  1  -0.126918  0.056819  3.266975  0.074  -0.08874  0.042301  3.556422  0.06  -0.107907  0.037822  3.578891  0.056  -0.20612  -0.076768  0.037578  3.543523  0.051
O  O100  1  0.99107331  0.27570210  0.88245597  1  -0.54788  -0.001865  1.959932  -0.002  -0.492898  -0.001051  2.172925  -0.001  -0.512927  -0.000673  2.163773  -0.001  -0.298201  -0.478488  -0.001324  2.178653  -0.002
O  O101  1  0.49107290  0.72428663  0.61754237  1  -0.547941  0.001866  1.959778  0.002  -0.492923  0.001051  2.172773  0.001  -0.512934  0.000673  2.163596  0.001  -0.298242  -0.478512  0.001323  2.178506  0.002
O  O102  1  0.00893605  0.72428329  0.11754015  1  -0.547899  -0.001866  1.959863  -0.002  -0.492861  -0.001051  2.172836  -0.001  -0.512893  -0.000673  2.163691  -0.001  -0.298181  -0.478453  -0.001324  2.178576  -0.002
O  O103  1  0.50893943  0.27570871  0.38246375  1  -0.547831  0.001864  1.959704  0.002  -0.49281  0.001051  2.172658  0.001  -0.512832  0.000672  2.16349  0.001  -0.298116  -0.478398  0.001323  2.178396  0.002
O  O104  1  0.36231451  0.29691500  0.77396724  1  -0.620407  0.000758  1.977286  0.0  -0.584381  0.000919  2.238197  0.0  -0.605987  0.00103  2.224536  0.0  -0.321823  -0.569296  0.000647  2.247375  0.0
O  O105  1  0.86233452  0.70309265  0.72602039  1  -0.620611  -0.000758  1.977002  0.0  -0.584557  -0.000919  2.237889  0.0  -0.606165  -0.00103  2.224218  0.0  -0.321913  -0.569464  -0.000647  2.247071  0.0
O  O106  1  0.63767257  0.70307284  0.22603878  1  -0.620457  0.000758  1.977272  0.0  -0.58442  0.000919  2.238165  0.0  -0.606041  0.00103  2.2245  0.0  -0.321791  -0.569348  0.000647  2.247347  0.0
O  O107  1  0.13765108  0.29691029  0.27397204  1  -0.620552  -0.000758  1.977147  0.0  -0.58452  -0.000919  2.238045  0.0  -0.606124  -0.00103  2.224378  0.0  -0.32186  -0.569422  -0.000647  2.247225  0.0
O  O108  1  0.06287732  0.48581533  0.81477806  1  -0.852356  0.006177  1.900382  0.008  -0.867791  0.003018  2.221995  0.004  -0.930372  0.002432  2.197725  0.004  -0.58966  -0.826176  0.002771  2.239238  0.004
O  O109  1  0.56286456  0.51418313  0.68521251  1  -0.852424  -0.006177  1.900224  -0.008  -0.867767  -0.003017  2.222097  -0.004  -0.930302  -0.00243  2.197715  -0.004  -0.589617  -0.826153  -0.002772  2.239339  -0.004
O  O110  1  0.93712610  0.51418087  0.18522282  1  -0.852505  0.006175  1.900197  0.008  -0.867871  0.003017  2.221905  0.004  -0.930447  0.002431  2.197541  0.004  -0.589679  -0.826273  0.002773  2.239137  0.004
O  O111  1  0.43713143  0.48582306  0.31479245  1  -0.85231  -0.006186  1.900335  -0.008  -0.867604  -0.00302  2.221999  -0.004  -0.930222  -0.002432  2.197749  -0.004  -0.589589  -0.826013  -0.002773  2.23923  -0.004
O  O112  1  0.55625604  0.21100749  0.65322911  1  -0.611014  6.4e-05  1.89049  0.0  -0.565404  5.1e-05  2.122533  0.0  -0.587334  3.8e-05  2.113524  0.0  -0.323763  -0.549519  5.2e-05  2.128002  0.0
O  O113  1  0.05627530  0.78899608  0.84676408  1  -0.611125  -6.4e-05  1.890353  0.0  -0.56549  -5.1e-05  2.122372  0.0  -0.587413  -3.9e-05  2.113347  0.0  -0.323786  -0.549598  -5.2e-05  2.127844  0.0
O  O114  1  0.44374292  0.78899455  0.34677317  1  -0.611021  6.4e-05  1.890555  0.0  -0.565426  5.1e-05  2.122609  0.0  -0.587356  3.7e-05  2.113602  0.0  -0.323775  -0.549538  5.2e-05  2.128076  0.0
O  O115  1  0.94370288  0.21100603  0.15322834  1  -0.61106  -6.5e-05  1.890418  0.0  -0.56543  -5.1e-05  2.122436  0.0  -0.587354  -3.8e-05  2.113422  0.0  -0.323743  -0.549539  -5.1e-05  2.127902  0.0
