# generated using pymatgen
data_NaH3C(N2O)2
_symmetry_space_group_name_H-M   'P 1'
_cell_length_a   3.53809848
_cell_length_b   8.17562399
_cell_length_c   15.35057824
_cell_angle_alpha   90.00007476
_cell_angle_beta   89.99942043
_cell_angle_gamma   95.29595746
_symmetry_Int_Tables_number   1
_chemical_formula_structural   NaH3C(N2O)2
_chemical_formula_sum   'Na4 H12 C4 N16 O8'
_cell_volume   442.13784132
_cell_formula_units_Z   4
loop_
 _symmetry_equiv_pos_site_id
 _symmetry_equiv_pos_as_xyz
  1  'x, y, z'
loop_
 _atom_site_type_symbol
 _atom_site_label
 _atom_site_symmetry_multiplicity
 _atom_site_fract_x
 _atom_site_fract_y
 _atom_site_fract_z
 _atom_site_occupancy
 _atom_site_hle17_bader_spin_density
 _atom_site_hle17_ddec_charge
 _atom_site_hle17_ddec_spin_density
 _atom_site_hle17_ddec_sum_bond_order
 _atom_site_hle17_magmom
 _atom_site_hse06_10hf_bader_spin_density
 _atom_site_hse06_10hf_ddec_charge
 _atom_site_hse06_10hf_ddec_spin_density
 _atom_site_hse06_10hf_ddec_sum_bond_order
 _atom_site_hse06_10hf_magmom
 _atom_site_hse06_bader_spin_density
 _atom_site_hse06_ddec_charge
 _atom_site_hse06_ddec_spin_density
 _atom_site_hse06_ddec_sum_bond_order
 _atom_site_hse06_magmom
 _atom_site_pbe_bader_spin_density
 _atom_site_pbe_cm5_charge
 _atom_site_pbe_ddec_charge
 _atom_site_pbe_ddec_spin_density
 _atom_site_pbe_ddec_sum_bond_order
 _atom_site_pbe_magmom
Na  Na0  1  0.77910962  0.63187306  0.57376731  1  0  0.882248  0  0.404755  0  0  0.82371  0  0.58022  0  0  0.834685  0  0.557672  0  0  0.674582  0.815768  0  0.596231  0
Na  Na1  1  0.72088496  0.86812713  0.07376871  1  0  0.882255  0  0.404712  0  0  0.823668  0  0.580256  0  0  0.83465  0  0.557697  0  0  0.674568  0.815738  0  0.596259  0
Na  Na2  1  0.22089093  0.36812643  0.42623073  1  0  0.88226  0  0.404709  0  0  0.823693  0  0.580227  0  0  0.834669  0  0.557674  0  0  0.674581  0.815753  0  0.596232  0
Na  Na3  1  0.27911818  0.13187113  0.92623194  1  0  0.882245  0  0.404707  0  0  0.823695  0  0.580188  0  0  0.83467  0  0.557636  0  0  0.674582  0.815764  0  0.596197  0
H  H4  1  0.89031326  0.58099109  0.23999928  1  0  0.281333  0  0.968578  0  0  0.245992  0  1.054394  0  0  0.255907  0  1.04657  0  0  0.320311  0.239025  0  1.059939  0
H  H5  1  0.60969089  0.91900922  0.73999783  1  0  0.281331  0  0.968592  0  0  0.246021  0  1.054346  0  0  0.255933  0  1.046522  0  0  0.320353  0.239056  0  1.059892  0
H  H6  1  0.10968422  0.41900716  0.75999942  1  0  0.281299  0  0.968725  0  0  0.246012  0  1.05445  0  0  0.255927  0  1.046625  0  0  0.320342  0.239034  0  1.059996  0
H  H7  1  0.39031015  0.08099272  0.26000282  1  0  0.281361  0  0.968619  0  0  0.246073  0  1.054329  0  0  0.255977  0  1.046526  0  0  0.320388  0.239091  0  1.059888  0
H  H8  1  0.31371249  0.93906215  0.57044626  1  0  0.407091  0  0.896261  0  0  0.375433  0  0.963802  0  0  0.384603  0  0.950107  0  0  0.296706  0.368973  0  0.973453  0
H  H9  1  0.18628655  0.56093691  0.07044685  1  0  0.407097  0  0.896275  0  0  0.375443  0  0.963786  0  0  0.384616  0  0.950085  0  0  0.296699  0.368987  0  0.973433  0
H  H10  1  0.68629065  0.06093611  0.42955374  1  0  0.407084  0  0.896287  0  0  0.375433  0  0.963803  0  0  0.384599  0  0.950113  0  0  0.296698  0.368975  0  0.973453  0
H  H11  1  0.81371585  0.43905768  0.92955379  1  0  0.407128  0  0.896251  0  0  0.375474  0  0.96375  0  0  0.384646  0  0.950051  0  0  0.296721  0.369017  0  0.973398  0
H  H12  1  0.37081993  0.84196825  0.48426308  1  0  0.393538  0  0.926419  0  0  0.357438  0  1.001159  0  0  0.368072  0  0.985552  0  0  0.287494  0.349951  0  1.01215  0
H  H13  1  0.12918332  0.65803107  0.98426335  1  0  0.393519  0  0.92646  0  0  0.357401  0  1.001223  0  0  0.368038  0  0.985613  0  0  0.287474  0.349918  0  1.012209  0
H  H14  1  0.62918013  0.15802878  0.51573496  1  0  0.393505  0  0.926485  0  0  0.357378  0  1.001264  0  0  0.368018  0  0.98565  0  0  0.287455  0.34989  0  1.012256  0
H  H15  1  0.87081674  0.34196596  0.01573795  1  0  0.393441  0  0.92654  0  0  0.357349  0  1.001278  0  0  0.367986  0  0.985668  0  0  0.287457  0.349863  0  1.012266  0
C  C16  1  0.72337594  0.68704143  0.36320724  1  0  0.624921  0  3.921314  0  0  0.563961  0  4.226539  0  0  0.591436  0  4.22933  0  0  0.308073  0.545504  0  4.224168  0
C  C17  1  0.77663638  0.81295652  0.86320208  1  0  0.624782  0  3.921819  0  0  0.56399  0  4.226789  0  0  0.591469  0  4.229603  0  0  0.308031  0.545543  0  4.224422  0
C  C18  1  0.27662363  0.31295314  0.63679926  1  0  0.624882  0  3.921073  0  0  0.56397  0  4.226217  0  0  0.591455  0  4.228998  0  0  0.308022  0.545502  0  4.22384  0
C  C19  1  0.22335505  0.18705399  0.13680508  1  0  0.624745  0  3.921763  0  0  0.56399  0  4.226669  0  0  0.591469  0  4.229467  0  0  0.308109  0.545525  0  4.224295  0
N  N20  1  0.78514632  0.67822764  0.27507238  1  0  -0.312643  0  3.396618  0  0  -0.252403  0  3.658411  0  0  -0.27158  0  3.671019  0  0  -0.269496  -0.239742  0  3.649983  0
N  N21  1  0.71485418  0.82177637  0.77507322  1  0  -0.31262  0  3.39678  0  0  -0.252451  0  3.658528  0  0  -0.271609  0  3.671132  0  0  -0.269557  -0.239795  0  3.650101  0
N  N22  1  0.21484390  0.32177673  0.72492501  1  0  -0.312658  0  3.396898  0  0  -0.252467  0  3.658649  0  0  -0.271634  0  3.671237  0  0  -0.269566  -0.239758  0  3.650185  0
N  N23  1  0.28514896  0.17822190  0.22492807  1  0  -0.312655  0  3.397006  0  0  -0.252495  0  3.658696  0  0  -0.271657  0  3.671306  0  0  -0.26962  -0.239788  0  3.650235  0
N  N24  1  0.69372958  0.81617939  0.23590398  1  0  -0.123178  0  2.980798  0  0  -0.126396  0  3.285536  0  0  -0.123304  0  3.293817  0  0  -0.145568  -0.128262  0  3.279944  0
N  N25  1  0.80626628  0.68382089  0.73590842  1  0  -0.123053  0  2.980805  0  0  -0.126279  0  3.285545  0  0  -0.123207  0  3.293837  0  0  -0.145539  -0.128126  0  3.279942  0
N  N26  1  0.30627171  0.18382378  0.76409276  1  0  -0.123002  0  2.980546  0  0  -0.126225  0  3.285265  0  0  -0.123141  0  3.293544  0  0  -0.145497  -0.128103  0  3.27967  0
N  N27  1  0.19373710  0.31617860  0.26409288  1  0  -0.12307  0  2.980842  0  0  -0.126283  0  3.28556  0  0  -0.123207  0  3.293852  0  0  -0.145505  -0.128162  0  3.279956  0
N  N28  1  0.57774462  0.90908528  0.29730314  1  0  -0.053132  0  3.147749  0  0  -0.035283  0  3.446136  0  0  -0.03342  0  3.456296  0  0  -0.084715  -0.036061  0  3.439031  0
N  N29  1  0.92224898  0.59091749  0.79730529  1  0  -0.053299  0  3.147857  0  0  -0.035455  0  3.446287  0  0  -0.033623  0  3.45646  0  0  -0.084758  -0.036246  0  3.439173  0
N  N30  1  0.42225408  0.09091911  0.70269230  1  0  -0.053395  0  3.14789  0  0  -0.035553  0  3.4463  0  0  -0.033697  0  3.456455  0  0  -0.084811  -0.036337  0  3.439195  0
N  N31  1  0.07775439  0.40908201  0.20269601  1  0  -0.053231  0  3.147895  0  0  -0.035366  0  3.446298  0  0  -0.033528  0  3.456474  0  0  -0.084755  -0.036151  0  3.439195  0
N  N32  1  0.59123541  0.83749452  0.37625322  1  0  -0.442557  0  2.981067  0  0  -0.392575  0  3.24883  0  0  -0.411746  0  3.258653  0  0  -0.23269  -0.379708  0  3.242103  0
N  N33  1  0.90876858  0.66250710  0.87625480  1  0  -0.442472  0  2.981075  0  0  -0.392506  0  3.248759  0  0  -0.411688  0  3.258601  0  0  -0.232665  -0.379659  0  3.242035  0
N  N34  1  0.40874915  0.16250983  0.62374417  1  0  -0.44231  0  2.981181  0  0  -0.392292  0  3.248871  0  0  -0.411465  0  3.258696  0  0  -0.23255  -0.379439  0  3.242145  0
N  N35  1  0.09123738  0.33749117  0.12374650  1  0  -0.442468  0  2.981223  0  0  -0.392534  0  3.248876  0  0  -0.411706  0  3.258712  0  0  -0.232696  -0.379684  0  3.242165  0
O  O36  1  0.77213503  0.57611777  0.41886564  1  0  -0.761382  0  1.92693  0  0  -0.711033  0  2.180016  0  0  -0.731519  0  2.168  0  0  -0.466965  -0.696627  0  2.18788  0
O  O37  1  0.72788539  0.92387655  0.91885936  1  0  -0.761298  0  1.927014  0  0  -0.711026  0  2.180013  0  0  -0.731475  0  2.168007  0  0  -0.4669  -0.696606  0  2.187887  0
O  O38  1  0.22785357  0.42389273  0.58113110  1  0  -0.761493  0  1.926303  0  0  -0.711172  0  2.179363  0  0  -0.731675  0  2.167347  0  0  -0.466983  -0.696767  0  2.187233  0
O  O39  1  0.27211418  0.07611802  0.08113933  1  0  -0.761373  0  1.926655  0  0  -0.711101  0  2.179642  0  0  -0.731575  0  2.16762  0  0  -0.46698  -0.696693  0  2.187509  0
O  O40  1  0.30440646  0.82701089  0.54692529  1  0  -0.896218  0  1.818752  0  0  -0.84883  0  2.002467  0  0  -0.86312  0  1.968646  0  0  -0.68774  -0.838811  0  2.026227  0
O  O41  1  0.19560162  0.67298572  0.04692530  1  0  -0.896216  0  1.818769  0  0  -0.848804  0  2.002519  0  0  -0.863094  0  1.968684  0  0  -0.687701  -0.838792  0  2.02627  0
O  O42  1  0.69560725  0.17298372  0.45307406  1  0  -0.896187  0  1.818785  0  0  -0.848797  0  2.002556  0  0  -0.86308  0  1.96872  0  0  -0.687683  -0.838778  0  2.026314  0
O  O43  1  0.80440127  0.32701132  0.95307535  1  0  -0.896156  0  1.818845  0  0  -0.848796  0  2.002552  0  0  -0.863074  0  1.968699  0  0  -0.687708  -0.838781  0  2.026307  0
