# generated using pymatgen
data_AlH15(C4O3)6
_symmetry_space_group_name_H-M   'P 1'
_cell_length_a   3.98059168
_cell_length_b   28.62423253
_cell_length_c   28.62447674
_cell_angle_alpha   120.00001621
_cell_angle_beta   90.00023346
_cell_angle_gamma   90.00043685
_symmetry_Int_Tables_number   1
_chemical_formula_structural   AlH15(C4O3)6
_chemical_formula_sum   'Al2 H30 C48 O36'
_cell_volume   2824.55216004
_cell_formula_units_Z   2
loop_
 _symmetry_equiv_pos_site_id
 _symmetry_equiv_pos_as_xyz
  1  'x, y, z'
loop_
 _atom_site_type_symbol
 _atom_site_label
 _atom_site_symmetry_multiplicity
 _atom_site_fract_x
 _atom_site_fract_y
 _atom_site_fract_z
 _atom_site_occupancy
 _atom_site_pbe_bader_charge
 _atom_site_pbe_bader_spin_density
 _atom_site_pbe_cm5_charge
 _atom_site_pbe_ddec_charge
 _atom_site_pbe_ddec_spin_density
 _atom_site_pbe_ddec_sum_bond_order
 _atom_site_pbe_magmom
Al  Al0  1  0.99826456  0.50000162  0.49999904  1  2.504398  0  0.421855  1.593781  0  2.553761  0
Al  Al1  1  0.99828968  0.16666844  0.83333212  1  2.504335  0  0.421821  1.59382  0  2.553651  0
H  H2  1  0.51512001  0.38468604  0.72248056  1  0.108162  0  0.110376  0.119987  0  0.993928  0
H  H3  1  0.51491209  0.28198274  0.61084542  1  0.107649  0  0.110416  0.12004  0  0.99394  0
H  H4  1  0.51506870  0.83780039  0.61531983  1  0.097013  0  0.110395  0.120092  0  0.993826  0
H  H5  1  0.51494673  0.82886550  0.71801940  1  0.097367  0  0.110407  0.11998  0  0.993897  0
H  H6  1  0.51509936  0.27751963  0.16220016  1  0.10214  0  0.110387  0.120047  0  0.993874  0
H  H7  1  0.51492682  0.38915506  0.17113499  1  0.10191  0  0.110397  0.119945  0  0.993929  0
H  H8  1  0.86433076  0.28537503  0.84736426  1  0.640635  0  0.31596  0.366688  0  0.931875  0
H  H9  1  0.94821000  0.37712363  0.82101148  1  0.621487  0  0.334452  0.372513  0  0.876074  0
H  H10  1  0.13373574  0.16576930  0.71966192  1  0.650131  0  0.316371  0.366736  0  0.930137  0
H  H11  1  0.04218909  0.20523374  0.63888528  1  0.665504  0  0.334131  0.371845  0  0.876691  0
H  H12  1  0.04206903  0.46142620  0.69443683  1  0.634498  0  0.334056  0.371615  0  0.876868  0
H  H13  1  0.13371123  0.50090052  0.61366318  1  0.651076  0  0.316348  0.366618  0  0.930237  0
H  H14  1  0.94813049  0.28954424  0.51231752  1  0.620613  0  0.334412  0.372612  0  0.876096  0
H  H15  1  0.86431105  0.38129564  0.48596796  1  0.640523  0  0.316023  0.366815  0  0.931867  0
H  H16  1  0.86432259  0.06199437  0.71462772  1  0.640745  0  0.316053  0.366856  0  0.932013  0
H  H17  1  0.94817830  0.94389279  0.62287908  1  0.619209  0  0.334448  0.372637  0  0.875933  0
H  H18  1  0.13373660  0.05389870  0.83423388  1  0.659524  0  0.316383  0.36676  0  0.930139  0
H  H19  1  0.04215421  0.93365445  0.79476488  1  0.633002  0  0.334121  0.37178  0  0.876863  0
H  H20  1  0.04211489  0.73301272  0.53857292  1  0.634558  0  0.334061  0.371753  0  0.876794  0
H  H21  1  0.13373047  0.61276625  0.49910168  1  0.659459  0  0.316389  0.366731  0  0.930182  0
H  H22  1  0.94815809  0.72277604  0.71045932  1  0.621919  0  0.334437  0.372568  0  0.876036  0
H  H23  1  0.86432675  0.60467323  0.61870546  1  0.640783  0  0.315975  0.366633  0  0.932107  0
H  H24  1  0.86433070  0.15263655  0.93800869  1  0.635089  0  0.316037  0.366786  0  0.931921  0
H  H25  1  0.94820410  0.17898875  0.05610811  1  0.61703  0  0.334483  0.372681  0  0.876041  0
H  H26  1  0.13373452  0.28033448  0.94610128  1  0.622085  0  0.316389  0.366759  0  0.930223  0
H  H27  1  0.04215821  0.36111078  0.06634469  1  0.622726  0  0.334109  0.371792  0  0.876712  0
H  H28  1  0.04207893  0.30555995  0.26698380  1  0.620898  0  0.334124  0.371704  0  0.876723  0
H  H29  1  0.13371496  0.38633374  0.38723030  1  0.622192  0  0.316341  0.36669  0  0.930402  0
H  H30  1  0.94815560  0.48768276  0.27722535  1  0.618801  0  0.334434  0.372587  0  0.87608  0
H  H31  1  0.86431864  0.51403251  0.39532513  1  0.635009  0  0.31595  0.366621  0  0.931997  0
C  C32  1  0.49845975  0.46138000  0.41577936  1  1.405735  0  0.249265  0.641462  0  4.052097  0
C  C33  1  0.49846874  0.45440183  0.53861793  1  1.406968  0  0.249246  0.641439  0  4.052032  0
C  C34  1  0.49847002  0.58421775  0.54559639  1  1.333482  0  0.249173  0.641442  0  4.05201  0
C  C35  1  0.49848285  0.21226570  0.79471205  1  1.406075  0  0.249294  0.641445  0  4.051832  0
C  C36  1  0.49848659  0.08245141  0.78773684  1  1.333863  0  0.249376  0.641697  0  4.051956  0
C  C37  1  0.49848933  0.20528932  0.91755161  1  1.404882  0  0.249326  0.6417  0  4.051941  0
C  C38  1  0.50065644  0.24368071  0.76824227  1  0.035528  0  -0.056654  -0.302032  0  4.101452  0
C  C39  1  0.32378961  0.22626118  0.71911144  1  0.511047  0  0.060104  0.168589  0  4.124421  0
C  C40  1  0.33425338  0.25615174  0.69281552  1  0.510595  0  0.065446  0.135237  0  4.080001  0
C  C41  1  0.49982349  0.30663865  0.71632416  1  0.111768  0  -0.007352  -0.033661  0  3.995052  0
C  C42  1  0.66755099  0.32462655  0.76604716  1  0.533328  0  0.061793  0.130397  0  4.092229  0
C  C43  1  0.67926477  0.29331610  0.79070616  1  0.501025  0  0.060834  0.170696  0  4.126943  0
C  C44  1  0.49682212  0.34173795  0.69338214  1  -0.053341  0  -0.073773  -0.065083  0  3.901279  0
C  C45  1  0.49675058  0.32492969  0.63994352  1  0.044421  0  -0.073565  -0.064892  0  3.901294  0
C  C46  1  0.66746591  0.34204384  0.56728120  1  0.533263  0  0.061618  0.130271  0  4.092344  0
C  C47  1  0.49974077  0.36002738  0.61700311  1  0.111515  0  -0.00738  -0.033606  0  3.994733  0
C  C48  1  0.33419428  0.41051620  0.64051210  1  0.511093  0  0.06525  0.13489  0  4.079605  0
C  C49  1  0.32372397  0.44040366  0.61421226  1  0.511459  0  0.060334  0.168988  0  4.123904  0
C  C50  1  0.50061360  0.42298988  0.56508674  1  0.03572  0  -0.056626  -0.301904  0  4.101388  0
C  C51  1  0.67921096  0.37335600  0.54262471  1  0.500836  0  0.0607  0.170534  0  4.126975  0
C  C52  1  0.50064499  0.02456809  0.75632393  1  0.110257  0  -0.056603  -0.301943  0  4.101211  0
C  C53  1  0.32376953  0.99285447  0.77373980  1  0.446194  0  0.060225  0.168773  0  4.124031  0
C  C54  1  0.33424084  0.93666786  0.74385054  1  0.623848  0  0.065365  0.135179  0  4.079575  0
C  C55  1  0.49979769  0.90968819  0.69336306  1  0.013551  0  -0.007352  -0.033607  0  3.994637  0
C  C56  1  0.66750961  0.94142620  0.67537697  1  0.508151  0  0.061659  0.130359  0  4.092277  0
C  C57  1  0.67925360  0.99739661  0.70668983  1  0.555733  0  0.060782  0.170563  0  4.127014  0
C  C58  1  0.49680606  0.85164778  0.65826577  1  -0.013646  0  -0.073831  -0.065404  0  3.90136  0
C  C59  1  0.49676756  0.81501788  0.67507363  1  0.100805  0  -0.073577  -0.064686  0  3.901302  0
C  C60  1  0.66748310  0.72524102  0.65796072  1  0.508371  0  0.06157  0.130131  0  4.092485  0
C  C61  1  0.49976498  0.75697968  0.63997694  1  0.012919  0  -0.007335  -0.033642  0  3.995047  0
C  C62  1  0.33422533  0.72999738  0.58948526  1  0.624352  0  0.065256  0.134996  0  4.079616  0
C  C63  1  0.32374749  0.67381015  0.55959658  1  0.44583  0  0.060258  0.168801  0  4.124052  0
C  C64  1  0.50063007  0.64209741  0.57701087  1  0.113064  0  -0.056584  -0.301898  0  4.10144  0
C  C65  1  0.67923562  0.66927075  0.62664637  1  0.552572  0  0.06079  0.17057  0  4.126877  0
C  C66  1  0.50063125  0.23175514  0.97543261  1  0.020241  0  -0.056581  -0.301915  0  4.101307  0
C  C67  1  0.32376903  0.28088420  0.00714479  1  0.524609  0  0.060274  0.168777  0  4.124096  0
C  C68  1  0.33423381  0.30718058  0.06333110  1  0.540342  0  0.065279  0.135024  0  4.079724  0
C  C69  1  0.49980436  0.28367422  0.09031197  1  0.115084  0  -0.007345  -0.033607  0  3.994656  0
C  C70  1  0.66751879  0.23395001  0.05857347  1  0.492616  0  0.061671  0.130376  0  4.092237  0
C  C71  1  0.67923418  0.20929323  0.00260477  1  0.546848  0  0.06085  0.170672  0  4.126875  0
C  C72  1  0.49680876  0.30661801  0.14835277  1  -0.059368  0  -0.073789  -0.065263  0  3.901506  0
C  C73  1  0.49676304  0.36005534  0.18498227  1  0.03274  0  -0.073573  -0.064679  0  3.901397  0
C  C74  1  0.66746959  0.43271719  0.27475779  1  0.492434  0  0.061653  0.130237  0  4.0924  0
C  C75  1  0.49975650  0.38299435  0.24301948  1  0.11477  0  -0.007369  -0.033695  0  3.995034  0
C  C76  1  0.33420542  0.35948494  0.26999936  1  0.540541  0  0.065354  0.135121  0  4.079819  0
C  C77  1  0.32372859  0.38578370  0.32618605  1  0.524339  0  0.060199  0.168699  0  4.124161  0
C  C78  1  0.50061367  0.43491118  0.35789858  1  0.021459  0  -0.056551  -0.30182  0  4.101486  0
C  C79  1  0.67923061  0.45737484  0.33072775  1  0.545898  0  0.060737  0.170463  0  4.12694  0
O  O80  1  0.72897279  0.55704335  0.55422720  1  -1.264708  0  -0.251285  -0.622043  0  2.388544  0
O  O81  1  0.72895702  0.49718694  0.44295701  1  -1.26727  0  -0.251333  -0.622027  0  2.388419  0
O  O82  1  0.72895384  0.44577199  0.50281208  1  -1.26311  0  -0.25131  -0.622033  0  2.388588  0
O  O83  1  0.26595567  0.55998215  0.50924413  1  -1.265637  0  -0.250722  -0.619815  0  2.382196  0
O  O84  1  0.26595425  0.49075507  0.55073653  1  -1.261471  0  -0.250802  -0.619886  0  2.382283  0
O  O85  1  0.26594153  0.44926273  0.44001429  1  -1.264145  0  -0.250844  -0.619942  0  2.382408  0
O  O86  1  0.72898634  0.16948468  0.89037661  1  -1.267425  0  -0.251336  -0.622074  0  2.388444  0
O  O87  1  0.72899202  0.22089565  0.83051714  1  -1.262033  0  -0.251323  -0.621933  0  2.388504  0
O  O88  1  0.72898816  0.10962796  0.77910812  1  -1.264648  0  -0.251416  -0.622177  0  2.388616  0
O  O89  1  0.26597366  0.21740578  0.89331674  1  -1.263259  0  -0.250877  -0.620158  0  2.382485  0
O  O90  1  0.26595952  0.10668500  0.82408756  1  -1.266  0  -0.250825  -0.620057  0  2.38244  0
O  O91  1  0.26594336  0.17591199  0.78259385  1  -1.261282  0  -0.250873  -0.619988  0  2.382331  0
O  O92  1  0.85512930  0.31424909  0.83791103  1  -1.157608  0  -0.362049  -0.450556  0  2.295208  0
O  O93  1  0.83080480  0.37318094  0.78921750  1  -1.119967  0  -0.346566  -0.418159  0  2.278  0
O  O94  1  0.14741213  0.17902228  0.69372080  1  -1.163516  0  -0.36099  -0.449248  0  2.298212  0
O  O95  1  0.16875669  0.23706017  0.64481384  1  -1.160811  0  -0.339898  -0.414825  0  2.302834  0
O  O96  1  0.16868239  0.42960534  0.68851218  1  -1.129881  0  -0.339834  -0.414552  0  2.302863  0
O  O97  1  0.14736746  0.48764650  0.63960608  1  -1.164543  0  -0.361041  -0.449304  0  2.298062  0
O  O98  1  0.83070628  0.29348698  0.54411036  1  -1.118936  0  -0.34637  -0.418206  0  2.278235  0
O  O99  1  0.85508057  0.35241956  0.49542038  1  -1.158338  0  -0.361984  -0.450568  0  2.295307  0
O  O100  1  0.85509133  0.02366755  0.68575432  1  -1.161039  0  -0.362014  -0.450615  0  2.295617  0
O  O101  1  0.83075280  0.91604296  0.62682153  1  -1.117657  0  -0.346497  -0.418263  0  2.27813  0
O  O102  1  0.14741920  0.01470294  0.82098039  1  -1.177048  0  -0.361078  -0.44938  0  2.298205  0
O  O103  1  0.16873724  0.90775652  0.76294158  1  -1.132783  0  -0.339887  -0.414774  0  2.302801  0
O  O104  1  0.16872035  0.75890953  0.57039426  1  -1.134263  0  -0.339765  -0.414629  0  2.302566  0
O  O105  1  0.14738551  0.65196315  0.51235268  1  -1.176982  0  -0.3611  -0.449382  0  2.298095  0
O  O106  1  0.83072654  0.75062621  0.70651685  1  -1.120212  0  -0.346443  -0.418114  0  2.278039  0
O  O107  1  0.85510096  0.64300202  0.64758245  1  -1.160797  0  -0.362  -0.450415  0  2.295481  0
O  O108  1  0.85509919  0.16208853  0.97633536  1  -1.156738  0  -0.362065  -0.450617  0  2.295433  0
O  O109  1  0.83077812  0.21078066  0.08395827  1  -1.11804  0  -0.34657  -0.418371  0  2.278184  0
O  O110  1  0.14739959  0.30627719  0.98529744  1  -1.138577  0  -0.361092  -0.449361  0  2.298225  0
O  O111  1  0.16875263  0.35518491  0.09224160  1  -1.121155  0  -0.339849  -0.414723  0  2.302704  0
O  O112  1  0.16869560  0.31148243  0.24108790  1  -1.119395  0  -0.339879  -0.41461  0  2.302774  0
O  O113  1  0.14737498  0.36038846  0.34803397  1  -1.138462  0  -0.36103  -0.449299  0  2.298247  0
O  O114  1  0.83073710  0.45588819  0.24937257  1  -1.119737  0  -0.346523  -0.418241  0  2.278124  0
O  O115  1  0.85508808  0.50458117  0.35699710  1  -1.156805  0  -0.361911  -0.45032  0  2.295395  0
