# generated using pymatgen
data_CdH10C11(NO3)2
_symmetry_space_group_name_H-M   'P 1'
_cell_length_a   7.96614493
_cell_length_b   12.07678183
_cell_length_c   13.31272951
_cell_angle_alpha   91.02950622
_cell_angle_beta   89.99968493
_cell_angle_gamma   89.99961542
_symmetry_Int_Tables_number   1
_chemical_formula_structural   CdH10C11(NO3)2
_chemical_formula_sum   'Cd4 H40 C44 N8 O24'
_cell_volume   1280.54964606
_cell_formula_units_Z   4
loop_
 _symmetry_equiv_pos_site_id
 _symmetry_equiv_pos_as_xyz
  1  'x, y, z'
loop_
 _atom_site_type_symbol
 _atom_site_label
 _atom_site_symmetry_multiplicity
 _atom_site_fract_x
 _atom_site_fract_y
 _atom_site_fract_z
 _atom_site_occupancy
 _atom_site_hle17_bader_spin_density
 _atom_site_hle17_ddec_charge
 _atom_site_hle17_ddec_spin_density
 _atom_site_hle17_ddec_sum_bond_order
 _atom_site_hle17_magmom
 _atom_site_hse06_10hf_bader_spin_density
 _atom_site_hse06_10hf_ddec_charge
 _atom_site_hse06_10hf_ddec_spin_density
 _atom_site_hse06_10hf_ddec_sum_bond_order
 _atom_site_hse06_10hf_magmom
 _atom_site_hse06_bader_spin_density
 _atom_site_hse06_ddec_charge
 _atom_site_hse06_ddec_spin_density
 _atom_site_hse06_ddec_sum_bond_order
 _atom_site_hse06_magmom
 _atom_site_pbe_bader_spin_density
 _atom_site_pbe_cm5_charge
 _atom_site_pbe_ddec_charge
 _atom_site_pbe_ddec_spin_density
 _atom_site_pbe_ddec_sum_bond_order
 _atom_site_pbe_magmom
Cd  Cd0  1  0.99502805  0.75003963  0.05367234  1  0  1.188173  0  1.601814  0  0  1.003858  0  2.050223  0  0  1.062358  0  1.992906  0  0  0.777127  0.962208  0  2.089445  0
Cd  Cd1  1  0.49502533  0.74995799  0.44633058  1  0  1.188169  0  1.601768  0  0  1.003843  0  2.05018  0  0  1.062348  0  1.992861  0  0  0.777101  0.962186  0  2.089395  0
Cd  Cd2  1  0.00497804  0.24995655  0.94632944  1  0  1.188189  0  1.601789  0  0  1.003848  0  2.050201  0  0  1.062352  0  1.992883  0  0  0.777131  0.962204  0  2.089422  0
Cd  Cd3  1  0.50497323  0.25004399  0.55367056  1  0  1.188172  0  1.601756  0  0  1.003864  0  2.050169  0  0  1.062368  0  1.99285  0  0  0.777125  0.96221  0  2.089383  0
H  H4  1  0.81391050  0.95786222  0.06020238  1  0  0.423858  0  0.887568  0  0  0.390056  0  0.9559  0  0  0.401865  0  0.939023  0  0  0.280204  0.381688  0  0.967843  0
H  H5  1  0.31390242  0.54213540  0.43979663  1  0  0.42386  0  0.88756  0  0  0.390024  0  0.955943  0  0  0.401835  0  0.939063  0  0  0.280201  0.381657  0  0.967888  0
H  H6  1  0.18609810  0.04213314  0.93979412  1  0  0.423886  0  0.887544  0  0  0.390051  0  0.955922  0  0  0.401861  0  0.939045  0  0  0.280234  0.381687  0  0.96786  0
H  H7  1  0.68609237  0.45786657  0.56020526  1  0  0.423818  0  0.887623  0  0  0.389976  0  0.956016  0  0  0.401787  0  0.939136  0  0  0.280174  0.381605  0  0.967964  0
H  H8  1  0.30818716  0.08562704  0.08187365  1  0  0.132616  0  0.936841  0  0  0.147047  0  0.994714  0  0  0.149826  0  0.993285  0  0  0.109999  0.145032  0  0.99586  0
H  H9  1  0.80818240  0.41437007  0.41812770  1  0  0.132615  0  0.936755  0  0  0.147048  0  0.994648  0  0  0.149826  0  0.993219  0  0  0.109984  0.145033  0  0.995804  0
H  H10  1  0.69181642  0.91436749  0.91812585  1  0  0.132615  0  0.936727  0  0  0.147042  0  0.994652  0  0  0.149821  0  0.993224  0  0  0.109978  0.145025  0  0.995806  0
H  H11  1  0.19181239  0.58563190  0.58187494  1  0  0.132593  0  0.936721  0  0  0.147052  0  0.994589  0  0  0.149833  0  0.993161  0  0  0.109991  0.145035  0  0.995743  0
H  H12  1  0.47994188  0.99370641  0.08736712  1  0  0.132239  0  0.924322  0  0  0.147438  0  0.983123  0  0  0.150012  0  0.98207  0  0  0.114932  0.145535  0  0.984056  0
H  H13  1  0.97994007  0.50629046  0.41263283  1  0  0.132204  0  0.924425  0  0  0.147446  0  0.983178  0  0  0.15002  0  0.982125  0  0  0.114909  0.145542  0  0.984113  0
H  H14  1  0.52006170  0.00629474  0.91263251  1  0  0.132243  0  0.92433  0  0  0.14747  0  0.983126  0  0  0.150046  0  0.982071  0  0  0.114906  0.145559  0  0.984068  0
H  H15  1  0.02005598  0.49370986  0.58736978  1  0  0.132205  0  0.924389  0  0  0.147408  0  0.98319  0  0  0.149984  0  0.982136  0  0  0.11492  0.145503  0  0.984123  0
H  H16  1  0.06036885  0.12773775  0.21641651  1  0  0.110682  0  0.957636  0  0  0.120207  0  1.018308  0  0  0.123021  0  1.016292  0  0  0.127734  0.118102  0  1.019787  0
H  H17  1  0.56036699  0.37226381  0.28357823  1  0  0.110691  0  0.957737  0  0  0.120192  0  1.018422  0  0  0.123005  0  1.016405  0  0  0.127764  0.118093  0  1.019899  0
H  H18  1  0.93963222  0.87226011  0.78357779  1  0  0.110711  0  0.957693  0  0  0.120218  0  1.018387  0  0  0.123032  0  1.016371  0  0  0.127752  0.118109  0  1.019865  0
H  H19  1  0.43962905  0.62773651  0.71642513  1  0  0.110727  0  0.957742  0  0  0.120251  0  1.018395  0  0  0.123065  0  1.016379  0  0  0.127786  0.118153  0  1.01987  0
H  H20  1  0.80505756  0.08076187  0.32094368  1  0  0.113859  0  0.968023  0  0  0.120464  0  1.031312  0  0  0.123583  0  1.031214  0  0  0.106972  0.118188  0  1.031635  0
H  H21  1  0.30505553  0.41923859  0.17905324  1  0  0.113893  0  0.967972  0  0  0.120498  0  1.031258  0  0  0.123615  0  1.031163  0  0  0.106992  0.118238  0  1.031576  0
H  H22  1  0.19494100  0.91924013  0.67905220  1  0  0.113905  0  0.967967  0  0  0.120488  0  1.031281  0  0  0.123606  0  1.031184  0  0  0.106993  0.118217  0  1.031605  0
H  H23  1  0.69494303  0.58076173  0.82095013  1  0  0.11388  0  0.967969  0  0  0.12048  0  1.031258  0  0  0.123597  0  1.031163  0  0  0.106981  0.118218  0  1.031582  0
H  H24  1  0.09114454  0.81546932  0.45395529  1  0  0.134399  0  0.923786  0  0  0.146673  0  0.975255  0  0  0.150339  0  0.974577  0  0  0.119301  0.144039  0  0.975993  0
H  H25  1  0.59114046  0.68453014  0.04604300  1  0  0.1344  0  0.923772  0  0  0.146678  0  0.975234  0  0  0.150344  0  0.97456  0  0  0.119302  0.144054  0  0.975966  0
H  H26  1  0.90885402  0.18453433  0.54604363  1  0  0.134402  0  0.923809  0  0  0.146683  0  0.975259  0  0  0.15035  0  0.97458  0  0  0.119299  0.144046  0  0.975999  0
H  H27  1  0.40886061  0.31546853  0.95395658  1  0  0.134439  0  0.923727  0  0  0.146685  0  0.975221  0  0  0.150351  0  0.974545  0  0  0.119313  0.14406  0  0.975955  0
H  H28  1  0.82172707  0.92045279  0.43820140  1  0  0.111981  0  0.935492  0  0  0.122408  0  0.994213  0  0  0.125266  0  0.991096  0  0  0.114834  0.120232  0  0.996538  0
H  H29  1  0.32172077  0.57954894  0.06179691  1  0  0.111948  0  0.935534  0  0  0.122405  0  0.994208  0  0  0.125263  0  0.991092  0  0  0.11483  0.120236  0  0.996532  0
H  H30  1  0.17827526  0.07955086  0.56179602  1  0  0.112012  0  0.935515  0  0  0.12244  0  0.99423  0  0  0.125297  0  0.991119  0  0  0.114885  0.120263  0  0.996557  0
H  H31  1  0.67827904  0.42044890  0.93820490  1  0  0.112043  0  0.935443  0  0  0.122505  0  0.99409  0  0  0.125362  0  0.990973  0  0  0.114901  0.120307  0  0.996455  0
H  H32  1  0.55494932  0.14233858  0.20935516  1  0  0.129046  0  0.910291  0  0  0.144608  0  0.965123  0  0  0.147288  0  0.963914  0  0  0.112168  0.14268  0  0.966098  0
H  H33  1  0.05494816  0.35766051  0.29064481  1  0  0.12899  0  0.910363  0  0  0.144574  0  0.965165  0  0  0.147256  0  0.96396  0  0  0.112148  0.142641  0  0.966139  0
H  H34  1  0.44505175  0.85766589  0.79064452  1  0  0.129039  0  0.910327  0  0  0.144595  0  0.965159  0  0  0.147278  0  0.963951  0  0  0.112158  0.14266  0  0.966141  0
H  H35  1  0.94505165  0.64233733  0.70935625  1  0  0.129018  0  0.910335  0  0  0.144591  0  0.965154  0  0  0.147273  0  0.963947  0  0  0.11217  0.142667  0  0.966128  0
H  H36  1  0.35082390  0.19812745  0.22119702  1  0  0.131419  0  0.921477  0  0  0.145537  0  0.982137  0  0  0.148553  0  0.980492  0  0  0.112601  0.143382  0  0.983405  0
H  H37  1  0.85082280  0.30186947  0.27880268  1  0  0.131461  0  0.921424  0  0  0.145564  0  0.982106  0  0  0.148581  0  0.98046  0  0  0.112617  0.143414  0  0.983377  0
H  H38  1  0.64917090  0.80187287  0.77880334  1  0  0.131465  0  0.921482  0  0  0.1456  0  0.982115  0  0  0.148617  0  0.980469  0  0  0.112624  0.143428  0  0.983404  0
H  H39  1  0.14917450  0.69812670  0.72119985  1  0  0.131426  0  0.921491  0  0  0.145564  0  0.98213  0  0  0.14858  0  0.980484  0  0  0.112633  0.143424  0  0.983393  0
H  H40  1  0.73708282  0.88797622  0.15096787  1  0  0.433942  0  0.865724  0  0  0.402677  0  0.929552  0  0  0.413658  0  0.913662  0  0  0.290918  0.39494  0  0.940721  0
H  H41  1  0.23707862  0.61202258  0.34903067  1  0  0.433977  0  0.865687  0  0  0.402738  0  0.929466  0  0  0.413717  0  0.913578  0  0  0.290935  0.395  0  0.940642  0
H  H42  1  0.26292327  0.11202329  0.84903097  1  0  0.433965  0  0.865709  0  0  0.40271  0  0.929516  0  0  0.41369  0  0.913626  0  0  0.290927  0.394975  0  0.940689  0
H  H43  1  0.76291994  0.38797857  0.65097045  1  0  0.433964  0  0.865698  0  0  0.402718  0  0.92949  0  0  0.413698  0  0.913601  0  0  0.290937  0.394983  0  0.940661  0
C  C44  1  0.24087564  0.91354403  0.07581277  1  0  0.694353  0  3.867455  0  0  0.646844  0  4.164734  0  0  0.680352  0  4.159691  0  0  0.197109  0.624165  0  4.167214  0
C  C45  1  0.74087667  0.58645225  0.42419322  1  0  0.694186  0  3.867649  0  0  0.646696  0  4.164883  0  0  0.680203  0  4.159845  0  0  0.197087  0.624019  0  4.167368  0
C  C46  1  0.75913045  0.08645464  0.92418831  1  0  0.694401  0  3.867431  0  0  0.646799  0  4.164864  0  0  0.680307  0  4.159821  0  0  0.197044  0.624126  0  4.16734  0
C  C47  1  0.25912314  0.41354890  0.57580866  1  0  0.694279  0  3.86756  0  0  0.646799  0  4.164803  0  0  0.680308  0  4.159761  0  0  0.197093  0.624118  0  4.167277  0
C  C48  1  0.35092828  0.00776064  0.11461269  1  0  -0.332938  0  3.619052  0  0  -0.376793  0  3.860901  0  0  -0.383465  0  3.867257  0  0  -0.155631  -0.372181  0  3.856551  0
C  C49  1  0.85092554  0.49223876  0.38538931  1  0  -0.332814  0  3.619106  0  0  -0.376724  0  3.860887  0  0  -0.383396  0  3.867244  0  0  -0.1556  -0.372109  0  3.856531  0
C  C50  1  0.64907530  0.99223968  0.88538992  1  0  -0.332943  0  3.618911  0  0  -0.376868  0  3.860842  0  0  -0.383545  0  3.867208  0  0  -0.155635  -0.372248  0  3.856475  0
C  C51  1  0.14907051  0.50776238  0.61461256  1  0  -0.332838  0  3.618909  0  0  -0.376743  0  3.860737  0  0  -0.383423  0  3.867103  0  0  -0.155604  -0.372134  0  3.856395  0
C  C52  1  0.36263097  0.02076186  0.22932155  1  0  0.162041  0  3.536326  0  0  0.159585  0  3.774321  0  0  0.162588  0  3.787954  0  0  0.099826  0.157479  0  3.765272  0
C  C53  1  0.86262563  0.47923751  0.27067665  1  0  0.161861  0  3.53634  0  0  0.159422  0  3.774291  0  0  0.162419  0  3.787938  0  0  0.099823  0.157303  0  3.765241  0
C  C54  1  0.63737260  0.97924012  0.77068034  1  0  0.162086  0  3.536308  0  0  0.159691  0  3.774178  0  0  0.162687  0  3.787826  0  0  0.099853  0.157582  0  3.765124  0
C  C55  1  0.13737167  0.52076116  0.72932442  1  0  0.162156  0  3.536147  0  0  0.159729  0  3.774099  0  0  0.162735  0  3.787738  0  0  0.099831  0.15762  0  3.765047  0
C  C56  1  0.05785204  0.06108838  0.27079301  1  0  0.118213  0  3.604221  0  0  0.075397  0  3.856463  0  0  0.084893  0  3.872195  0  0  0.062005  0.069326  0  3.845946  0
C  C57  1  0.55785753  0.43891070  0.22920545  1  0  0.117924  0  3.604346  0  0  0.075168  0  3.856506  0  0  0.084666  0  3.872233  0  0  0.061856  0.069102  0  3.845989  0
C  C58  1  0.94214651  0.93891278  0.72920661  1  0  0.118  0  3.604343  0  0  0.075205  0  3.856563  0  0  0.084702  0  3.872294  0  0  0.061873  0.069138  0  3.846046  0
C  C59  1  0.44214605  0.56108797  0.77079487  1  0  0.117904  0  3.604242  0  0  0.075135  0  3.856398  0  0  0.084631  0  3.87213  0  0  0.061829  0.069068  0  3.845873  0
C  C60  1  0.92032556  0.03357034  0.32795920  1  0  -0.135477  0  3.732526  0  0  -0.153194  0  3.999054  0  0  -0.16306  0  4.020159  0  0  -0.089032  -0.147114  0  3.985082  0
C  C61  1  0.42031935  0.46642877  0.17203655  1  0  -0.135357  0  3.732201  0  0  -0.153093  0  3.998706  0  0  -0.162957  0  4.019813  0  0  -0.088932  -0.147004  0  3.98474  0
C  C62  1  0.07967550  0.96643164  0.67203968  1  0  -0.135371  0  3.732456  0  0  -0.153077  0  3.998987  0  0  -0.162942  0  4.020092  0  0  -0.088954  -0.146995  0  3.985027  0
C  C63  1  0.57968422  0.53356494  0.82796218  1  0  -0.135275  0  3.732317  0  0  -0.153015  0  3.998818  0  0  -0.162878  0  4.019928  0  0  -0.088901  -0.146929  0  3.984853  0
C  C64  1  0.47001909  0.16796685  0.36148022  1  0  0.687299  0  3.881841  0  0  0.641725  0  4.180732  0  0  0.6755  0  4.175069  0  0  0.190198  0.618857  0  4.183611  0
C  C65  1  0.97001895  0.33203202  0.13852063  1  0  0.687356  0  3.88177  0  0  0.641767  0  4.180679  0  0  0.675543  0  4.175016  0  0  0.190224  0.618906  0  4.183557  0
C  C66  1  0.52997570  0.83203595  0.63852244  1  0  0.687333  0  3.881632  0  0  0.641743  0  4.180566  0  0  0.675518  0  4.174904  0  0  0.190138  0.618883  0  4.183436  0
C  C67  1  0.02997710  0.66796665  0.86148045  1  0  0.687386  0  3.881723  0  0  0.641794  0  4.180649  0  0  0.675571  0  4.174989  0  0  0.190207  0.618923  0  4.183531  0
C  C68  1  0.46850169  0.92811872  0.27693647  1  0  0.531271  0  3.798263  0  0  0.485309  0  4.090429  0  0  0.514618  0  4.091056  0  0  0.244349  0.465512  0  4.089408  0
C  C69  1  0.96849089  0.57188154  0.22305832  1  0  0.531478  0  3.797872  0  0  0.485534  0  4.090022  0  0  0.514838  0  4.090649  0  0  0.24446  0.465778  0  4.088944  0
C  C70  1  0.53149937  0.07188326  0.72306467  1  0  0.531226  0  3.798275  0  0  0.48524  0  4.090495  0  0  0.514555  0  4.091108  0  0  0.244333  0.46545  0  4.089465  0
C  C71  1  0.03151269  0.42811548  0.77693972  1  0  0.531156  0  3.797835  0  0  0.485194  0  4.090016  0  0  0.514499  0  4.09064  0  0  0.244328  0.465408  0  4.088981  0
C  C72  1  0.43756867  0.13608335  0.25209517  1  0  -0.322003  0  3.614184  0  0  -0.366281  0  3.860289  0  0  -0.373043  0  3.866802  0  0  -0.151395  -0.36165  0  3.855853  0
C  C73  1  0.93756470  0.36391650  0.24790505  1  0  -0.322015  0  3.614226  0  0  -0.366335  0  3.860436  0  0  -0.3731  0  3.866948  0  0  -0.151417  -0.361705  0  3.856006  0
C  C74  1  0.56243366  0.86392028  0.74790600  1  0  -0.322101  0  3.614239  0  0  -0.366376  0  3.860288  0  0  -0.373143  0  3.866806  0  0  -0.151404  -0.361732  0  3.855861  0
C  C75  1  0.06243260  0.63608134  0.75209601  1  0  -0.322048  0  3.614205  0  0  -0.366375  0  3.860369  0  0  -0.373141  0  3.866881  0  0  -0.151407  -0.361746  0  3.855927  0
C  C76  1  0.21805156  0.91748802  0.34716220  1  0  0.422908  0  3.768379  0  0  0.38726  0  4.032672  0  0  0.409502  0  4.04517  0  0  0.244307  0.372534  0  4.023888  0
C  C77  1  0.71804630  0.58251169  0.15283792  1  0  0.422725  0  3.768208  0  0  0.387043  0  4.032563  0  0  0.409284  0  4.045061  0  0  0.244165  0.372329  0  4.023789  0
C  C78  1  0.78194951  0.08251397  0.65283518  1  0  0.422934  0  3.768373  0  0  0.387288  0  4.03266  0  0  0.409532  0  4.045155  0  0  0.244272  0.372572  0  4.023871  0
C  C79  1  0.28195226  0.41748615  0.84716239  1  0  0.422776  0  3.768205  0  0  0.387098  0  4.032531  0  0  0.40934  0  4.045028  0  0  0.244171  0.372382  0  4.023754  0
C  C80  1  0.07892018  0.88500960  0.40355020  1  0  -0.193506  0  3.653777  0  0  -0.209621  0  3.905062  0  0  -0.222357  0  3.923502  0  0  -0.075882  -0.201669  0  3.892815  0
C  C81  1  0.57890757  0.61499074  0.09644664  1  0  -0.19339  0  3.653922  0  0  -0.209493  0  3.90519  0  0  -0.222222  0  3.923623  0  0  -0.075769  -0.20152  0  3.892941  0
C  C82  1  0.92108466  0.11499404  0.59644947  1  0  -0.193381  0  3.653919  0  0  -0.209484  0  3.905159  0  0  -0.222218  0  3.923597  0  0  -0.075766  -0.201531  0  3.892913  0
C  C83  1  0.42109476  0.38500296  0.90355134  1  0  -0.193334  0  3.65367  0  0  -0.209416  0  3.904928  0  0  -0.222145  0  3.923357  0  0  -0.075723  -0.201444  0  3.892674  0
C  C84  1  0.93060666  0.94378554  0.39376383  1  0  0.052628  0  3.676229  0  0  0.028947  0  3.9315  0  0  0.039089  0  3.945618  0  0  -0.046443  0.022755  0  3.921629  0
C  C85  1  0.43060773  0.55621238  0.10623555  1  0  0.05257  0  3.676606  0  0  0.028867  0  3.931851  0  0  0.039005  0  3.945975  0  0  -0.046452  0.022685  0  3.921993  0
C  C86  1  0.06939189  0.05621561  0.60623654  1  0  0.052467  0  3.676508  0  0  0.028761  0  3.931808  0  0  0.038903  0  3.945927  0  0  -0.046557  0.022584  0  3.921939  0
C  C87  1  0.56939459  0.44378298  0.89376246  1  0  0.052383  0  3.676763  0  0  0.02869  0  3.931982  0  0  0.038831  0  3.946104  0  0  -0.046594  0.022541  0  3.922136  0
N  N88  1  0.20136713  0.00285861  0.28130394  1  0  -0.142728  0  3.496534  0  0  -0.055282  0  3.704169  0  0  -0.073065  0  3.727484  0  0  -0.211434  -0.043754  0  3.68848  0
N  N89  1  0.70135957  0.49714065  0.21869255  1  0  -0.142377  0  3.496633  0  0  -0.054918  0  3.704182  0  0  -0.072698  0  3.727503  0  0  -0.21136  -0.043392  0  3.688498  0
N  N90  1  0.79863394  0.99714172  0.71869266  1  0  -0.142722  0  3.496693  0  0  -0.055272  0  3.704273  0  0  -0.073054  0  3.727589  0  0  -0.211404  -0.043742  0  3.68858  0
N  N91  1  0.29863648  0.50285718  0.78131001  1  0  -0.1427  0  3.496809  0  0  -0.055259  0  3.704394  0  0  -0.073042  0  3.727712  0  0  -0.21137  -0.043729  0  3.6887  0
N  N92  1  0.37614330  0.87511260  0.34697142  1  0  -0.582759  0  3.142505  0  0  -0.515528  0  3.434893  0  0  -0.547285  0  3.441175  0  0  -0.376723  -0.493679  0  3.42976  0
N  N93  1  0.87613510  0.62488641  0.15302366  1  0  -0.582678  0  3.142187  0  0  -0.515472  0  3.43465  0  0  -0.547225  0  3.440931  0  0  -0.376598  -0.493618  0  3.4295  0
N  N94  1  0.62385652  0.12488938  0.65302822  1  0  -0.582723  0  3.142411  0  0  -0.515524  0  3.434848  0  0  -0.547284  0  3.441129  0  0  -0.376693  -0.493668  0  3.429707  0
N  N95  1  0.12386472  0.37511143  0.84697590  1  0  -0.582484  0  3.142046  0  0  -0.515263  0  3.434477  0  0  -0.547018  0  3.440763  0  0  -0.376533  -0.493399  0  3.429331  0
O  O96  1  0.17318879  0.92187512  0.98969424  1  0  -0.647064  0  1.941363  0  0  -0.584648  0  2.15971  0  0  -0.612119  0  2.149702  0  0  -0.326581  -0.565387  0  2.165871  0
O  O97  1  0.67318235  0.57812269  0.51030658  1  0  -0.646984  0  1.941577  0  0  -0.584565  0  2.159898  0  0  -0.612035  0  2.149892  0  0  -0.326527  -0.5653  0  2.166054  0
O  O98  1  0.82682609  0.07811776  0.01030222  1  0  -0.647045  0  1.941408  0  0  -0.584608  0  2.159789  0  0  -0.612081  0  2.149788  0  0  -0.326539  -0.565389  0  2.165972  0
O  O99  1  0.32681244  0.42187929  0.48969306  1  0  -0.647039  0  1.941537  0  0  -0.584624  0  2.159859  0  0  -0.612096  0  2.149851  0  0  -0.32656  -0.565364  0  2.16601  0
O  O100  1  0.21825005  0.83082308  0.13226276  1  0  -0.627814  0  1.971921  0  0  -0.564555  0  2.214133  0  0  -0.593655  0  2.204819  0  0  -0.324312  -0.544253  0  2.219793  0
O  O101  1  0.71825076  0.66917579  0.36774110  1  0  -0.627754  0  1.97183  0  0  -0.564512  0  2.214055  0  0  -0.593612  0  2.204744  0  0  -0.324284  -0.544188  0  2.219705  0
O  O102  1  0.78174976  0.16917890  0.86773913  1  0  -0.627879  0  1.97194  0  0  -0.564543  0  2.21416  0  0  -0.59364  0  2.204842  0  0  -0.324307  -0.54427  0  2.219831  0
O  O103  1  0.28174780  0.33082454  0.63225925  1  0  -0.627745  0  1.971831  0  0  -0.564524  0  2.214067  0  0  -0.593623  0  2.204755  0  0  -0.324282  -0.544212  0  2.219717  0
O  O104  1  0.79384838  0.88033064  0.08498103  1  0  -0.880365  0  1.872881  0  0  -0.815002  0  2.07816  0  0  -0.839335  0  2.042085  0  0  -0.600791  -0.797745  0  2.103094  0
O  O105  1  0.29384350  0.61966790  0.41501731  1  0  -0.880393  0  1.872856  0  0  -0.815015  0  2.078154  0  0  -0.83935  0  2.042079  0  0  -0.600808  -0.797746  0  2.103064  0
O  O106  1  0.20615645  0.11966637  0.91501926  1  0  -0.880404  0  1.872891  0  0  -0.815018  0  2.078198  0  0  -0.839357  0  2.042135  0  0  -0.600811  -0.797748  0  2.103096  0
O  O107  1  0.70615380  0.38033325  0.58498381  1  0  -0.880355  0  1.872889  0  0  -0.814969  0  2.078186  0  0  -0.839304  0  2.042111  0  0  -0.600794  -0.797696  0  2.103088  0
O  O108  1  0.61690868  0.90810521  0.25573824  1  0  -0.540652  0  1.998446  0  0  -0.486167  0  2.217557  0  0  -0.50962  0  2.211587  0  0  -0.278316  -0.46987  0  2.221244  0
O  O109  1  0.11690689  0.59188750  0.24426284  1  0  -0.540873  0  1.998268  0  0  -0.486451  0  2.217444  0  0  -0.509899  0  2.211465  0  0  -0.278469  -0.47016  0  2.221111  0
O  O110  1  0.38309239  0.09189429  0.74426060  1  0  -0.540653  0  1.998491  0  0  -0.486162  0  2.217613  0  0  -0.509617  0  2.211638  0  0  -0.278324  -0.469875  0  2.221302  0
O  O111  1  0.88309042  0.40810786  0.75573893  1  0  -0.540819  0  1.998299  0  0  -0.486364  0  2.217431  0  0  -0.509819  0  2.211457  0  0  -0.278423  -0.470062  0  2.221111  0
O  O112  1  0.59645249  0.23046717  0.37988024  1  0  -0.66599  0  1.919403  0  0  -0.605916  0  2.156365  0  0  -0.63424  0  2.145608  0  0  -0.337335  -0.585984  0  2.162953  0
O  O113  1  0.09645126  0.26953422  0.12011964  1  0  -0.665945  0  1.919369  0  0  -0.605892  0  2.156375  0  0  -0.634206  0  2.145603  0  0  -0.337332  -0.585965  0  2.162967  0
O  O114  1  0.40354607  0.76953316  0.62012012  1  0  -0.665967  0  1.919247  0  0  -0.605892  0  2.156213  0  0  -0.634213  0  2.145451  0  0  -0.337335  -0.585981  0  2.162809  0
O  O115  1  0.90354604  0.73046859  0.87988076  1  0  -0.665966  0  1.919302  0  0  -0.605907  0  2.156297  0  0  -0.634218  0  2.145516  0  0  -0.337327  -0.585974  0  2.162882  0
O  O116  1  0.36877549  0.13680224  0.42902756  1  0  -0.639664  0  1.933861  0  0  -0.58304  0  2.16786  0  0  -0.61106  0  2.159015  0  0  -0.330764  -0.563402  0  2.173175  0
O  O117  1  0.86876937  0.36319295  0.07097129  1  0  -0.63973  0  1.933865  0  0  -0.583074  0  2.167856  0  0  -0.611102  0  2.159026  0  0  -0.330784  -0.56345  0  2.173171  0
O  O118  1  0.63121554  0.86320470  0.57097442  1  0  -0.639646  0  1.933711  0  0  -0.583034  0  2.167746  0  0  -0.611053  0  2.158901  0  0  -0.330754  -0.563444  0  2.173083  0
O  O119  1  0.13121789  0.63680157  0.92903121  1  0  -0.639727  0  1.933843  0  0  -0.583066  0  2.167826  0  0  -0.611087  0  2.15898  0  0  -0.330795  -0.563447  0  2.173166  0
