# generated using pymatgen
data_AlH5C10O6F
_symmetry_space_group_name_H-M   'P 1'
_cell_length_a   6.69601612
_cell_length_b   11.18510825
_cell_length_c   11.25065323
_cell_angle_alpha   82.43294707
_cell_angle_beta   71.20950762
_cell_angle_gamma   71.83604805
_symmetry_Int_Tables_number   1
_chemical_formula_structural   AlH5C10O6F
_chemical_formula_sum   'Al2 H10 C20 O12 F2'
_cell_volume   757.50585660
_cell_formula_units_Z   2
loop_
 _symmetry_equiv_pos_site_id
 _symmetry_equiv_pos_as_xyz
  1  'x, y, z'
loop_
 _atom_site_type_symbol
 _atom_site_label
 _atom_site_symmetry_multiplicity
 _atom_site_fract_x
 _atom_site_fract_y
 _atom_site_fract_z
 _atom_site_occupancy
 _atom_site_pbe_bader_charge
 _atom_site_pbe_bader_spin_density
 _atom_site_pbe_cm5_charge
 _atom_site_pbe_ddec_charge
 _atom_site_pbe_ddec_spin_density
 _atom_site_pbe_ddec_sum_bond_order
 _atom_site_pbe_magmom
Al  Al0  1  0.49448829  0.49997302  0.50759856  1  2.503437  0  0.404885  1.634126  0  2.573695  0
Al  Al1  1  0.99513187  0.49876636  0.50758123  1  2.503348  0  0.398487  1.640896  0  2.584898  0
H  H2  1  0.27554401  0.35553030  0.59266392  1  0.63883  0  0.35642  0.437141  0  0.844771  0
H  H3  1  0.70992414  0.64751575  0.43547305  1  0.656038  0  0.348335  0.423882  0  0.869763  0
H  H4  1  0.75390446  0.51298326  0.11730939  1  0.156808  0  0.110684  0.14047  0  1.042657  0
H  H5  1  0.23158502  0.49176987  0.89678003  1  0.150398  0  0.112434  0.14215  0  1.038138  0
H  H6  1  0.24427789  0.23378743  0.32086188  1  0.095262  0  0.106422  0.113305  0  1.028475  0
H  H7  1  0.59755828  0.11702107  0.17893130  1  0.041168  0  0.109204  0.108063  0  0.981066  0
H  H8  1  0.46300657  0.76549632  0.32328597  1  0.07799  0  0.107134  0.110013  0  1.028774  0
H  H9  1  0.70656660  0.88153046  0.17960363  1  0.093844  0  0.109859  0.109671  0  0.978841  0
H  H10  1  0.92656247  0.52445616  0.78668555  1  0.630548  0  0.315279  0.357339  0  0.96833  0
H  H11  1  0.05727129  0.48231016  0.22761801  1  0.652564  0  0.312919  0.352578  0  0.973854  0
C  C12  1  0.86197057  0.27389673  0.49515082  1  1.571712  0  0.278789  0.680417  0  4.066739  0
C  C13  1  0.62230042  0.50524011  0.73642239  1  1.470482  0  0.267386  0.654589  0  4.061615  0
C  C14  1  0.13253687  0.72573477  0.50734986  1  1.559966  0  0.278695  0.680839  0  4.067461  0
C  C15  1  0.36534971  0.49608681  0.27770495  1  1.506792  0  0.263143  0.645516  0  4.074753  0
C  C16  1  0.55640975  0.50586589  0.87495466  1  0.029266  0  -0.028509  -0.164309  0  3.995869  0
C  C17  1  0.42905174  0.49861160  0.13925892  1  0.015575  0  -0.032355  -0.172779  0  4.015623  0
C  C18  1  0.70445177  0.51355715  0.93881884  1  0.451444  0  0.084462  0.291392  0  4.060254  0
C  C19  1  0.28010171  0.49252510  0.07534510  1  0.54733  0  0.083057  0.288003  0  4.064739  0
C  C20  1  0.63817837  0.50924853  0.06973818  1  0.0409  0  -0.098157  -0.195819  0  3.946275  0
C  C21  1  0.34685216  0.49607097  0.94442732  1  0.009714  0  -0.09627  -0.191479  0  3.940189  0
C  C22  1  0.93729198  0.13363428  0.48904824  1  0.106291  0  -0.012397  -0.178516  0  3.955042  0
C  C23  1  0.14799413  0.06734785  0.40900507  1  0.093642  0  0.001318  0.07025  0  3.957791  0
C  C24  1  0.79873793  0.06637008  0.56434707  1  0.573618  0  0.101465  0.165445  0  4.079946  0
C  C25  1  0.29203334  0.13144674  0.32363271  1  -0.080791  0  -0.087913  -0.125102  0  3.955145  0
C  C26  1  0.49021998  0.06574042  0.24404904  1  -0.017541  0  -0.086292  -0.074844  0  4.023029  0
C  C27  1  0.06730113  0.86616793  0.49538941  1  0.099818  0  -0.013559  -0.18005  0  3.960684  0
C  C28  1  0.86347657  0.93368776  0.56798849  1  0.423609  0  0.103289  0.168556  0  4.086851  0
C  C29  1  0.21275984  0.93199907  0.41135111  1  -0.070762  0  0.001067  0.07143  0  3.96321  0
C  C30  1  0.41614879  0.86766488  0.32617222  1  -0.038232  0  -0.0923  -0.137831  0  3.97548  0
C  C31  1  0.55218589  0.93297755  0.24479467  1  0.019866  0  -0.086567  -0.076742  0  4.031291  0
O  O32  1  0.67067665  0.32914188  0.48552898  1  -1.248297  0  -0.227401  -0.586292  0  2.3398  0
O  O33  1  0.81795092  0.51565363  0.67802875  1  -1.271443  0  -0.239211  -0.617153  0  2.413176  0
O  O34  1  0.99790548  0.67098143  0.49850514  1  -1.248378  0  -0.228356  -0.588445  0  2.338124  0
O  O35  1  0.49406010  0.51042042  0.33300815  1  -1.263139  0  -0.23195  -0.57397  0  2.333986  0
O  O36  1  0.31915095  0.67175354  0.52434214  1  -1.254741  0  -0.227229  -0.583996  0  2.335162  0
O  O37  1  0.17297587  0.48077359  0.33637503  1  -1.271976  0  -0.241966  -0.61872  0  2.424651  0
O  O38  1  0.99357870  0.32705755  0.51110724  1  -1.257002  0  -0.22748  -0.586478  0  2.332072  0
O  O39  1  0.49224916  0.49250711  0.68124834  1  -1.258501  0  -0.229818  -0.573228  0  2.32326  0
O  O40  1  0.24427044  0.44298246  0.56306751  1  -1.439265  0  -0.447493  -0.987493  0  2.168764  0
O  O41  1  0.74548541  0.55695633  0.45161058  1  -1.461813  0  -0.44978  -0.986111  0  2.171399  0
O  O42  1  0.90874874  0.52457030  0.87814861  1  -1.146331  0  -0.347604  -0.436025  0  2.315418  0
O  O43  1  0.07411625  0.48375038  0.13617782  1  -1.16172  0  -0.348779  -0.436522  0  2.321463  0
F  F44  1  0.72202797  0.87584740  0.64965644  1  -0.614361  0  -0.086049  -0.104274  0  1.358818  0
F  F45  1  0.59953724  0.12435981  0.64285711  1  -0.615967  0  -0.087297  -0.109896  0  1.359323  0
