# generated using pymatgen
data_MnH6C10(N4O)2
_symmetry_space_group_name_H-M   'P 1'
_cell_length_a   7.52294774
_cell_length_b   7.52442310
_cell_length_c   12.04087342
_cell_angle_alpha   84.70580398
_cell_angle_beta   85.87518015
_cell_angle_gamma   62.18045259
_symmetry_Int_Tables_number   1
_chemical_formula_structural   MnH6C10(N4O)2
_chemical_formula_sum   'Mn2 H12 C20 N16 O4'
_cell_volume   599.91342145
_cell_formula_units_Z   2
loop_
 _symmetry_equiv_pos_site_id
 _symmetry_equiv_pos_as_xyz
  1  'x, y, z'
loop_
 _atom_site_type_symbol
 _atom_site_label
 _atom_site_symmetry_multiplicity
 _atom_site_fract_x
 _atom_site_fract_y
 _atom_site_fract_z
 _atom_site_occupancy
 _atom_site_hle17_ddec_charge
 _atom_site_hle17_ddec_spin_density
 _atom_site_hle17_ddec_sum_bond_order
 _atom_site_hle17_magmom
 _atom_site_hse06_10hf_bader_charge
 _atom_site_hse06_10hf_bader_spin_density
 _atom_site_hse06_10hf_ddec_charge
 _atom_site_hse06_10hf_ddec_spin_density
 _atom_site_hse06_10hf_ddec_sum_bond_order
 _atom_site_hse06_10hf_magmom
 _atom_site_hse06_ddec_charge
 _atom_site_hse06_ddec_spin_density
 _atom_site_hse06_ddec_sum_bond_order
 _atom_site_hse06_magmom
 _atom_site_pbe_cm5_charge
 _atom_site_pbe_ddec_charge
 _atom_site_pbe_ddec_spin_density
 _atom_site_pbe_ddec_sum_bond_order
 _atom_site_pbe_magmom
Mn  Mn0  1  0.08097271  0.91669544  0.25013825  1  1.156941  -4.793187  1.93769  -4.655  1.558286  -4.537483  1.014797  -4.663196  2.450218  -4.481  1.056438  -4.727658  2.385775  -4.56  0.655103  0.98534  -4.595495  2.497114  -4.396
Mn  Mn1  1  0.92632622  0.07857451  0.74889680  1  0.877328  -1.194872  2.926521  -1.177  1.483708  -1.088163  0.822467  -1.126157  3.460208  -1.084  0.850201  -1.079561  3.407921  -1.044  0.755341  0.803384  -1.141182  3.490117  -1.095
H  H2  1  0.67990526  0.19562344  0.27702207  1  0.398918  -0.00061  0.918619  -0.002  0.643201  -0.002073  0.357764  -0.001471  0.99921  -0.003  0.368824  -0.001076  0.983517  -0.002  0.280238  0.350139  -0.001859  1.009904  -0.003
H  H3  1  0.80214884  0.32230371  0.22196185  1  0.39842  -0.000653  0.919356  -0.002  0.6673  -0.001957  0.357123  -0.001495  1.000013  -0.003  0.368175  -0.001099  0.98434  -0.002  0.279684  0.349511  -0.001882  1.010674  -0.003
H  H4  1  0.30994659  0.81737287  0.72839271  1  0.401346  6e-06  0.900319  -0.001  0.665345  0.000294  0.362424  0.000628  0.985106  0.0  0.37246  0.000657  0.971416  0.0  0.292334  0.355306  0.00053  0.994695  0.0
H  H5  1  0.18118992  0.68849019  0.78099271  1  0.399403  0.000872  0.909834  0.0  0.658727  -0.000451  0.359022  -8e-05  0.992479  -0.001  0.368826  0.000185  0.979196  -0.001  0.290408  0.352003  -0.000271  1.001871  -0.001
H  H6  1  0.46080208  0.59957959  0.30881404  1  0.429083  -0.000646  0.868673  -0.002  0.667635  -0.002123  0.395599  -0.001525  0.936989  -0.002  0.405602  -0.001127  0.922361  -0.002  0.298291  0.388585  -0.001899  0.947228  -0.003
H  H7  1  0.39426421  0.53688152  0.19840420  1  0.429171  -0.000628  0.869526  -0.002  0.669361  -0.002056  0.395264  -0.001492  0.938743  -0.002  0.405285  -0.001098  0.924036  -0.002  0.298614  0.388249  -0.001862  0.949026  -0.003
H  H8  1  0.56268286  0.37592198  0.68785053  1  0.420215  -0.000339  0.885558  -0.002  0.663164  -0.00092  0.388302  -0.000438  0.951652  -0.002  0.397746  -0.000368  0.938065  -0.002  0.298599  0.381392  -0.000484  0.961558  -0.002
H  H9  1  0.62816215  0.43790026  0.80122786  1  0.419614  -0.000261  0.884535  -0.001  0.672733  -0.000404  0.388389  5.2e-05  0.949681  -0.001  0.398231  -8.3e-05  0.935415  -0.001  0.299821  0.381315  8e-05  0.959905  -0.001
H  H10  1  0.96370606  0.55942552  0.31275092  1  0.077973  0.000345  0.946636  0.0  0.144965  -0.000246  0.084142  7.9e-05  1.016486  0.0  0.085621  0.000136  1.015478  0.0  0.127479  0.083222  3.1e-05  1.017118  0.0
H  H11  1  0.44610220  0.02805183  0.18780221  1  0.075617  0.000403  0.95008  0.0  0.11148  -0.00022  0.081382  0.000154  1.020597  0.0  0.082676  0.000203  1.019935  0.0  0.126523  0.080607  0.000114  1.020947  0.0
H  H12  1  0.00649485  0.45690163  0.67455448  1  0.081217  0.00036  0.947452  0.0  0.137581  2.1e-05  0.087473  0.000119  1.015795  0.0  0.08751  0.000143  1.015831  0.0  0.132401  0.087266  7.6e-05  1.016082  0.0
H  H13  1  0.54459461  0.99965598  0.82170063  1  0.075802  0.000474  0.952984  0.0  0.121531  3.5e-05  0.082136  0.00014  1.022541  0.0  0.081949  0.000156  1.022931  0.0  0.129747  0.082125  9.7e-05  1.022539  0.0
C  C14  1  0.84343407  0.79213496  0.07166129  1  0.060358  -0.005708  3.905464  -0.01  0.614763  -0.007214  0.056326  -0.003655  4.166965  -0.007  0.05574  -0.003784  4.179983  -0.007  0.095523  0.055897  -0.002999  4.158271  -0.007
C  C15  1  0.21688843  0.14428050  0.42518968  1  0.061195  -0.004527  3.911186  -0.009  0.600165  -0.006569  0.058131  -0.003235  4.170794  -0.007  0.057594  -0.00305  4.184009  -0.006  0.095963  0.05769  -0.002875  4.162028  -0.006
C  C16  1  0.14837602  0.21098447  0.91040311  1  0.044601  0.009425  3.88431  0.007  0.58648  0.003613  0.043409  0.003837  4.137154  0.003  0.042089  0.003982  4.158476  0.003  0.102139  0.043735  0.003338  4.124333  0.004
C  C17  1  0.78668847  0.85602811  0.59020694  1  0.046141  0.007345  3.884439  0.005  0.595776  0.002602  0.04489  0.002824  4.139107  0.003  0.043466  0.003034  4.160099  0.002  0.100404  0.045321  0.002276  4.126273  0.003
C  C18  1  0.77540371  0.64475484  0.07286934  1  0.055321  0.011454  3.91634  0.008  0.60051  0.004292  0.045417  0.004772  4.178714  0.003  0.050904  0.002248  4.193672  0.002  0.089336  0.042566  0.005181  4.168296  0.003
C  C19  1  0.36134013  0.21569316  0.42413727  1  0.056261  0.00832  3.922683  0.006  0.614896  0.002582  0.046521  0.002985  4.184104  0.002  0.051754  0.000601  4.199176  0.001  0.091187  0.043772  0.003351  4.173719  0.002
C  C20  1  0.20516092  0.36493445  0.91232794  1  0.071922  -0.008172  3.913005  -0.007  0.616055  -0.012722  0.063883  -0.010376  4.169713  -0.009  0.065197  -0.009018  4.190574  -0.007  0.102301  0.062426  -0.012776  4.156631  -0.01
C  C21  1  0.63481188  0.79604375  0.58961345  1  0.077537  -0.008716  3.907476  -0.008  0.638071  -0.012552  0.068578  -0.010341  4.166393  -0.009  0.070163  -0.008662  4.186745  -0.007  0.104986  0.067048  -0.012918  4.153481  -0.011
C  C22  1  0.90886390  0.61496747  0.22924346  1  0.241654  -0.003669  3.707985  -0.004  0.997461  -0.006162  0.186407  -0.004849  3.992849  -0.005  0.198259  -0.004553  4.005961  -0.005  0.142327  0.178585  -0.005209  3.983574  -0.005
C  C23  1  0.39142575  0.08197998  0.27014987  1  0.243184  -0.004042  3.704747  -0.004  1.043265  -0.006491  0.188602  -0.005123  3.989253  -0.005  0.200191  -0.004759  4.003016  -0.005  0.142337  0.181007  -0.005564  3.979483  -0.006
C  C24  1  0.06700328  0.39854231  0.75652946  1  0.249309  -0.007793  3.651467  -0.007  1.040648  -0.007382  0.192266  -0.005842  3.93935  -0.005  0.204838  -0.004609  3.954723  -0.004  0.152315  0.18345  -0.006959  3.92958  -0.006
C  C25  1  0.60211349  0.93850831  0.74123141  1  0.241951  -0.009416  3.664488  -0.008  1.01482  -0.008871  0.185758  -0.007052  3.953347  -0.006  0.197443  -0.005337  3.969736  -0.005  0.14861  0.177566  -0.008509  3.942715  -0.007
C  C26  1  0.84595480  0.91940693  0.97954814  1  0.279538  0.05821  3.69605  0.038  0.788877  0.031801  0.255449  0.033592  3.975951  0.02  0.277841  0.026734  3.978745  0.016  0.195187  0.240936  0.032743  3.973127  0.02
C  C27  1  0.09579489  0.13798755  0.51788009  1  0.275174  0.051925  3.701852  0.034  0.805777  0.028577  0.250843  0.03007  3.980917  0.018  0.272889  0.022853  3.984037  0.014  0.195471  0.236468  0.029721  3.977964  0.018
C  C28  1  0.16801387  0.07169622  0.99990643  1  0.325866  -0.026256  3.72911  -0.026  0.849385  -0.040901  0.301334  -0.033422  3.998416  -0.032  0.319383  -0.028688  4.012757  -0.028  0.22534  0.288345  -0.038678  3.990473  -0.036
C  C29  1  0.92294045  0.83578542  0.50110161  1  0.319305  -0.02434  3.734135  -0.024  0.849669  -0.038395  0.295611  -0.031282  4.002702  -0.03  0.313265  -0.026839  4.017546  -0.026  0.224347  0.283005  -0.036271  3.9942  -0.034
C  C30  1  0.68643024  0.60361984  0.98690644  1  0.286339  -0.000566  3.757464  -0.002  0.868819  0.000346  0.267463  0.000464  4.0357  0.0  0.277744  0.00012  4.047589  0.0  0.202492  0.259746  0.000771  4.028219  0.0
C  C31  1  0.39338855  0.30854442  0.51074407  1  0.294481  9.2e-05  3.755628  -0.001  0.833969  0.000373  0.274673  0.000574  4.033671  0.0  0.285307  0.000353  4.04564  0.0  0.205235  0.266624  0.000749  4.026219  0.0
C  C32  1  0.29773188  0.39706118  0.00048024  1  0.272603  0.003402  3.749009  0.003  0.868351  0.000697  0.253185  0.00143  4.024593  0.001  0.265148  0.001972  4.042663  0.002  0.201098  0.244925  0.000908  4.013447  0.001
C  C33  1  0.60601560  0.69715515  0.50417521  1  0.280407  0.003834  3.740274  0.003  0.868824  0.000637  0.261068  0.001427  4.015899  0.001  0.273446  0.001945  4.033618  0.002  0.203789  0.252549  0.000922  4.004819  0.001
N  N34  1  0.92730505  0.77010119  0.17341055  1  -0.417519  -0.02327  3.153654  -0.009  -1.216903  -0.04084  -0.358063  -0.028918  3.44096  -0.01  -0.376204  -0.027204  3.453329  -0.009  -0.333494  -0.344806  -0.031376  3.432388  -0.013
N  N35  1  0.23821680  0.06092504  0.32481695  1  -0.418892  -0.024467  3.157492  -0.01  -1.211652  -0.04195  -0.359548  -0.029673  3.444161  -0.011  -0.378001  -0.027818  3.456778  -0.01  -0.333412  -0.346114  -0.032194  3.435458  -0.013
N  N36  1  0.06101578  0.23456409  0.80971857  1  -0.326224  0.02073  3.199172  0.021  -1.183079  0.003482  -0.276313  0.008095  3.481525  0.011  -0.300395  0.008376  3.502841  0.011  -0.325175  -0.26023  0.006573  3.467251  0.01
N  N37  1  0.76465156  0.94580978  0.68859539  1  -0.346285  0.021389  3.199915  0.022  -1.165147  0.002937  -0.29806  0.007565  3.485615  0.011  -0.322221  0.007839  3.507312  0.011  -0.324692  -0.281605  0.005869  3.470943  0.01
N  N38  1  0.81906512  0.53446743  0.17335024  1  -0.37517  0.003016  3.067271  0.002  -1.189155  -2.4e-05  -0.319753  0.001537  3.32169  0.0  -0.333691  0.001195  3.332773  0.0  -0.313797  -0.310261  0.001071  3.313827  0.0
N  N39  1  0.47075523  0.17350999  0.32552232  1  -0.374826  0.002269  3.068945  0.001  -1.196648  -0.00094  -0.319801  0.000754  3.323605  0.0  -0.333891  0.00057  3.335154  0.0  -0.313725  -0.310255  0.00023  3.315515  -0.001
N  N40  1  0.15195733  0.48174306  0.81446376  1  -0.36653  0.000877  3.058617  0.001  -1.203772  -0.003916  -0.315299  -0.002256  3.315925  -0.002  -0.330762  -0.000943  3.330029  0.0  -0.306476  -0.304788  -0.003724  3.306916  -0.003
N  N41  1  0.51912801  0.85085924  0.68537013  1  -0.359877  0.001612  3.04694  0.002  -1.202369  -0.003205  -0.310385  -0.001519  3.306159  -0.001  -0.325849  -0.000521  3.321267  0.0  -0.303971  -0.299841  -0.00268  3.29634  -0.002
N  N42  1  0.85536039  0.00506176  0.89404758  1  -0.401553  0.002358  3.137586  -0.005  -1.240433  0.009505  -0.376718  0.010377  3.4571  0.004  -0.380055  0.005231  3.451175  0.001  -0.372655  -0.373991  0.014515  3.457856  0.008
N  N43  1  0.01708361  0.12700206  0.60452010  1  -0.389449  0.005011  3.147429  -0.001  -1.243194  0.010444  -0.363734  0.011652  3.466167  0.006  -0.367159  0.007206  3.460257  0.003  -0.373262  -0.361038  0.015259  3.467008  0.009
N  N44  1  0.18994560  0.96893233  0.08212331  1  -0.417938  -0.004804  2.803544  0.01  -1.238523  -0.033159  -0.375666  -0.01751  3.082664  0.004  -0.392896  -0.01248  3.086993  0.007  -0.296725  -0.365454  -0.02235  3.081579  0.001
N  N45  1  0.02308773  0.81245280  0.41940658  1  -0.413725  -0.006605  2.805597  0.008  -1.242292  -0.033587  -0.371029  -0.018237  3.084009  0.003  -0.388652  -0.013454  3.089154  0.006  -0.295982  -0.360385  -0.022839  3.082167  0.0
N  N46  1  0.61379386  0.56908896  0.91474121  1  -0.387383  0.005925  2.695649  0.005  -1.220877  0.001488  -0.356856  0.001819  2.930954  0.001  -0.360697  0.000388  2.937291  0.0  -0.288434  -0.354395  0.002132  2.927435  0.001
N  N47  1  0.41268212  0.38366401  0.58652560  1  -0.398648  0.003911  2.701862  0.003  -1.201898  0.000296  -0.36693  0.000636  2.937553  0.0  -0.371255  -0.000525  2.943943  -0.001  -0.292177  -0.364066  0.000786  2.93406  0.0
N  N48  1  0.37460033  0.41582811  0.07619159  1  -0.363316  -0.003802  2.657198  -0.004  -1.168375  -0.006615  -0.330717  -0.004481  2.889145  -0.005  -0.344737  -0.0039  2.901948  -0.004  -0.26853  -0.32243  -0.005834  2.881496  -0.006
N  N49  1  0.59147646  0.61578133  0.43001161  1  -0.3684  -0.004386  2.645289  -0.005  -1.183303  -0.006522  -0.335824  -0.00443  2.87514  -0.005  -0.35014  -0.003749  2.88777  -0.004  -0.27127  -0.327184  -0.005851  2.867486  -0.006
O  O50  1  0.81343483  0.18689322  0.24970743  1  -0.875688  -0.041051  1.996522  -0.027  -1.341966  -0.067995  -0.810002  -0.051436  2.2395  -0.033  -0.835457  -0.045281  2.202638  -0.028  -0.589131  -0.789522  -0.057671  2.264177  -0.039
O  O51  1  0.18191938  0.82316477  0.76417400  1  -0.775746  -0.00306  2.099283  0.001  -1.28221  -0.022329  -0.721154  -0.015396  2.343393  -0.011  -0.757331  -0.01257  2.318853  -0.009  -0.552395  -0.693504  -0.019689  2.358679  -0.014
O  O52  1  0.35344860  0.63462302  0.25605080  1  -0.860498  -0.033441  1.966443  -0.022  -1.336044  -0.059041  -0.807395  -0.044256  2.191154  -0.029  -0.829469  -0.03924  2.156844  -0.025  -0.578728  -0.790159  -0.049216  2.214714  -0.034
O  O53  1  0.67598968  0.36204645  0.73243706  1  -0.786528  0.01572  2.008816  0.02  -1.293759  -0.000546  -0.742851  0.003563  2.222623  0.009  -0.773341  0.002932  2.19755  0.009  -0.550938  -0.720076  0.003799  2.238938  0.01
