# generated using pymatgen
data_ZnH5C10I2NO4
_symmetry_space_group_name_H-M   'P 1'
_cell_length_a   10.01416656
_cell_length_b   11.29961717
_cell_length_c   13.21872502
_cell_angle_alpha   95.97985588
_cell_angle_beta   93.02634644
_cell_angle_gamma   93.47402116
_symmetry_Int_Tables_number   1
_chemical_formula_structural   ZnH5C10I2NO4
_chemical_formula_sum   'Zn2 H10 C20 I4 N2 O8'
_cell_volume   1482.27402362
_cell_formula_units_Z   2
loop_
 _symmetry_equiv_pos_site_id
 _symmetry_equiv_pos_as_xyz
  1  'x, y, z'
loop_
 _atom_site_type_symbol
 _atom_site_label
 _atom_site_symmetry_multiplicity
 _atom_site_fract_x
 _atom_site_fract_y
 _atom_site_fract_z
 _atom_site_occupancy
 _atom_site_pbe_bader_charge
 _atom_site_pbe_bader_spin_density
 _atom_site_pbe_cm5_charge
 _atom_site_pbe_ddec_charge
 _atom_site_pbe_ddec_spin_density
 _atom_site_pbe_ddec_sum_bond_order
 _atom_site_pbe_magmom
Zn  Zn0  1  0.63625587  0.48430528  0.50343399  1  1.292196  0  0.666608  0.852094  0  2.431635  0
Zn  Zn1  1  0.36477529  0.51680096  0.48890050  1  1.294647  0  0.667094  0.853048  0  2.432275  0
H  H2  1  0.73287039  0.42070154  0.19115230  1  0.104542  0  0.103458  0.122578  0  1.014311  0
H  H3  1  0.26921911  0.57659806  0.80083008  1  0.129486  0  0.103175  0.121465  0  1.015518  0
H  H4  1  0.38329327  0.90413889  0.50574089  1  0.112767  0  0.108733  0.108995  0  0.979502  0
H  H5  1  0.61683260  0.09696113  0.48649342  1  0.114082  0  0.10905  0.109233  0  0.980007  0
H  H6  1  0.68344852  0.88435542  0.46996841  1  0.078244  0  0.106201  0.123628  0  0.987439  0
H  H7  1  0.31652978  0.11666786  0.52189549  1  0.075234  0  0.105979  0.123905  0  0.987464  0
H  H8  1  0.89878728  0.48793445  0.39942973  1  0.149906  0  0.143179  0.11111  0  0.943258  0
H  H9  1  0.10212600  0.51349102  0.59354281  1  0.112927  0  0.143104  0.110288  0  0.942419  0
H  H10  1  0.86731682  0.49113266  0.61956039  1  0.430051  0  0.304656  0.273394  0  0.945596  0
H  H11  1  0.13322141  0.51048115  0.37340354  1  0.458534  0  0.305623  0.275414  0  0.942911  0
C  C12  1  0.45190216  0.27397692  0.51002764  1  1.539095  0  0.206578  0.634593  0  4.181258  0
C  C13  1  0.54804623  0.72709912  0.48207068  1  1.547718  0  0.205134  0.635412  0  4.180365  0
C  C14  1  0.07216349  0.50872163  0.51199104  1  0.742958  0  0.122157  0.171054  0  3.868759  0
C  C15  1  0.92877586  0.49281125  0.48098241  1  0.666044  0  0.120861  0.169619  0  3.87167  0
C  C16  1  0.47595451  0.53998910  0.69458013  1  1.595957  0  0.213102  0.601779  0  4.156678  0
C  C17  1  0.52665785  0.46006743  0.29788141  1  1.621212  0  0.21488  0.60382  0  4.157704  0
C  C18  1  0.52746979  0.45954533  0.18356877  1  -0.015238  0  -0.019577  -0.040844  0  3.938342  0
C  C19  1  0.47490264  0.53874736  0.80870129  1  0.046818  0  -0.01812  -0.040307  0  3.939659  0
C  C20  1  0.33266391  0.54621009  0.95331601  1  -0.228072  0  -0.052309  0.019926  0  3.884749  0
C  C21  1  0.66896098  0.45017174  0.03854803  1  -0.239304  0  -0.051856  0.020233  0  3.884667  0
C  C22  1  0.34975146  0.55169094  0.85127876  1  -0.019208  0  -0.095279  -0.122544  0  3.996169  0
C  C23  1  0.65232524  0.44557112  0.14073589  1  0.084454  0  -0.095929  -0.124362  0  3.997163  0
C  C24  1  0.58535264  0.52652622  0.87448472  1  -0.197263  0  -0.036542  0.017501  0  3.783881  0
C  C25  1  0.41676624  0.47101219  0.11778779  1  -0.171204  0  -0.036711  0.017664  0  3.782563  0
C  C26  1  0.56728713  0.49365542  0.97478871  1  0.000714  0  -0.010235  0.025428  0  3.910254  0
C  C27  1  0.43441090  0.50301130  0.01717571  1  0.038841  0  -0.010066  0.025784  0  3.910564  0
C  C28  1  0.42076788  0.14443018  0.51151658  1  -0.047791  0  -0.088941  -0.224721  0  3.879295  0
C  C29  1  0.57925185  0.85662346  0.48051547  1  -0.011839  0  -0.090296  -0.225735  0  3.880807  0
C  C30  1  0.51422666  0.06384010  0.49733093  1  -0.008319  0  -0.074657  -0.029849  0  4.01633  0
C  C31  1  0.48586653  0.93725174  0.49481400  1  -0.104299  0  -0.073855  -0.028419  0  4.015778  0
I  I32  1  0.22618697  0.39925873  0.15346109  1  0.130622  0  0.064972  -0.026463  0  1.653339  0
I  I33  1  0.77655054  0.59785729  0.83975138  1  0.129969  0  0.06489  -0.026767  0  1.658672  0
I  I34  1  0.16577215  0.63650114  0.00506611  1  0.113164  0  0.049563  -0.050263  0  1.569492  0
I  I35  1  0.83449264  0.35833164  0.98627318  1  0.114177  0  0.049774  -0.049561  0  1.563731  0
N  N36  1  0.16445025  0.51690705  0.44940734  1  -1.193318  0  -0.423695  -0.357327  0  3.248878  0
N  N37  1  0.83640829  0.48460392  0.54347738  1  -1.152112  0  -0.422575  -0.354933  0  3.251636  0
O  O38  1  0.57458197  0.31151766  0.50926191  1  -1.159421  0  -0.32475  -0.550568  0  2.303737  0
O  O39  1  0.42540030  0.68980393  0.48374563  1  -1.167157  0  -0.323748  -0.551135  0  2.304531  0
O  O40  1  0.35157096  0.33881037  0.50872854  1  -1.16583  0  -0.330739  -0.565714  0  2.280734  0
O  O41  1  0.64825063  0.66206283  0.48249928  1  -1.161928  0  -0.329753  -0.564796  0  2.277472  0
O  O42  1  0.58581371  0.52330331  0.65352225  1  -1.179771  0  -0.316965  -0.555354  0  2.417609  0
O  O43  1  0.41724627  0.47864507  0.33903746  1  -1.17862  0  -0.316766  -0.556595  0  2.417747  0
O  O44  1  0.36379153  0.55090222  0.64747534  1  -1.161001  0  -0.317374  -0.540277  0  2.278625  0
O  O45  1  0.63867313  0.44861099  0.34499584  1  -1.162661  0  -0.318032  -0.541431  0  2.278262  0
