# generated using pymatgen
data_Cd2H19C25Br4N7
_symmetry_space_group_name_H-M   'P 1'
_cell_length_a   11.33771102
_cell_length_b   11.33746951
_cell_length_c   12.02465367
_cell_angle_alpha   76.11589545
_cell_angle_beta   76.11488844
_cell_angle_gamma   83.22454831
_symmetry_Int_Tables_number   1
_chemical_formula_structural   Cd2H19C25Br4N7
_chemical_formula_sum   'Cd4 H38 C50 Br8 N14'
_cell_volume   1453.66050031
_cell_formula_units_Z   2
loop_
 _symmetry_equiv_pos_site_id
 _symmetry_equiv_pos_as_xyz
  1  'x, y, z'
loop_
 _atom_site_type_symbol
 _atom_site_label
 _atom_site_symmetry_multiplicity
 _atom_site_fract_x
 _atom_site_fract_y
 _atom_site_fract_z
 _atom_site_occupancy
 _atom_site_hle17_bader_spin_density
 _atom_site_hle17_ddec_charge
 _atom_site_hle17_ddec_spin_density
 _atom_site_hle17_ddec_sum_bond_order
 _atom_site_hle17_magmom
 _atom_site_hse06_10hf_bader_spin_density
 _atom_site_hse06_10hf_ddec_charge
 _atom_site_hse06_10hf_ddec_spin_density
 _atom_site_hse06_10hf_ddec_sum_bond_order
 _atom_site_hse06_10hf_magmom
 _atom_site_hse06_bader_spin_density
 _atom_site_hse06_ddec_charge
 _atom_site_hse06_ddec_spin_density
 _atom_site_hse06_ddec_sum_bond_order
 _atom_site_hse06_magmom
 _atom_site_pbe_bader_spin_density
 _atom_site_pbe_cm5_charge
 _atom_site_pbe_ddec_charge
 _atom_site_pbe_ddec_spin_density
 _atom_site_pbe_ddec_sum_bond_order
 _atom_site_pbe_magmom
Cd  Cd0  1  0.49638205  0.05238075  0.64448189  1  0  0.864951  0  2.049466  0  0  0.687734  0  2.53558  0  0  0.737524  0  2.49227  0  0  0.55316  0.652942  0  2.564437  0
Cd  Cd1  1  0.94761182  0.50360776  0.85551516  1  0  0.86492  0  2.049383  0  0  0.687694  0  2.535493  0  0  0.737483  0  2.492188  0  0  0.553163  0.652901  0  2.564353  0
Cd  Cd2  1  0.50361122  0.94761749  0.35552407  1  0  0.864881  0  2.049488  0  0  0.68766  0  2.535624  0  0  0.737451  0  2.492314  0  0  0.553117  0.652867  0  2.564483  0
Cd  Cd3  1  0.05238764  0.49639322  0.14448463  1  0  0.86494  0  2.049379  0  0  0.687722  0  2.535487  0  0  0.737511  0  2.492183  0  0  0.553159  0.652926  0  2.564347  0
H  H4  1  0.55571440  0.44428632  0.74998687  1  0  0.092843  0  0.972756  0  0  0.103926  0  1.033609  0  0  0.106453  0  1.031475  0  0  0.086112  0.101883  0  1.035389  0
H  H5  1  0.44429277  0.55572194  0.25000620  1  0  0.092877  0  0.972755  0  0  0.103973  0  1.033586  0  0  0.106501  0  1.031451  0  0  0.086124  0.10193  0  1.035367  0
H  H6  1  0.57226616  0.62236901  0.82920636  1  0  0.107899  0  0.9851  0  0  0.113106  0  1.055879  0  0  0.116825  0  1.054957  0  0  0.091448  0.110702  0  1.056333  0
H  H7  1  0.37763069  0.42772466  0.67077736  1  0  0.10806  0  0.98511  0  0  0.113327  0  1.055822  0  0  0.11705  0  1.054895  0  0  0.091519  0.110923  0  1.056277  0
H  H8  1  0.42773482  0.37763652  0.17079372  1  0  0.107866  0  0.985134  0  0  0.113089  0  1.055916  0  0  0.116811  0  1.054997  0  0  0.091441  0.110686  0  1.05637  0
H  H9  1  0.62237751  0.57228178  0.32921840  1  0  0.108017  0  0.985251  0  0  0.113307  0  1.055922  0  0  0.117029  0  1.054996  0  0  0.091522  0.110903  0  1.056381  0
H  H10  1  0.62571610  0.73423864  0.11042087  1  0  0.10102  0  0.942518  0  0  0.110578  0  1.004482  0  0  0.113166  0  1.002574  0  0  0.10258  0.108679  0  1.00601  0
H  H11  1  0.26576792  0.37428371  0.38956346  1  0  0.101164  0  0.94258  0  0  0.1107  0  1.004508  0  0  0.113287  0  1.002601  0  0  0.102604  0.108797  0  1.006034  0
H  H12  1  0.37428843  0.26575414  0.88957797  1  0  0.101037  0  0.942646  0  0  0.110587  0  1.0046  0  0  0.113174  0  1.002693  0  0  0.102557  0.108685  0  1.006127  0
H  H13  1  0.73422972  0.62571727  0.61043509  1  0  0.10114  0  0.942581  0  0  0.110676  0  1.004523  0  0  0.113264  0  1.002616  0  0  0.102584  0.108775  0  1.006049  0
H  H14  1  0.16788029  0.76588289  0.94539213  1  0  0.12263  0  0.969604  0  0  0.12531  0  1.041846  0  0  0.129331  0  1.039196  0  0  0.098958  0.122393  0  1.043968  0
H  H15  1  0.23410805  0.83212167  0.55461503  1  0  0.122713  0  0.969627  0  0  0.125349  0  1.041912  0  0  0.129367  0  1.039267  0  0  0.098987  0.122431  0  1.044034  0
H  H16  1  0.83212043  0.23411262  0.05460944  1  0  0.122673  0  0.969639  0  0  0.125363  0  1.041866  0  0  0.129384  0  1.039214  0  0  0.09899  0.122446  0  1.043989  0
H  H17  1  0.76589777  0.16787931  0.44538416  1  0  0.122735  0  0.969572  0  0  0.125377  0  1.041872  0  0  0.129397  0  1.039223  0  0  0.098972  0.122458  0  1.043996  0
H  H18  1  0.46428241  0.68118298  0.02381208  1  0  0.132936  0  0.959891  0  0  0.142087  0  1.018996  0  0  0.14552  0  1.018017  0  0  0.103072  0.139435  0  1.02024  0
H  H19  1  0.31880867  0.53572289  0.47618049  1  0  0.132872  0  0.959974  0  0  0.142091  0  1.019016  0  0  0.145523  0  1.018036  0  0  0.103032  0.139437  0  1.020263  0
H  H20  1  0.53571650  0.31881253  0.97618990  1  0  0.132873  0  0.960008  0  0  0.142055  0  1.01908  0  0  0.145488  0  1.0181  0  0  0.103029  0.1394  0  1.020328  0
H  H21  1  0.68118511  0.46428173  0.52381727  1  0  0.132857  0  0.959905  0  0  0.142039  0  1.019009  0  0  0.145468  0  1.018029  0  0  0.103032  0.139387  0  1.020251  0
H  H22  1  0.22680675  0.18474022  0.71505471  1  0  0.079423  0  0.935579  0  0  0.088739  0  0.998366  0  0  0.090998  0  0.997059  0  0  0.111589  0.087261  0  0.999002  0
H  H23  1  0.81525752  0.77318721  0.78494607  1  0  0.079502  0  0.935725  0  0  0.088887  0  0.998398  0  0  0.091148  0  0.997091  0  0  0.11166  0.08741  0  0.999033  0
H  H24  1  0.77318561  0.81525802  0.28494564  1  0  0.079491  0  0.935735  0  0  0.088893  0  0.998387  0  0  0.091154  0  0.997078  0  0  0.111651  0.087416  0  0.999023  0
H  H25  1  0.18474756  0.22681104  0.21504808  1  0  0.079436  0  0.935692  0  0  0.088802  0  0.998393  0  0  0.091063  0  0.997086  0  0  0.111616  0.087325  0  0.999029  0
H  H26  1  0.98580813  0.91206370  0.93744500  1  0  0.091217  0  0.952334  0  0  0.100839  0  1.015198  0  0  0.103418  0  1.013944  0  0  0.101224  0.099399  0  1.015325  0
H  H27  1  0.08792959  0.01419208  0.56256753  1  0  0.091323  0  0.952297  0  0  0.10093  0  1.015158  0  0  0.103513  0  1.013899  0  0  0.101252  0.099491  0  1.015284  0
H  H28  1  0.01419071  0.08793272  0.06255929  1  0  0.09128  0  0.9523  0  0  0.100898  0  1.015175  0  0  0.103477  0  1.013921  0  0  0.101256  0.099459  0  1.015302  0
H  H29  1  0.91207520  0.98581072  0.43742815  1  0  0.091266  0  0.95221  0  0  0.100884  0  1.015064  0  0  0.103464  0  1.013809  0  0  0.101237  0.099445  0  1.01519  0
H  H30  1  0.67123590  0.05939102  0.83163976  1  0  0.075936  0  0.950706  0  0  0.080934  0  1.019638  0  0  0.084191  0  1.01663  0  0  0.104552  0.078284  0  1.022397  0
H  H31  1  0.94061423  0.32874541  0.66835211  1  0  0.075951  0  0.950655  0  0  0.080877  0  1.01963  0  0  0.084135  0  1.016622  0  0  0.104443  0.078226  0  1.022391  0
H  H32  1  0.32876658  0.94060540  0.16836121  1  0  0.076023  0  0.950623  0  0  0.080966  0  1.019609  0  0  0.084222  0  1.016602  0  0  0.104558  0.078318  0  1.022367  0
H  H33  1  0.05938353  0.67125374  0.33165430  1  0  0.075874  0  0.95072  0  0  0.080805  0  1.019691  0  0  0.084062  0  1.016684  0  0  0.104456  0.078158  0  1.022448  0
H  H34  1  0.73325108  0.92706521  0.01218817  1  0  0.098096  0  0.96597  0  0  0.107179  0  1.029187  0  0  0.10947  0  1.030049  0  0  0.099507  0.105888  0  1.028018  0
H  H35  1  0.07294887  0.26673514  0.48780008  1  0  0.098014  0  0.966025  0  0  0.107134  0  1.029228  0  0  0.109432  0  1.030079  0  0  0.099543  0.10585  0  1.028055  0
H  H36  1  0.26675521  0.07292848  0.98780923  1  0  0.098127  0  0.965922  0  0  0.107215  0  1.02913  0  0  0.109511  0  1.029984  0  0  0.099551  0.105938  0  1.02795  0
H  H37  1  0.92704985  0.73326310  0.51220549  1  0  0.098006  0  0.966026  0  0  0.107124  0  1.029236  0  0  0.109425  0  1.03008  0  0  0.099495  0.105846  0  1.028065  0
H  H38  1  0.01620485  0.13016217  0.82477256  1  0  0.106952  0  0.941979  0  0  0.118624  0  0.997941  0  0  0.121595  0  0.997358  0  0  0.10784  0.116236  0  0.999018  0
H  H39  1  0.86983149  0.98378917  0.67523825  1  0  0.106934  0  0.941994  0  0  0.118631  0  0.997943  0  0  0.121601  0  0.99736  0  0  0.107794  0.116238  0  0.999023  0
H  H40  1  0.98378757  0.86983517  0.17523215  1  0  0.106972  0  0.941968  0  0  0.118658  0  0.997938  0  0  0.121628  0  0.997356  0  0  0.107832  0.116268  0  0.999016  0
H  H41  1  0.13016997  0.01620908  0.32475672  1  0  0.106949  0  0.942027  0  0  0.118653  0  0.997964  0  0  0.121624  0  0.997379  0  0  0.107801  0.116256  0  0.999042  0
C  C42  1  0.48328876  0.51670467  0.74998927  1  0  0.024967  0  3.770424  0  0  0.01115  0  4.014309  0  0  0.018084  0  4.032638  0  0  -0.081364  0.007275  0  4.001933  0
C  C43  1  0.51671495  0.48330086  0.25000936  1  0  0.024941  0  3.770065  0  0  0.011111  0  4.013968  0  0  0.018043  0  4.032294  0  0  -0.081335  0.007237  0  4.001593  0
C  C44  1  0.48909595  0.83956761  0.88096787  1  0  0.363383  0  3.762377  0  0  0.33731  0  4.019587  0  0  0.351342  0  4.037235  0  0  0.220269  0.327958  0  4.007359  0
C  C45  1  0.16043576  0.51089320  0.61902599  1  0  0.363  0  3.76242  0  0  0.337001  0  4.019576  0  0  0.351032  0  4.037228  0  0  0.220264  0.327653  0  4.007346  0
C  C46  1  0.51090175  0.16043245  0.11903502  1  0  0.363223  0  3.762465  0  0  0.337176  0  4.019642  0  0  0.351208  0  4.037292  0  0  0.220256  0.327824  0  4.007413  0
C  C47  1  0.83956382  0.48910595  0.38097419  1  0  0.362988  0  3.762533  0  0  0.337004  0  4.019651  0  0  0.351033  0  4.037304  0  0  0.220252  0.327655  0  4.00742  0
C  C48  1  0.39724598  0.70669698  0.79274916  1  0  0.39936  0  3.81145  0  0  0.371763  0  4.077444  0  0  0.390527  0  4.090261  0  0  0.222832  0.359289  0  4.068449  0
C  C49  1  0.29329647  0.60275403  0.70724657  1  0  0.399046  0  3.811455  0  0  0.371557  0  4.077373  0  0  0.390322  0  4.090185  0  0  0.222753  0.359084  0  4.068379  0
C  C50  1  0.60275371  0.29330035  0.20725473  1  0  0.399425  0  3.811445  0  0  0.371793  0  4.077525  0  0  0.390557  0  4.090342  0  0  0.222878  0.359319  0  4.06853  0
C  C51  1  0.70670463  0.39724968  0.29275057  1  0  0.399073  0  3.811324  0  0  0.371531  0  4.077321  0  0  0.390293  0  4.090138  0  0  0.222737  0.359056  0  4.068326  0
C  C52  1  0.29057799  0.89756200  0.83044298  1  0  0.383743  0  3.730188  0  0  0.355206  0  3.989007  0  0  0.371042  0  4.003881  0  0  0.229088  0.344418  0  3.979057  0
C  C53  1  0.10243065  0.70941838  0.66956433  1  0  0.383523  0  3.730022  0  0  0.355075  0  3.988777  0  0  0.37091  0  4.003646  0  0  0.229077  0.344297  0  3.978815  0
C  C54  1  0.70942068  0.10243716  0.16955491  1  0  0.383733  0  3.730075  0  0  0.355251  0  3.988829  0  0  0.37109  0  4.003702  0  0  0.229096  0.344459  0  3.978889  0
C  C55  1  0.89757069  0.29058168  0.33043525  1  0  0.383701  0  3.729949  0  0  0.355207  0  3.988784  0  0  0.371041  0  4.003652  0  0  0.229096  0.344426  0  3.978826  0
C  C56  1  0.49317957  0.61672520  0.79483679  1  0  -0.247897  0  3.741909  0  0  -0.269711  0  4.002036  0  0  -0.281597  0  4.022261  0  0  -0.117805  -0.262654  0  3.988708  0
C  C57  1  0.38326861  0.50682104  0.70513683  1  0  -0.248239  0  3.741948  0  0  -0.270207  0  4.002149  0  0  -0.282094  0  4.022366  0  0  -0.117976  -0.26315  0  3.988827  0
C  C58  1  0.50682687  0.38328032  0.20515874  1  0  -0.247913  0  3.741826  0  0  -0.26975  0  4.001997  0  0  -0.281642  0  4.022229  0  0  -0.117851  -0.262695  0  3.988666  0
C  C59  1  0.61673827  0.49319177  0.29485196  1  0  -0.248256  0  3.741821  0  0  -0.270203  0  4.002021  0  0  -0.282089  0  4.022239  0  0  -0.118023  -0.263148  0  3.988699  0
C  C60  1  0.60423239  0.79289587  0.03081029  1  0  0.018487  0  3.710286  0  0  -0.001272  0  3.962213  0  0  0.003225  0  3.979326  0  0  -0.067009  -0.00409  0  3.950981  0
C  C61  1  0.20710742  0.39575880  0.46917507  1  0  0.018058  0  3.710632  0  0  -0.001675  0  3.962617  0  0  0.002821  0  3.979728  0  0  -0.06708  -0.004484  0  3.951379  0
C  C62  1  0.39577015  0.20709965  0.96918755  1  0  0.018405  0  3.710474  0  0  -0.00136  0  3.962398  0  0  0.003136  0  3.979513  0  0  -0.066975  -0.004174  0  3.951166  0
C  C63  1  0.79288852  0.60424036  0.53082261  1  0  0.018041  0  3.710661  0  0  -0.001688  0  3.962651  0  0  0.002807  0  3.979764  0  0  -0.067058  -0.0045  0  3.951418  0
C  C64  1  0.17609952  0.85902758  0.89443840  1  0  -0.161576  0  3.67833  0  0  -0.182048  0  3.931991  0  0  -0.189049  0  3.949834  0  0  -0.076835  -0.177999  0  3.920796  0
C  C65  1  0.14096550  0.82389992  0.60557306  1  0  -0.161615  0  3.678606  0  0  -0.182105  0  3.932255  0  0  -0.189105  0  3.950099  0  0  -0.076862  -0.178057  0  3.921056  0
C  C66  1  0.82389818  0.14097248  0.10556533  1  0  -0.161615  0  3.678372  0  0  -0.182095  0  3.931986  0  0  -0.189095  0  3.949826  0  0  -0.076854  -0.178044  0  3.920793  0
C  C67  1  0.85903766  0.17610015  0.39442277  1  0  -0.161641  0  3.678572  0  0  -0.182137  0  3.932208  0  0  -0.189139  0  3.950053  0  0  -0.076794  -0.17809  0  3.921014  0
C  C68  1  0.51523509  0.76196260  0.98270865  1  0  -0.178887  0  3.670046  0  0  -0.19274  0  3.912601  0  0  -0.201065  0  3.932066  0  0  -0.078757  -0.187419  0  3.899962  0
C  C69  1  0.23803986  0.48475783  0.51728267  1  0  -0.178523  0  3.669876  0  0  -0.192497  0  3.912419  0  0  -0.200819  0  3.931885  0  0  -0.078681  -0.187177  0  3.899777  0
C  C70  1  0.48476460  0.23803474  0.01729192  1  0  -0.178704  0  3.66999  0  0  -0.192585  0  3.912513  0  0  -0.20091  0  3.931979  0  0  -0.07872  -0.187262  0  3.899871  0
C  C71  1  0.76195694  0.51524223  0.48271544  1  0  -0.178494  0  3.669816  0  0  -0.192462  0  3.912421  0  0  -0.20078  0  3.931884  0  0  -0.078717  -0.187141  0  3.89978  0
C  C72  1  0.20877647  0.09316313  0.76723077  1  0  0.131759  0  3.725161  0  0  0.098411  0  3.981473  0  0  0.105483  0  3.999479  0  0  0.038304  0.093645  0  3.969379  0
C  C73  1  0.90683141  0.79121977  0.73276863  1  0  0.131564  0  3.725507  0  0  0.098181  0  3.981839  0  0  0.105246  0  3.999841  0  0  0.038241  0.093417  0  3.969743  0
C  C74  1  0.79121772  0.90683512  0.23277416  1  0  0.131659  0  3.725427  0  0  0.098282  0  3.981731  0  0  0.105354  0  3.999734  0  0  0.03828  0.093515  0  3.969637  0
C  C75  1  0.09316896  0.20878121  0.26722431  1  0  0.131648  0  3.725399  0  0  0.098305  0  3.981703  0  0  0.105373  0  3.999701  0  0  0.038298  0.093542  0  3.969608  0
C  C76  1  0.07590615  0.94182492  0.89061019  1  0  -0.001284  0  3.739581  0  0  -0.016627  0  3.98405  0  0  -0.013479  0  4.003571  0  0  -0.069313  -0.018542  0  3.970729  0
C  C77  1  0.05816841  0.92409310  0.60939650  1  0  -0.001356  0  3.73968  0  0  -0.016644  0  3.984083  0  0  -0.013498  0  4.003603  0  0  -0.069252  -0.01856  0  3.970758  0
C  C78  1  0.92409088  0.05817151  0.10939201  1  0  -0.001312  0  3.739484  0  0  -0.016667  0  3.983986  0  0  -0.01352  0  4.003507  0  0  -0.069299  -0.018582  0  3.970665  0
C  C79  1  0.94183826  0.07590878  0.39060229  1  0  -0.001338  0  3.739575  0  0  -0.016619  0  3.983983  0  0  -0.013473  0  4.003503  0  0  -0.069305  -0.018533  0  3.970657  0
C  C80  1  0.63065165  0.97307899  0.87666964  1  0  0.125861  0  3.730886  0  0  0.098119  0  3.981778  0  0  0.10412  0  4.001023  0  0  0.038291  0.094208  0  3.968896  0
C  C81  1  0.02692620  0.36933464  0.62331940  1  0  0.125665  0  3.7312  0  0  0.097998  0  3.982083  0  0  0.103994  0  4.001331  0  0  0.038287  0.094089  0  3.969205  0
C  C82  1  0.36934895  0.02691835  0.12333155  1  0  0.125762  0  3.730816  0  0  0.098074  0  3.981706  0  0  0.104073  0  4.00095  0  0  0.03826  0.094162  0  3.968831  0
C  C83  1  0.97307060  0.63066543  0.37668370  1  0  0.125888  0  3.73119  0  0  0.098217  0  3.982076  0  0  0.104214  0  4.001322  0  0  0.038352  0.094306  0  3.969201  0
C  C84  1  0.66322806  0.90027205  0.97683532  1  0  -0.12063  0  3.731625  0  0  -0.136178  0  3.987429  0  0  -0.142676  0  4.008939  0  0  -0.090266  -0.13197  0  3.972644  0
C  C85  1  0.09973640  0.33676061  0.52315633  1  0  -0.120219  0  3.731769  0  0  -0.135786  0  3.987469  0  0  -0.142283  0  4.008983  0  0  -0.090196  -0.131585  0  3.972679  0
C  C86  1  0.33677448  0.09972346  0.02316501  1  0  -0.12064  0  3.73169  0  0  -0.136192  0  3.987484  0  0  -0.142689  0  4.008993  0  0  -0.09033  -0.131997  0  3.972692  0
C  C87  1  0.90025931  0.66324218  0.47684723  1  0  -0.120262  0  3.731692  0  0  -0.135836  0  3.987433  0  0  -0.142333  0  4.008949  0  0  -0.090172  -0.131647  0  3.972636  0
C  C88  1  0.09225077  0.06196834  0.82752253  1  0  -0.135698  0  3.755712  0  0  -0.148695  0  4.008448  0  0  -0.155499  0  4.029696  0  0  -0.089241  -0.144556  0  3.994849  0
C  C89  1  0.93802435  0.90774355  0.67248027  1  0  -0.135672  0  3.755764  0  0  -0.148715  0  4.008493  0  0  -0.155519  0  4.029742  0  0  -0.089212  -0.144569  0  3.994886  0
C  C90  1  0.90774263  0.93802808  0.17247633  1  0  -0.135723  0  3.755687  0  0  -0.148769  0  4.008476  0  0  -0.155573  0  4.029722  0  0  -0.089276  -0.144626  0  3.994873  0
C  C91  1  0.06198159  0.09225561  0.32751930  1  0  -0.135684  0  3.755832  0  0  -0.148745  0  4.008556  0  0  -0.15555  0  4.029804  0  0  -0.089222  -0.144595  0  3.994945  0
Br  Br92  1  0.36441607  0.11160480  0.46397509  1  0  -0.513529  0  1.044663  0  0  -0.445142  0  1.353339  0  0  -0.467317  0  1.33255  0  0  -0.259459  -0.428641  0  1.367045  0
Br  Br93  1  0.88840149  0.63557146  0.03603077  1  0  -0.513549  0  1.044628  0  0  -0.445174  0  1.353311  0  0  -0.467347  0  1.332522  0  0  -0.259498  -0.428673  0  1.367018  0
Br  Br94  1  0.63557952  0.88839982  0.53602725  1  0  -0.513531  0  1.044692  0  0  -0.445142  0  1.353375  0  0  -0.467317  0  1.332585  0  0  -0.259463  -0.428639  0  1.367081  0
Br  Br95  1  0.11159990  0.36442769  0.96396900  1  0  -0.513556  0  1.044598  0  0  -0.445174  0  1.353257  0  0  -0.467346  0  1.332469  0  0  -0.259508  -0.428672  0  1.366965  0
Br  Br96  1  0.59841578  0.24512527  0.63703242  1  0  -0.54759  0  0.938988  0  0  -0.487066  0  1.219155  0  0  -0.504693  0  1.196684  0  0  -0.293628  -0.474046  0  1.234784  0
Br  Br97  1  0.75486910  0.40158100  0.86295029  1  0  -0.547537  0  0.938924  0  0  -0.487002  0  1.219062  0  0  -0.50463  0  1.19659  0  0  -0.293602  -0.47398  0  1.234681  0
Br  Br98  1  0.40158538  0.75487753  0.36296492  1  0  -0.547521  0  0.939033  0  0  -0.486999  0  1.219206  0  0  -0.504627  0  1.196738  0  0  -0.293579  -0.473982  0  1.234839  0
Br  Br99  1  0.24513127  0.59841997  0.13705013  1  0  -0.547536  0  0.938915  0  0  -0.486988  0  1.219027  0  0  -0.504618  0  1.196557  0  0  -0.2936  -0.473967  0  1.234646  0
N  N100  1  0.39607984  0.81567325  0.82981622  1  0  -0.346411  0  3.407173  0  0  -0.271666  0  3.640604  0  0  -0.292617  0  3.65535  0  0  -0.253641  -0.256906  0  3.629422  0
N  N101  1  0.18432115  0.60391110  0.67018415  1  0  -0.345946  0  3.406654  0  0  -0.271256  0  3.64  0  0  -0.292219  0  3.65478  0  0  -0.253625  -0.256495  0  3.628802  0
N  N102  1  0.60391968  0.18432682  0.17018460  1  0  -0.34637  0  3.407173  0  0  -0.271632  0  3.6406  0  0  -0.292581  0  3.655345  0  0  -0.253636  -0.256869  0  3.629419  0
N  N103  1  0.81567934  0.39608805  0.32981666  1  0  -0.345957  0  3.406516  0  0  -0.271237  0  3.639902  0  0  -0.29219  0  3.654664  0  0  -0.25357  -0.256474  0  3.628707  0
N  N104  1  0.30115707  0.69884212  0.74999569  1  0  -0.469364  0  3.119481  0  0  -0.426152  0  3.378746  0  0  -0.445455  0  3.392849  0  0  -0.32827  -0.412758  0  3.368897  0
N  N105  1  0.69884239  0.30115886  0.25000743  1  0  -0.469368  0  3.119468  0  0  -0.42614  0  3.378787  0  0  -0.445446  0  3.392892  0  0  -0.328275  -0.412747  0  3.368938  0
N  N106  1  0.30561066  0.01160678  0.76677511  1  0  -0.382186  0  3.254749  0  0  -0.306498  0  3.51644  0  0  -0.32669  0  3.533348  0  0  -0.333384  -0.292749  0  3.504903  0
N  N107  1  0.98838637  0.69438231  0.73323098  1  0  -0.381958  0  3.254525  0  0  -0.30634  0  3.516264  0  0  -0.326519  0  3.533167  0  0  -0.333426  -0.292596  0  3.504724  0
N  N108  1  0.69438529  0.98839238  0.23322756  1  0  -0.382147  0  3.254575  0  0  -0.306518  0  3.51632  0  0  -0.326714  0  3.533231  0  0  -0.333417  -0.292764  0  3.504781  0
N  N109  1  0.01161485  0.30561957  0.26676821  1  0  -0.38206  0  3.254445  0  0  -0.306451  0  3.516224  0  0  -0.326631  0  3.533123  0  0  -0.333453  -0.292707  0  3.504688  0
N  N110  1  0.54668968  0.94196796  0.82847145  1  0  -0.392056  0  3.251082  0  0  -0.322629  0  3.511397  0  0  -0.342509  0  3.531275  0  0  -0.331521  -0.309244  0  3.497708  0
N  N111  1  0.05803444  0.45330002  0.67152215  1  0  -0.392042  0  3.251519  0  0  -0.322609  0  3.511717  0  0  -0.342488  0  3.531596  0  0  -0.33154  -0.309226  0  3.498033  0
N  N112  1  0.45330984  0.05803211  0.17153270  1  0  -0.392038  0  3.251143  0  0  -0.322607  0  3.511385  0  0  -0.342487  0  3.531262  0  0  -0.331492  -0.309221  0  3.497698  0
N  N113  1  0.94196405  0.54670186  0.32848015  1  0  -0.392149  0  3.251654  0  0  -0.322715  0  3.511869  0  0  -0.342596  0  3.531747  0  0  -0.331563  -0.30933  0  3.498183  0
