# generated using pymatgen
data_CuH6C5NO3
_symmetry_space_group_name_H-M   'P 1'
_cell_length_a   6.01442675
_cell_length_b   10.10715571
_cell_length_c   10.95244550
_cell_angle_alpha   101.83878006
_cell_angle_beta   89.99996346
_cell_angle_gamma   89.99966247
_symmetry_Int_Tables_number   1
_chemical_formula_structural   CuH6C5NO3
_chemical_formula_sum   'Cu4 H24 C20 N4 O12'
_cell_volume   651.62335926
_cell_formula_units_Z   4
loop_
 _symmetry_equiv_pos_site_id
 _symmetry_equiv_pos_as_xyz
  1  'x, y, z'
loop_
 _atom_site_type_symbol
 _atom_site_label
 _atom_site_symmetry_multiplicity
 _atom_site_fract_x
 _atom_site_fract_y
 _atom_site_fract_z
 _atom_site_occupancy
 _atom_site_hle17_ddec_charge
 _atom_site_hle17_ddec_spin_density
 _atom_site_hle17_ddec_sum_bond_order
 _atom_site_hle17_magmom
 _atom_site_hse06_10hf_ddec_charge
 _atom_site_hse06_10hf_ddec_spin_density
 _atom_site_hse06_10hf_ddec_sum_bond_order
 _atom_site_hse06_10hf_magmom
 _atom_site_hse06_ddec_charge
 _atom_site_hse06_ddec_spin_density
 _atom_site_hse06_ddec_sum_bond_order
 _atom_site_hse06_magmom
 _atom_site_pbe_cm5_charge
 _atom_site_pbe_ddec_charge
 _atom_site_pbe_ddec_spin_density
 _atom_site_pbe_ddec_sum_bond_order
 _atom_site_pbe_magmom
Cu  Cu0  1  0.01118875  0.90438004  0.20328904  1  0.873761  0.590987  1.775642  0.43  0.851681  0.744331  2.182608  0.587  0.955716  0.847846  2.097754  0.689  0.727908  0.778637  0.56592  2.24514  0.442
Cu  Cu1  1  0.51120285  0.59561760  0.29671082  1  0.87373  -0.590979  1.77564  -0.43  0.851697  -0.744332  2.182575  -0.587  0.955726  -0.84785  2.097733  -0.689  0.727895  0.778665  -0.565926  2.245097  -0.442
Cu  Cu2  1  0.98878477  0.09560542  0.79670540  1  0.873777  -0.590971  1.775639  -0.43  0.85176  -0.744328  2.18259  -0.587  0.955781  -0.847838  2.097746  -0.689  0.72799  0.778751  -0.565926  2.245098  -0.442
Cu  Cu3  1  0.48879396  0.40439324  0.70329730  1  0.873874  0.590972  1.775591  0.43  0.85189  0.744326  2.182526  0.587  0.95594  0.84784  2.097682  0.689  0.728056  0.77887  0.565912  2.245063  0.442
H  H4  1  0.61657470  0.84374490  0.68269688  1  0.122768  0.000193  0.944614  0.0  0.143743  0.000167  1.00464  0.0  0.145972  0.000135  1.003679  0.0  0.096064  0.142114  0.000163  1.005217  0.0
H  H5  1  0.11656770  0.65624948  0.81729915  1  0.122747  -0.000195  0.944577  0.0  0.143717  -0.000167  1.004616  0.0  0.145949  -0.000135  1.003653  0.0  0.096092  0.142091  -0.000163  1.005192  0.0
H  H6  1  0.38347697  0.15627708  0.31731507  1  0.12278  -0.000194  0.944403  0.0  0.143693  -0.000167  1.004518  0.0  0.145922  -0.000135  1.003557  0.0  0.096015  0.142068  -0.000163  1.005097  0.0
H  H7  1  0.88344406  0.34371873  0.18268671  1  0.122823  0.000194  0.944425  0.0  0.143711  0.000167  1.004562  0.0  0.145939  0.000135  1.003607  0.0  0.096024  0.142084  0.000163  1.00514  0.0
H  H8  1  0.46077253  0.89177450  0.56036888  1  0.120821  4.9e-05  0.948642  0.0  0.142259  -2.2e-05  1.006009  0.0  0.143656  -5e-06  1.006657  0.0  0.093996  0.141177  -2.9e-05  1.00575  0.0
H  H9  1  0.96076300  0.60821960  0.93963250  1  0.120854  -4.8e-05  0.948625  0.0  0.142279  2.2e-05  1.005992  0.0  0.143677  5e-06  1.00664  0.0  0.094011  0.1412  2.9e-05  1.005733  0.0
H  H10  1  0.53926252  0.10824566  0.43965918  1  0.120844  -4.8e-05  0.948496  0.0  0.14236  2.2e-05  1.005765  0.0  0.143759  5e-06  1.006408  0.0  0.094  0.141281  2.9e-05  1.005509  0.0
H  H11  1  0.03924544  0.39175159  0.06034934  1  0.120835  5.3e-05  0.94852  0.0  0.142285  -2.2e-05  1.005854  0.0  0.143682  -5e-06  1.006505  0.0  0.09399  0.141203  -2.9e-05  1.005596  0.0
H  H12  1  0.72042114  0.97145899  0.60605144  1  0.11876  -0.000162  0.967353  -0.001  0.130597  9.4e-05  1.043814  0.0  0.131246  0.000182  1.043724  0.0  0.092505  0.129908  2.8e-05  1.044301  0.0
H  H13  1  0.22041520  0.52854014  0.89395364  1  0.11873  0.000163  0.967409  0.001  0.130566  -9.4e-05  1.04386  0.0  0.131214  -0.000181  1.043771  0.0  0.092523  0.12988  -2.8e-05  1.044348  0.0
H  H14  1  0.27961889  0.02855994  0.39395813  1  0.118798  0.000163  0.967522  0.001  0.130633  -9.4e-05  1.043969  0.0  0.131278  -0.000181  1.043887  0.0  0.092584  0.129961  -2.8e-05  1.044443  0.0
H  H15  1  0.77959823  0.47144443  0.10604978  1  0.118771  -0.000165  0.967523  -0.001  0.130626  9.5e-05  1.043913  0.0  0.131287  0.000182  1.043814  0.0  0.092534  0.12994  2.8e-05  1.0444  0.0
H  H16  1  0.07130345  0.66253780  0.47432909  1  0.110925  0.000187  0.94654  0.0  0.126354  0.00014  1.01594  0.0  0.127065  0.000147  1.016305  0.0  0.087289  0.12573  0.000105  1.015891  0.0
H  H17  1  0.57129246  0.83746256  0.02566486  1  0.110883  -0.00019  0.94667  0.0  0.126337  -0.00014  1.016022  0.0  0.127048  -0.000147  1.016385  0.0  0.087265  0.125716  -0.000105  1.015972  0.0
H  H18  1  0.92869335  0.33746481  0.52566569  1  0.110887  -0.000189  0.946624  0.0  0.12636  -0.000139  1.015951  0.0  0.127074  -0.000147  1.016308  0.0  0.087293  0.125738  -0.000105  1.015902  0.0
H  H19  1  0.42867608  0.16254410  0.97433065  1  0.110821  0.000188  0.946717  0.0  0.126272  0.000139  1.016076  0.0  0.126986  0.000147  1.016438  0.0  0.087269  0.125646  0.000105  1.016025  0.0
H  H20  1  0.96828640  0.69866671  0.63091778  1  0.124257  0.000271  0.952603  0.0  0.145626  0.000194  1.010402  0.0  0.148073  0.000131  1.00938  0.0  0.093832  0.143787  0.000181  1.011029  0.0
H  H21  1  0.46827799  0.80133434  0.86907754  1  0.12423  -0.000271  0.952612  0.0  0.145584  -0.000194  1.010438  0.0  0.148032  -0.000131  1.009416  0.0  0.093796  0.143746  -0.000182  1.011063  0.0
H  H22  1  0.03173368  0.30133994  0.36907773  1  0.124215  -0.000273  0.952608  0.0  0.145593  -0.000194  1.010402  0.0  0.14804  -0.000131  1.009378  0.0  0.093802  0.143755  -0.000181  1.01103  0.0
H  H23  1  0.53170385  0.19866624  0.13091596  1  0.12427  0.000271  0.95262  0.0  0.145645  0.000193  1.010393  0.0  0.14809  0.000131  1.00937  0.0  0.093866  0.143799  0.000181  1.01103  0.0
H  H24  1  0.08302774  0.83091003  0.56437485  1  0.132284  -0.000546  0.960825  -0.001  0.149244  -0.000342  1.024649  -0.001  0.150627  -0.000235  1.025287  0.0  0.096562  0.147948  -0.000325  1.024615  -0.001
H  H25  1  0.58301766  0.66908955  0.93562304  1  0.132307  0.000549  0.960732  0.001  0.149276  0.000342  1.024541  0.001  0.150655  0.000235  1.025181  0.0  0.096564  0.147981  0.000325  1.024509  0.001
H  H26  1  0.91699899  0.16908957  0.43562121  1  0.132326  0.000545  0.960669  0.001  0.149271  0.000343  1.024535  0.001  0.150632  0.000235  1.025195  0.0  0.096596  0.147986  0.000325  1.024492  0.001
H  H27  1  0.41697249  0.33092320  0.06437630  1  0.132181  -0.000545  0.960775  -0.001  0.149105  -0.000343  1.024665  -0.001  0.150492  -0.000235  1.025298  0.0  0.096503  0.147809  -0.000326  1.024631  -0.001
C  C28  1  0.56855160  0.55928247  0.53487727  1  0.409792  0.003481  3.92666  0.002  0.384021  0.00111  4.203704  0.001  0.413269  0.002303  4.212645  0.003  0.215185  0.362525  0.000259  4.199141  0.0
C  C29  1  0.06853011  0.94071216  0.96512339  1  0.409553  -0.003485  3.926962  -0.002  0.383737  -0.001111  4.20399  -0.001  0.412985  -0.002306  4.212935  -0.003  0.21504  0.362243  -0.000263  4.19942  0.0
C  C30  1  0.43144354  0.44073553  0.46513853  1  0.409362  -0.003484  3.926697  -0.002  0.383656  -0.00111  4.203638  -0.001  0.4129  -0.002307  4.212587  -0.003  0.214978  0.362169  -0.000263  4.199068  0.0
C  C31  1  0.93141515  0.05925903  0.03485845  1  0.409311  0.003476  3.926883  0.002  0.38366  0.001109  4.203765  0.001  0.4129  0.002304  4.212716  0.003  0.215003  0.362174  0.000259  4.199191  0.0
C  C32  1  0.75286915  0.76769037  0.49820422  1  0.232735  0.001917  3.60864  0.004  0.255316  0.000544  3.835277  0.002  0.259132  0.000518  3.851447  0.003  0.085139  0.252566  0.000586  3.824502  0.002
C  C33  1  0.25286029  0.73230732  0.00179559  1  0.232823  -0.001913  3.608557  -0.004  0.255311  -0.000541  3.835234  -0.002  0.259129  -0.000518  3.85139  -0.003  0.085055  0.252557  -0.000584  3.824471  -0.002
C  C34  1  0.24713597  0.23231747  0.50180610  1  0.232937  -0.00191  3.608841  -0.004  0.255354  -0.00054  3.835552  -0.002  0.259175  -0.000516  3.851704  -0.003  0.085146  0.252602  -0.000583  3.824788  -0.002
C  C35  1  0.74711656  0.26768715  0.99819316  1  0.232802  0.001911  3.608707  0.004  0.255245  0.000541  3.835417  0.002  0.259066  0.000517  3.851575  0.003  0.085168  0.252498  0.000584  3.824643  0.002
C  C36  1  0.78348540  0.81657912  0.37489079  1  0.615333  0.000299  3.74152  0.0  0.578621  -0.00075  4.026102  -0.002  0.61584  -0.000766  4.023393  -0.002  0.221725  0.552927  -0.000476  4.026978  -0.001
C  C37  1  0.28346516  0.68343058  0.12511025  1  0.615432  -0.000296  3.741152  0.0  0.578815  0.000747  4.025644  0.002  0.616036  0.000764  4.02293  0.002  0.221851  0.553116  0.000474  4.026526  0.001
C  C38  1  0.21654632  0.18344785  0.62511658  1  0.615311  -0.000301  3.741215  0.0  0.578844  0.000746  4.025478  0.002  0.616062  0.000763  4.022765  0.002  0.221784  0.553145  0.000473  4.026358  0.001
C  C39  1  0.71652499  0.31656604  0.87488893  1  0.615405  0.000305  3.741252  0.0  0.578787  -0.000746  4.02574  -0.002  0.615998  -0.000762  4.023038  -0.002  0.221749  0.553087  -0.000472  4.026622  -0.001
C  C40  1  0.98508257  0.73770272  0.54515905  1  -0.35185  -0.001215  3.60341  -0.001  -0.431818  -0.000726  3.832574  -0.001  -0.434953  -0.000637  3.841786  -0.001  -0.243509  -0.429523  -0.000546  3.826765  -0.001
C  C41  1  0.48506607  0.76229629  0.95483954  1  -0.351831  0.001214  3.603415  0.001  -0.431815  0.000726  3.832643  0.001  -0.434953  0.000637  3.841864  0.001  -0.243427  -0.429517  0.000547  3.826838  0.001
C  C42  1  0.01493585  0.26230501  0.45484212  1  -0.351842  0.001226  3.603253  0.001  -0.43182  0.000727  3.832462  0.001  -0.434943  0.000637  3.841693  0.001  -0.243478  -0.429533  0.000547  3.826652  0.001
C  C43  1  0.51491411  0.23770131  0.04515799  1  -0.35166  -0.001214  3.603329  -0.001  -0.431598  -0.000725  3.832555  -0.001  -0.434735  -0.000637  3.841758  -0.001  -0.243449  -0.429297  -0.000546  3.826754  -0.001
C  C44  1  0.62901305  0.87572425  0.59309449  1  -0.349631  -0.001329  3.611354  -0.002  -0.431668  -0.000577  3.845414  -0.001  -0.434476  -0.000464  3.85437  -0.001  -0.238691  -0.429599  -0.000514  3.839766  -0.001
C  C45  1  0.12901286  0.62427218  0.90690739  1  -0.349564  0.001332  3.611293  0.002  -0.431575  0.000577  3.845383  0.001  -0.434383  0.000463  3.854334  0.001  -0.238674  -0.429506  0.000514  3.83974  0.001
C  C46  1  0.37101535  0.12429782  0.40692387  1  -0.349708  0.00133  3.61141  0.002  -0.431753  0.000578  3.845512  0.001  -0.434558  0.000463  3.85447  0.001  -0.238674  -0.42969  0.000514  3.839851  0.001
C  C47  1  0.87099060  0.37570718  0.09308230  1  -0.349768  -0.001335  3.611422  -0.002  -0.431711  -0.000577  3.845431  -0.001  -0.43453  -0.000463  3.854377  -0.001  -0.238685  -0.429639  -0.000513  3.839781  -0.001
N  N48  1  0.62024863  0.64427228  0.46426960  1  -0.496404  -0.089896  3.273316  -0.113  -0.472867  -0.065427  3.589502  -0.086  -0.520123  -0.058176  3.610192  -0.08  -0.398821  -0.440103  -0.054497  3.576782  -0.07
N  N49  1  0.12023192  0.85572191  0.03573053  1  -0.496502  0.089905  3.273417  0.113  -0.472881  0.065432  3.589575  0.086  -0.520142  0.058184  3.610261  0.08  -0.398824  -0.440122  0.054507  3.57686  0.07
N  N50  1  0.37973820  0.35574064  0.53574346  1  -0.496402  0.089916  3.273187  0.113  -0.472849  0.065436  3.589368  0.086  -0.520116  0.058186  3.610073  0.08  -0.398884  -0.440096  0.054511  3.576657  0.07
N  N51  1  0.87972165  0.14425237  0.96425643  1  -0.496146  -0.089892  3.273142  -0.113  -0.47259  -0.06542  3.589262  -0.086  -0.519839  -0.058172  3.60995  -0.08  -0.398789  -0.439832  -0.054493  3.576536  -0.07
O  O52  1  0.89664948  0.92242206  0.37401537  1  -0.550668  0.029395  2.074173  0.039  -0.508292  0.024135  2.337623  0.034  -0.549587  0.022916  2.328754  0.034  -0.305376  -0.47857  0.019226  2.343357  0.027
O  O53  1  0.39663354  0.57757109  0.12598906  1  -0.550778  -0.029412  2.073619  -0.039  -0.508464  -0.02414  2.337031  -0.034  -0.549767  -0.02292  2.32817  -0.034  -0.30549  -0.478734  -0.019229  2.342761  -0.027
O  O54  1  0.10337559  0.07757673  0.62599698  1  -0.550798  -0.029421  2.07345  -0.039  -0.508481  -0.024145  2.336736  -0.034  -0.549789  -0.022924  2.327873  -0.034  -0.305441  -0.47875  -0.019233  2.342466  -0.027
O  O55  1  0.60337158  0.42242549  0.87400737  1  -0.550806  0.029399  2.07387  0.039  -0.50842  0.024137  2.337185  0.034  -0.549722  0.022918  2.328332  0.034  -0.305451  -0.478697  0.019228  2.342926  0.027
O  O56  1  0.61769665  0.56507413  0.64997079  1  -0.520038  0.057178  2.033331  0.077  -0.497225  0.048689  2.297236  0.071  -0.541013  0.041752  2.290534  0.064  -0.304762  -0.463784  0.04167  2.301504  0.059
O  O57  1  0.11768371  0.93491320  0.85002581  1  -0.519855  -0.057167  2.033433  -0.077  -0.497032  -0.048687  2.297332  -0.071  -0.540813  -0.04175  2.29063  -0.064  -0.304666  -0.463587  -0.041662  2.301587  -0.059
O  O58  1  0.38228852  0.43493678  0.35004282  1  -0.519948  -0.057167  2.033342  -0.077  -0.497123  -0.048689  2.297157  -0.071  -0.540901  -0.041752  2.290455  -0.064  -0.304681  -0.463676  -0.041662  2.301414  -0.059
O  O59  1  0.88225989  0.06505593  0.14995292  1  -0.519985  0.057182  2.033206  0.077  -0.497171  0.048694  2.297027  0.071  -0.540953  0.041754  2.290321  0.064  -0.304722  -0.46373  0.041673  2.30129  0.059
O  O60  1  0.70230267  0.74686826  0.27362516  1  -0.592731  -0.069212  2.086488  -0.093  -0.565568  -0.054527  2.368561  -0.079  -0.610413  -0.045631  2.356971  -0.069  -0.31905  -0.535742  -0.049193  2.377508  -0.07
O  O61  1  0.20229327  0.75313166  0.22637507  1  -0.592696  0.069203  2.0867  0.093  -0.565544  0.054527  2.368736  0.079  -0.610387  0.045633  2.357143  0.069  -0.319021  -0.535723  0.049193  2.377688  0.07
O  O62  1  0.29771741  0.25313946  0.72637511  1  -0.592687  0.069193  2.086908  0.093  -0.565624  0.054522  2.368928  0.079  -0.610465  0.045629  2.357335  0.069  -0.319052  -0.535811  0.049188  2.377884  0.07
O  O63  1  0.79770852  0.24686391  0.77362119  1  -0.592756  -0.069221  2.08651  -0.093  -0.565645  -0.054536  2.368569  -0.079  -0.610488  -0.045639  2.356982  -0.069  -0.319031  -0.535821  -0.049203  2.377515  -0.07
