# generated using pymatgen
data_Tb2CoH32(C4O5)4
_symmetry_space_group_name_H-M   'P 1'
_cell_length_a   8.02999591
_cell_length_b   9.73433783
_cell_length_c   11.23883271
_cell_angle_alpha   111.74530558
_cell_angle_beta   105.66250395
_cell_angle_gamma   92.52690078
_symmetry_Int_Tables_number   1
_chemical_formula_structural   Tb2CoH32(C4O5)4
_chemical_formula_sum   'Tb2 Co1 H32 C16 O20'
_cell_volume   775.42277147
_cell_formula_units_Z   1
loop_
 _symmetry_equiv_pos_site_id
 _symmetry_equiv_pos_as_xyz
  1  'x, y, z'
loop_
 _atom_site_type_symbol
 _atom_site_label
 _atom_site_symmetry_multiplicity
 _atom_site_fract_x
 _atom_site_fract_y
 _atom_site_fract_z
 _atom_site_occupancy
 _atom_site_hse06_10hf_ddec_charge
 _atom_site_hse06_10hf_ddec_spin_density
 _atom_site_hse06_10hf_ddec_sum_bond_order
 _atom_site_hse06_10hf_magmom
 _atom_site_hse06_ddec_charge
 _atom_site_hse06_ddec_spin_density
 _atom_site_hse06_ddec_sum_bond_order
 _atom_site_hse06_magmom
 _atom_site_pbe_cm5_charge
 _atom_site_pbe_ddec_charge
 _atom_site_pbe_ddec_spin_density
 _atom_site_pbe_ddec_sum_bond_order
 _atom_site_pbe_magmom
Tb  Tb0  1  0.89990851  0.06484330  0.66006602  1  2.09315  -0.000362  2.121206  0.0  2.217392  -0.000329  1.937576  0.0  1.505288  2.055826  -0.000493  2.154668  0.0
Tb  Tb1  1  0.10009467  0.93515147  0.33992880  1  2.093163  -0.000362  2.121211  0.0  2.217397  -0.00033  1.937587  0.0  1.505268  2.055842  -0.000493  2.154669  0.0
Co  Co2  1  0.99999519  0.00000275  0.00000197  1  0.98821  1.027721  2.595686  0.975  1.082466  1.015693  2.501909  0.967  0.606234  0.920276  1.029261  2.670706  0.973
H  H3  1  0.57804408  0.98519659  0.93304956  1  0.169311  -0.000151  1.020042  0.0  0.172348  -0.00013  1.019006  0.0  0.105827  0.167039  -0.000154  1.020819  0.0
H  H4  1  0.42194633  0.01481647  0.06694494  1  0.169271  -0.000151  1.020233  0.0  0.172308  -0.000129  1.019195  0.0  0.105815  0.166999  -0.000154  1.021011  0.0
H  H5  1  0.40593019  0.04730950  0.83282783  1  0.1612  -7.5e-05  1.020243  0.0  0.164174  -6e-05  1.019166  0.0  0.100833  0.159145  -9.3e-05  1.020832  0.0
H  H6  1  0.59406184  0.95269797  0.16715897  1  0.161169  -7.4e-05  1.020295  0.0  0.16414  -6e-05  1.019221  0.0  0.100803  0.159117  -9.3e-05  1.020887  0.0
H  H7  1  0.58330977  0.17768713  0.96723452  1  0.166929  -0.000111  0.981081  0.0  0.169198  -7.6e-05  0.980573  0.0  0.10758  0.165189  -0.000174  0.981423  0.0
H  H8  1  0.41667799  0.82232490  0.03275464  1  0.166856  -0.000111  0.981177  0.0  0.169123  -7.6e-05  0.98067  0.0  0.107517  0.165115  -0.000174  0.981518  0.0
H  H9  1  0.28940349  0.69559194  0.67008396  1  0.162459  -2.3e-05  0.985677  0.0  0.164993  6.3e-05  0.984342  0.0  0.103362  0.160557  -0.000231  0.986555  0.0
H  H10  1  0.71061931  0.30442019  0.32994553  1  0.162433  -2.3e-05  0.985849  0.0  0.164967  6.3e-05  0.984514  0.0  0.103348  0.160532  -0.000231  0.986725  0.0
H  H11  1  0.06693445  0.60962763  0.60451114  1  0.151775  -0.000458  0.994936  0.0  0.154382  -0.000323  0.993706  0.0  0.100345  0.150036  -0.000458  0.995441  0.0
H  H12  1  0.93309886  0.39037093  0.39550282  1  0.151827  -0.000458  0.994668  0.0  0.154435  -0.000323  0.993438  0.0  0.10041  0.150088  -0.000458  0.995175  0.0
H  H13  1  0.19817670  0.61371338  0.76249955  1  0.145804  -3.1e-05  1.021295  0.0  0.148364  -4.5e-05  1.020071  0.0  0.095561  0.143696  -1.3e-05  1.022676  0.0
H  H14  1  0.80183696  0.38629112  0.23751843  1  0.145883  -3.1e-05  1.021189  0.0  0.14844  -4.5e-05  1.019973  0.0  0.095574  0.143771  -1.3e-05  1.022568  0.0
H  H15  1  0.27874053  0.38138974  0.76896363  1  0.145313  5e-06  1.034173  0.0  0.148579  4e-06  1.031984  0.0  0.095764  0.142765  5e-06  1.036003  0.0
H  H16  1  0.72126373  0.61860390  0.23103016  1  0.145322  5e-06  1.034145  0.0  0.148587  4e-06  1.031953  0.0  0.095754  0.14277  5e-06  1.035976  0.0
H  H17  1  0.39251703  0.43498616  0.66942071  1  0.155253  1.4e-05  0.997276  0.0  0.157476  1.2e-05  0.996428  0.0  0.100134  0.153642  1e-05  0.997775  0.0
H  H18  1  0.60748700  0.56501307  0.33057841  1  0.155193  1.4e-05  0.997372  0.0  0.157414  1.2e-05  0.996529  0.0  0.100102  0.153582  1e-05  0.997869  0.0
H  H19  1  0.46042391  0.29648053  0.73031799  1  0.180882  9e-06  0.985395  0.0  0.183952  7e-06  0.984239  0.0  0.111613  0.178763  1.9e-05  0.985881  0.0
H  H20  1  0.53958103  0.70351646  0.26967792  1  0.180907  9e-06  0.985379  0.0  0.183975  7e-06  0.984222  0.0  0.111631  0.178786  1.9e-05  0.985866  0.0
H  H21  1  0.39500853  0.41649788  0.99064460  1  0.138195  -0.000121  1.036392  0.0  0.139349  -3e-05  1.037096  0.0  0.091489  0.137522  -0.000205  1.035565  0.0
H  H22  1  0.60497325  0.58350628  0.00935232  1  0.138208  -0.000121  1.036484  0.0  0.139361  -2.9e-05  1.037191  0.0  0.091509  0.137536  -0.000205  1.035654  0.0
H  H23  1  0.44466176  0.35222743  0.12533297  1  0.14417  -0.000123  1.017268  0.0  0.146092  -0.000124  1.016932  0.0  0.094246  0.142742  -8.8e-05  1.01753  0.0
H  H24  1  0.55533268  0.64776865  0.87465954  1  0.144211  -0.000123  1.017277  0.0  0.146133  -0.000124  1.016945  0.0  0.094294  0.14278  -8.8e-05  1.017542  0.0
H  H25  1  0.28497104  0.47101564  0.11450358  1  0.163761  -0.000179  1.002188  0.0  0.166735  -0.000102  1.000497  0.0  0.100402  0.161719  -0.000249  1.00315  0.0
H  H26  1  0.71501926  0.52898150  0.88550176  1  0.163771  -0.000179  1.002179  0.0  0.166745  -0.000101  1.000487  0.0  0.10042  0.161726  -0.000249  1.003145  0.0
H  H27  1  0.76537670  0.30773951  0.62247781  1  0.417383  -3e-06  0.885228  0.0  0.427435  -3e-06  0.870638  0.0  0.318328  0.410097  1e-06  0.896063  0.0
H  H28  1  0.23462165  0.69226428  0.37752692  1  0.417373  -3e-06  0.885261  0.0  0.427424  -3e-06  0.870674  0.0  0.318331  0.410089  1e-06  0.896092  0.0
H  H29  1  0.93147361  0.39804685  0.74968554  1  0.422778  -1e-06  0.861144  0.0  0.431319  0.0  0.84902  0.0  0.334876  0.416334  -1.5e-05  0.86896  0.0
H  H30  1  0.06852605  0.60195126  0.25031941  1  0.422748  -1e-06  0.861204  0.0  0.43129  0.0  0.849077  0.0  0.334847  0.416302  -1.5e-05  0.869081  0.0
H  H31  1  0.59804631  0.05072811  0.41820610  1  0.41896  7.9e-05  0.902827  0.0  0.430253  5.3e-05  0.886698  0.0  0.304269  0.41122  0.000105  0.914002  0.0
H  H32  1  0.40195261  0.94927122  0.58179108  1  0.418995  7.9e-05  0.902789  0.0  0.43029  5.3e-05  0.886657  0.0  0.304287  0.411255  0.000105  0.913965  0.0
H  H33  1  0.77907545  0.10423837  0.40127809  1  0.392713  0.0  0.950246  0.0  0.403477  1e-06  0.935083  0.0  0.297186  0.384973  -0.0  0.961442  0.0
H  H34  1  0.22092400  0.89575757  0.59871900  1  0.392755  0.0  0.950193  0.0  0.40352  0.0  0.935029  0.0  0.297191  0.385014  -0.0  0.961393  0.0
C  C35  1  0.65622840  0.05461395  0.79614763  1  0.729923  0.000161  4.082939  0.001  0.765002  0.000422  4.079388  0.002  0.211335  0.704517  -0.000782  4.090036  0.001
C  C36  1  0.34376816  0.94539220  0.20384948  1  0.729887  0.000161  4.083062  0.001  0.764964  0.000422  4.079518  0.002  0.211415  0.704481  -0.000781  4.090153  0.001
C  C37  1  0.54603686  0.06495918  0.88602197  1  -0.528908  -0.000506  3.852507  0.0  -0.535983  -0.000451  3.852843  0.0  -0.243167  -0.523309  -0.000531  3.851759  0.0
C  C38  1  0.45395689  0.93505050  0.11396680  1  -0.528698  -0.000506  3.852658  0.0  -0.535767  -0.000452  3.852994  0.0  -0.243078  -0.52311  -0.000531  3.851914  0.0
C  C39  1  0.11511900  0.82306021  0.76790046  1  0.740931  -0.004216  4.068744  -0.002  0.780192  -0.001567  4.060884  0.0  0.233219  0.712561  -0.007853  4.075458  -0.005
C  C40  1  0.88488787  0.17693550  0.23210613  1  0.740996  -0.004218  4.068629  -0.002  0.780258  -0.001567  4.060765  0.0  0.233243  0.712622  -0.007855  4.075345  -0.005
C  C41  1  0.19720075  0.24454240  0.97145337  1  0.745312  -0.001641  4.086151  0.001  0.784526  -4e-06  4.077754  0.002  0.226258  0.71783  -0.004149  4.092075  -0.002
C  C42  1  0.80279269  0.75545025  0.02854496  1  0.745332  -0.00164  4.086178  0.001  0.784551  -3e-06  4.077767  0.002  0.226141  0.71785  -0.004147  4.092098  -0.002
C  C43  1  0.17237950  0.67646372  0.69825040  1  -0.530586  -0.000594  3.894591  0.0  -0.538278  -0.000335  3.895824  0.0  -0.2414  -0.52436  -0.000806  3.893146  0.0
C  C44  1  0.82763538  0.32354075  0.30176960  1  -0.530762  -0.000594  3.894371  0.0  -0.538453  -0.000337  3.895606  0.0  -0.241495  -0.524529  -0.000806  3.892923  0.0
C  C45  1  0.34529752  0.34317882  0.69210897  1  -0.536279  1.5e-05  3.879088  0.0  -0.543222  1.3e-05  3.879649  0.0  -0.242047  -0.530764  3.6e-05  3.877543  0.0
C  C46  1  0.65470593  0.65681708  0.30788538  1  -0.536228  1.5e-05  3.879159  0.0  -0.543169  1.3e-05  3.879726  0.0  -0.242006  -0.530707  3.6e-05  3.87761  0.0
C  C47  1  0.23078446  0.21948957  0.56561675  1  0.749036  -1e-05  4.113932  0.0  0.78309  -8e-06  4.111  0.0  0.20986  0.725833  -1.3e-05  4.120082  0.0
C  C48  1  0.76921950  0.78050858  0.43437756  1  0.749082  -1e-05  4.113784  0.0  0.783136  -9e-06  4.11085  0.0  0.20989  0.725878  -1.3e-05  4.119935  0.0
C  C49  1  0.34093801  0.37851745  0.05495043  1  -0.530446  -0.001038  3.899263  0.0  -0.538494  -0.000541  3.902336  0.0  -0.245312  -0.524036  -0.001354  3.896018  -0.001
C  C50  1  0.65905016  0.62148092  0.94504952  1  -0.530471  -0.001039  3.899395  0.0  -0.538525  -0.000544  3.902472  0.0  -0.245375  -0.524057  -0.001354  3.896151  -0.001
O  O51  1  0.09733986  0.14239856  0.56830312  1  -0.798136  -2.5e-05  2.36189  0.0  -0.84269  -6e-06  2.349197  0.0  -0.44864  -0.778926  -2e-06  2.368533  0.0
O  O52  1  0.90266265  0.85759852  0.43168875  1  -0.798095  -2.5e-05  2.361792  0.0  -0.842649  -7e-06  2.349102  0.0  -0.448627  -0.778885  -2e-06  2.368436  0.0
O  O53  1  0.81665363  0.03832275  0.83420438  1  -0.679131  0.018827  2.437701  0.03  -0.718638  0.016397  2.421765  0.025  -0.383334  -0.656817  0.021241  2.449043  0.034
O  O54  1  0.18334555  0.96169008  0.16579812  1  -0.679202  0.018828  2.437804  0.03  -0.718707  0.016397  2.421862  0.025  -0.383404  -0.656888  0.021241  2.449143  0.034
O  O55  1  0.26962775  0.18481000  0.45752644  1  -0.636433  -4.1e-05  2.127986  0.0  -0.667529  -3.8e-05  2.116676  0.0  -0.377249  -0.620216  -3.6e-05  2.134019  0.0
O  O56  1  0.73037625  0.81518816  0.54246698  1  -0.636516  -4.1e-05  2.12791  0.0  -0.667612  -3.8e-05  2.116598  0.0  -0.377319  -0.6203  -3.6e-05  2.133945  0.0
O  O57  1  0.10831610  0.91874926  0.71322054  1  -0.712832  -0.001833  2.339162  -0.001  -0.749774  -0.001236  2.325068  -0.001  -0.399292  -0.693823  -0.002351  2.347339  -0.002
O  O58  1  0.89167947  0.08124216  0.28678317  1  -0.712865  -0.001833  2.339013  -0.001  -0.749801  -0.001238  2.324906  -0.001  -0.399317  -0.693873  -0.002351  2.347218  -0.002
O  O59  1  0.59610089  0.06614096  0.68283227  1  -0.640339  0.001604  2.172156  0.003  -0.673078  0.00118  2.162546  0.002  -0.353829  -0.622131  0.001928  2.17837  0.004
O  O60  1  0.40390505  0.93385946  0.31715784  1  -0.640313  0.001604  2.172335  0.003  -0.673049  0.00118  2.162727  0.002  -0.353833  -0.622105  0.001928  2.178546  0.004
O  O61  1  0.18452105  0.15152821  0.02521789  1  -0.567074  -0.01548  2.397222  -0.012  -0.610115  -0.013665  2.384672  -0.011  -0.29708  -0.535135  -0.011939  2.404747  -0.009
O  O62  1  0.81546105  0.84847249  0.97478422  1  -0.567093  -0.015482  2.397144  -0.012  -0.61013  -0.013667  2.38457  -0.011  -0.29699  -0.535152  -0.011942  2.404669  -0.009
O  O63  1  0.10155598  0.23761397  0.85809743  1  -0.710422  -0.001554  2.278206  -0.001  -0.748145  -0.001191  2.263779  -0.001  -0.413716  -0.69081  -0.001737  2.285549  -0.001
O  O64  1  0.89844990  0.76237513  0.14189524  1  -0.710444  -0.001553  2.278129  -0.001  -0.74817  -0.001191  2.263695  -0.001  -0.413634  -0.690831  -0.001736  2.28547  -0.001
O  O65  1  0.07742999  0.83935525  0.87395622  1  -0.540719  -0.006037  2.391355  -0.004  -0.580885  -0.005766  2.378847  -0.004  -0.283799  -0.511187  -0.004303  2.399534  -0.002
O  O66  1  0.92255912  0.16064194  0.12604622  1  -0.540655  -0.006034  2.391421  -0.004  -0.580822  -0.005763  2.378911  -0.004  -0.283793  -0.511119  -0.004301  2.399593  -0.002
O  O67  1  0.82553456  0.32509709  0.71671427  1  -0.804985  -7.6e-05  2.017473  0.0  -0.830627  -4.3e-05  1.983724  0.0  -0.598491  -0.792391  -9.1e-05  2.036452  0.0
O  O68  1  0.17446726  0.67489875  0.28328863  1  -0.804961  -7.6e-05  2.017603  0.0  -0.8306  -4.2e-05  1.983853  0.0  -0.598481  -0.792369  -9.1e-05  2.036643  0.0
O  O69  1  0.71625764  0.11415111  0.46912205  1  -0.873086  0.000112  2.060325  0.0  -0.902136  7.7e-05  2.022949  0.0  -0.623544  -0.858259  0.000142  2.083118  0.0
O  O70  1  0.28374232  0.88584708  0.53087498  1  -0.873154  0.000112  2.06028  0.0  -0.902202  7.7e-05  2.0229  0.0  -0.623546  -0.858328  0.000142  2.083075  0.0
