# generated using pymatgen
data_LiH6C3O5
_symmetry_space_group_name_H-M   'P 1'
_cell_length_a   4.62536256
_cell_length_b   5.24643884
_cell_length_c   19.91914015
_cell_angle_alpha   89.99903858
_cell_angle_beta   89.99905778
_cell_angle_gamma   96.57297203
_symmetry_Int_Tables_number   1
_chemical_formula_structural   LiH6C3O5
_chemical_formula_sum   'Li4 H24 C12 O20'
_cell_volume   480.19417436
_cell_formula_units_Z   4
loop_
 _symmetry_equiv_pos_site_id
 _symmetry_equiv_pos_as_xyz
  1  'x, y, z'
loop_
 _atom_site_type_symbol
 _atom_site_label
 _atom_site_symmetry_multiplicity
 _atom_site_fract_x
 _atom_site_fract_y
 _atom_site_fract_z
 _atom_site_occupancy
 _atom_site_hle17_bader_spin_density
 _atom_site_hle17_ddec_charge
 _atom_site_hle17_ddec_spin_density
 _atom_site_hle17_ddec_sum_bond_order
 _atom_site_hle17_magmom
 _atom_site_hse06_10hf_bader_spin_density
 _atom_site_hse06_10hf_ddec_charge
 _atom_site_hse06_10hf_ddec_spin_density
 _atom_site_hse06_10hf_ddec_sum_bond_order
 _atom_site_hse06_10hf_magmom
 _atom_site_hse06_bader_spin_density
 _atom_site_hse06_ddec_charge
 _atom_site_hse06_ddec_spin_density
 _atom_site_hse06_ddec_sum_bond_order
 _atom_site_hse06_magmom
 _atom_site_pbe_bader_spin_density
 _atom_site_pbe_cm5_charge
 _atom_site_pbe_ddec_charge
 _atom_site_pbe_ddec_spin_density
 _atom_site_pbe_ddec_sum_bond_order
 _atom_site_pbe_magmom
Li  Li0  1  0.34970874  0.66973134  0.78285964  1  0  0.864184  0  0.364976  0  0  0.828534  0  0.458852  0  0  0.836931  0  0.444297  0  0  0.489235  0.822408  0  0.4693  0
Li  Li1  1  0.65028580  0.83026620  0.28286442  1  0  0.864206  0  0.364967  0  0  0.828546  0  0.458861  0  0  0.836923  0  0.444327  0  0  0.489243  0.822421  0  0.46931  0
Li  Li2  1  0.65029559  0.33026645  0.21714095  1  0  0.86421  0  0.364943  0  0  0.828571  0  0.458784  0  0  0.836965  0  0.444234  0  0  0.489241  0.822447  0  0.46923  0
Li  Li3  1  0.34970723  0.16972773  0.71713668  1  0  0.86422  0  0.364938  0  0  0.828579  0  0.458794  0  0  0.836961  0  0.444256  0  0  0.489246  0.822449  0  0.46924  0
H  H4  1  0.98498667  0.01189676  0.81804363  1  0  0.432234  0  0.871064  0  0  0.404672  0  0.928151  0  0  0.415337  0  0.912671  0  0  0.305578  0.397161  0  0.93906  0
H  H5  1  0.01500092  0.48810333  0.31804793  1  0  0.432228  0  0.871061  0  0  0.404635  0  0.928197  0  0  0.415304  0  0.91271  0  0  0.305549  0.397123  0  0.939107  0
H  H6  1  0.01500011  0.98809908  0.18195696  1  0  0.432223  0  0.871086  0  0  0.404748  0  0.928068  0  0  0.415412  0  0.912581  0  0  0.305591  0.39723  0  0.938987  0
H  H7  1  0.98500846  0.51190023  0.68195166  1  0  0.432218  0  0.871069  0  0  0.404661  0  0.928154  0  0  0.41533  0  0.912668  0  0  0.305575  0.397147  0  0.939065  0
H  H8  1  0.92901390  0.89377917  0.74779411  1  0  0.423489  0  0.885553  0  0  0.394871  0  0.947689  0  0  0.405711  0  0.931453  0  0  0.310146  0.387188  0  0.959212  0
H  H9  1  0.07097891  0.60621815  0.24779790  1  0  0.423337  0  0.885767  0  0  0.394749  0  0.947847  0  0  0.405589  0  0.931613  0  0  0.310087  0.387068  0  0.959369  0
H  H10  1  0.07098080  0.10621093  0.25220648  1  0  0.42338  0  0.885691  0  0  0.394839  0  0.947722  0  0  0.405678  0  0.931488  0  0  0.310125  0.38716  0  0.959242  0
H  H11  1  0.92901991  0.39378730  0.75220319  1  0  0.423309  0  0.885784  0  0  0.394739  0  0.947847  0  0  0.405581  0  0.93161  0  0  0.3101  0.387059  0  0.959369  0
H  H12  1  0.09882918  0.61478536  0.90710777  1  0  0.379558  0  0.905356  0  0  0.356304  0  0.972711  0  0  0.366336  0  0.961654  0  0  0.305837  0.349189  0  0.980573  0
H  H13  1  0.90118292  0.88523428  0.40710694  1  0  0.37962  0  0.905286  0  0  0.356341  0  0.972671  0  0  0.366374  0  0.96161  0  0  0.305867  0.349226  0  0.980537  0
H  H14  1  0.90115687  0.38520472  0.09289233  1  0  0.37956  0  0.905315  0  0  0.35635  0  0.972637  0  0  0.366389  0  0.961564  0  0  0.305851  0.349232  0  0.980511  0
H  H15  1  0.09883153  0.11477504  0.59289265  1  0  0.379585  0  0.905258  0  0  0.356318  0  0.97264  0  0  0.366351  0  0.961583  0  0  0.305871  0.349205  0  0.980494  0
H  H16  1  0.71470228  0.81496823  0.92859611  1  0  0.38826  0  0.87673  0  0  0.357085  0  0.960026  0  0  0.368604  0  0.945975  0  0  0.306004  0.348928  0  0.969955  0
H  H17  1  0.28529876  0.68505389  0.42859635  1  0  0.388062  0  0.876999  0  0  0.356935  0  0.960187  0  0  0.368447  0  0.94615  0  0  0.305968  0.348776  0  0.970111  0
H  H18  1  0.28527439  0.18501609  0.07140750  1  0  0.388337  0  0.876787  0  0  0.357105  0  0.960102  0  0  0.368618  0  0.946064  0  0  0.306024  0.348944  0  0.970032  0
H  H19  1  0.71471907  0.31496503  0.57140525  1  0  0.388102  0  0.876992  0  0  0.356972  0  0.960163  0  0  0.368488  0  0.946124  0  0  0.305956  0.348811  0  0.970094  0
H  H20  1  0.24330570  0.22118567  0.92411656  1  0  0.084454  0  0.917762  0  0  0.090853  0  0.980261  0  0  0.093786  0  0.977748  0  0  0.119217  0.0887  0  0.982277  0
H  H21  1  0.75670223  0.27883633  0.42411368  1  0  0.084507  0  0.91769  0  0  0.090891  0  0.980153  0  0  0.093825  0  0.97764  0  0  0.119264  0.088745  0  0.982161  0
H  H22  1  0.75667268  0.77881207  0.07588303  1  0  0.084485  0  0.917669  0  0  0.090876  0  0.980229  0  0  0.093809  0  0.97772  0  0  0.119234  0.088723  0  0.98224  0
H  H23  1  0.24332112  0.72117492  0.57588190  1  0  0.084472  0  0.917707  0  0  0.090904  0  0.980227  0  0  0.093839  0  0.977712  0  0  0.119256  0.08875  0  0.982245  0
H  H24  1  0.71913528  0.30894846  0.98465363  1  0  0.064188  0  0.923395  0  0  0.069765  0  0.992492  0  0  0.071484  0  0.990484  0  0  0.113036  0.068413  0  0.994111  0
H  H25  1  0.28086443  0.19105369  0.48465312  1  0  0.064171  0  0.92338  0  0  0.069788  0  0.992514  0  0  0.071508  0  0.990509  0  0  0.113045  0.068438  0  0.994134  0
H  H26  1  0.28083681  0.69103393  0.01534847  1  0  0.064163  0  0.92338  0  0  0.069768  0  0.992437  0  0  0.071489  0  0.99042  0  0  0.113025  0.068415  0  0.994056  0
H  H27  1  0.71915941  0.80896140  0.51534597  1  0  0.064085  0  0.923436  0  0  0.069665  0  0.992519  0  0  0.071387  0  0.990502  0  0  0.113001  0.068314  0  0.994144  0
C  C28  1  0.60240956  0.27295877  0.85574078  1  0  0.677051  0  3.832459  0  0  0.623572  0  4.139808  0  0  0.656573  0  4.130442  0  0  0.238354  0.601132  0  4.145616  0
C  C29  1  0.39760076  0.22704956  0.35574058  1  0  0.676953  0  3.83249  0  0  0.623494  0  4.139759  0  0  0.656497  0  4.130391  0  0  0.238312  0.601052  0  4.145559  0
C  C30  1  0.39756022  0.72705622  0.14425329  1  0  0.677126  0  3.832699  0  0  0.623734  0  4.139957  0  0  0.656734  0  4.130589  0  0  0.238388  0.601294  0  4.14576  0
C  C31  1  0.60242058  0.77292908  0.64425550  1  0  0.676983  0  3.83224  0  0  0.623593  0  4.139554  0  0  0.656597  0  4.13018  0  0  0.238239  0.601146  0  4.145355  0
C  C32  1  0.40866599  0.37865496  0.90875848  1  0  0.040171  0  3.658095  0  0  0.013504  0  3.916573  0  0  0.013933  0  3.923122  0  0  -0.006508  0.013091  0  3.912071  0
C  C33  1  0.59134514  0.12136719  0.40875909  1  0  0.040084  0  3.658064  0  0  0.013593  0  3.91638  0  0  0.014024  0  3.922928  0  0  -0.00642  0.013174  0  3.911879  0
C  C34  1  0.59131406  0.62133896  0.09124211  1  0  0.040249  0  3.657976  0  0  0.013406  0  3.91672  0  0  0.013825  0  3.923277  0  0  -0.006472  0.012992  0  3.91221  0
C  C35  1  0.40867629  0.87864598  0.59124051  1  0  0.040159  0  3.657866  0  0  0.013275  0  3.916633  0  0  0.013698  0  3.923185  0  0  -0.006517  0.012854  0  3.912129  0
C  C36  1  0.59384257  0.46626267  0.97021596  1  0  0.141652  0  3.600151  0  0  0.105454  0  3.864252  0  0  0.110854  0  3.873792  0  0  -0.010002  0.101811  0  3.857689  0
C  C37  1  0.40616532  0.03374933  0.47021505  1  0  0.14181  0  3.599844  0  0  0.105338  0  3.864305  0  0  0.110722  0  3.873875  0  0  -0.010014  0.101698  0  3.857746  0
C  C38  1  0.40613650  0.53372357  0.02978564  1  0  0.141858  0  3.600032  0  0  0.105822  0  3.864011  0  0  0.111233  0  3.873549  0  0  -0.009893  0.102177  0  3.857446  0
C  C39  1  0.59386166  0.96627344  0.52978254  1  0  0.141958  0  3.59985  0  0  0.105968  0  3.863913  0  0  0.111378  0  3.873456  0  0  -0.009911  0.102321  0  3.857355  0
O  O40  1  0.60940105  0.37402793  0.79744412  1  0  -0.722033  0  2.005169  0  0  -0.669525  0  2.243061  0  0  -0.691396  0  2.229048  0  0  -0.35922  -0.654309  0  2.252412  0
O  O41  1  0.39059179  0.12597937  0.29744788  1  0  -0.721888  0  2.005243  0  0  -0.669397  0  2.243113  0  0  -0.691265  0  2.229103  0  0  -0.359146  -0.654173  0  2.252452  0
O  O42  1  0.39058887  0.62597559  0.20255798  1  0  -0.722305  0  2.004869  0  0  -0.669784  0  2.242684  0  0  -0.69166  0  2.228673  0  0  -0.359295  -0.654574  0  2.252037  0
O  O43  1  0.60940458  0.87400690  0.70255423  1  0  -0.722127  0  2.004951  0  0  -0.669605  0  2.242806  0  0  -0.691478  0  2.228791  0  0  -0.359248  -0.654386  0  2.252149  0
O  O44  1  0.09277071  0.94560754  0.77928241  1  0  -0.967282  0  1.870713  0  0  -0.929226  0  2.058456  0  0  -0.944907  0  2.025068  0  0  -0.696095  -0.918157  0  2.081778  0
O  O45  1  0.90721929  0.55438766  0.27928622  1  0  -0.967111  0  1.87078  0  0  -0.929036  0  2.058517  0  0  -0.944717  0  2.025129  0  0  -0.696008  -0.917959  0  2.081836  0
O  O46  1  0.90721632  0.05439022  0.22071919  1  0  -0.967119  0  1.870838  0  0  -0.929231  0  2.058329  0  0  -0.944904  0  2.024955  0  0  -0.696027  -0.91816  0  2.081651  0
O  O47  1  0.09278503  0.44561013  0.72071388  1  0  -0.967092  0  1.870894  0  0  -0.929065  0  2.058549  0  0  -0.944749  0  2.025162  0  0  -0.696012  -0.918  0  2.08187  0
O  O48  1  0.74643568  0.09335873  0.87396876  1  0  -0.634141  0  2.00669  0  0  -0.576452  0  2.233701  0  0  -0.602102  0  2.222723  0  0  -0.291734  -0.558683  0  2.240935  0
O  O49  1  0.25357281  0.40665746  0.37396599  1  0  -0.634185  0  2.006559  0  0  -0.576542  0  2.233582  0  0  -0.602197  0  2.22261  0  0  -0.291824  -0.55877  0  2.240813  0
O  O50  1  0.25354964  0.90662560  0.12603184  1  0  -0.63412  0  2.007336  0  0  -0.576421  0  2.234245  0  0  -0.602056  0  2.223251  0  0  -0.29177  -0.558663  0  2.241488  0
O  O51  1  0.74644596  0.59335186  0.62602758  1  0  -0.634029  0  2.006709  0  0  -0.576417  0  2.233711  0  0  -0.602067  0  2.222733  0  0  -0.291649  -0.558646  0  2.240938  0
O  O52  1  0.27543808  0.58566564  0.88057361  1  0  -0.616349  0  2.139202  0  0  -0.572803  0  2.372657  0  0  -0.587042  0  2.360899  0  0  -0.443245  -0.562634  0  2.380662  0
O  O53  1  0.72457474  0.91436436  0.38057555  1  0  -0.616405  0  2.139165  0  0  -0.572913  0  2.372633  0  0  -0.58714  0  2.360865  0  0  -0.44332  -0.562731  0  2.380631  0
O  O54  1  0.72455376  0.41433596  0.11942699  1  0  -0.616379  0  2.139134  0  0  -0.572823  0  2.372572  0  0  -0.58706  0  2.360812  0  0  -0.443273  -0.562661  0  2.380578  0
O  O55  1  0.27543322  0.08564495  0.61942655  1  0  -0.616327  0  2.139068  0  0  -0.572731  0  2.372636  0  0  -0.586957  0  2.360872  0  0  -0.443266  -0.562561  0  2.380634  0
O  O56  1  0.80461948  0.67957601  0.95348785  1  0  -0.555504  0  2.077629  0  0  -0.496704  0  2.297721  0  0  -0.514197  0  2.284813  0  0  -0.380643  -0.484335  0  2.306571  0
O  O57  1  0.19538257  0.82044132  0.45348889  1  0  -0.555411  0  2.07773  0  0  -0.496514  0  2.297845  0  0  -0.513996  0  2.284941  0  0  -0.380616  -0.484131  0  2.306689  0
O  O58  1  0.19535959  0.32041023  0.04651274  1  0  -0.5556  0  2.077605  0  0  -0.496874  0  2.297893  0  0  -0.514378  0  2.28499  0  0  -0.380698  -0.484502  0  2.306744  0
O  O59  1  0.80464150  0.17957569  0.54651171  1  0  -0.555493  0  2.077735  0  0  -0.496752  0  2.297845  0  0  -0.514255  0  2.28494  0  0  -0.380637  -0.484375  0  2.306691  0
