# generated using pymatgen
data_SrH6C6(NO3)2
_symmetry_space_group_name_H-M   'P 1'
_cell_length_a   6.94457703
_cell_length_b   10.79271785
_cell_length_c   12.33603347
_cell_angle_alpha   97.88686542
_cell_angle_beta   90.00001830
_cell_angle_gamma   90.00082300
_symmetry_Int_Tables_number   1
_chemical_formula_structural   SrH6C6(NO3)2
_chemical_formula_sum   'Sr4 H24 C24 N8 O24'
_cell_volume   915.85051575
_cell_formula_units_Z   4
loop_
 _symmetry_equiv_pos_site_id
 _symmetry_equiv_pos_as_xyz
  1  'x, y, z'
loop_
 _atom_site_type_symbol
 _atom_site_label
 _atom_site_symmetry_multiplicity
 _atom_site_fract_x
 _atom_site_fract_y
 _atom_site_fract_z
 _atom_site_occupancy
 _atom_site_hle17_bader_spin_density
 _atom_site_hle17_ddec_charge
 _atom_site_hle17_ddec_spin_density
 _atom_site_hle17_ddec_sum_bond_order
 _atom_site_hle17_magmom
 _atom_site_hse06_10hf_bader_spin_density
 _atom_site_hse06_10hf_ddec_charge
 _atom_site_hse06_10hf_ddec_spin_density
 _atom_site_hse06_10hf_ddec_sum_bond_order
 _atom_site_hse06_10hf_magmom
 _atom_site_hse06_bader_spin_density
 _atom_site_hse06_ddec_charge
 _atom_site_hse06_ddec_spin_density
 _atom_site_hse06_ddec_sum_bond_order
 _atom_site_hse06_magmom
 _atom_site_pbe_bader_spin_density
 _atom_site_pbe_cm5_charge
 _atom_site_pbe_ddec_charge
 _atom_site_pbe_ddec_spin_density
 _atom_site_pbe_ddec_sum_bond_order
 _atom_site_pbe_magmom
Sr  Sr0  1  0.82247588  0.44355662  0.63081939  1  0  1.59442  0  1.091787  0  0  1.443809  0  1.459794  0  0  1.482218  0  1.415621  0  0  0.957691  1.415656  0  1.49087  0
Sr  Sr1  1  0.32248433  0.05644402  0.86918124  1  0  1.594418  0  1.09174  0  0  1.443787  0  1.459766  0  0  1.482199  0  1.415583  0  0  0.957655  1.415634  0  1.490847  0
Sr  Sr2  1  0.17751912  0.55644030  0.36917527  1  0  1.594429  0  1.091725  0  0  1.443825  0  1.45971  0  0  1.482239  0  1.415533  0  0  0.957674  1.415675  0  1.490783  0
Sr  Sr3  1  0.67753083  0.94356187  0.13082719  1  0  1.594447  0  1.091757  0  0  1.443729  0  1.459909  0  0  1.482144  0  1.415727  0  0  0.957625  1.415571  0  1.490988  0
H  H4  1  0.69322562  0.61265626  0.09909538  1  0  0.108132  0  0.979504  0  0  0.115614  0  1.039656  0  0  0.119789  0  1.0369  0  0  0.127568  0.112394  0  1.042072  0
H  H5  1  0.19321428  0.88734789  0.40090645  1  0  0.108153  0  0.979381  0  0  0.115555  0  1.039619  0  0  0.119775  0  1.036809  0  0  0.127573  0.112337  0  1.042038  0
H  H6  1  0.30676073  0.38733107  0.90089277  1  0  0.108095  0  0.979331  0  0  0.115503  0  1.039568  0  0  0.119686  0  1.036817  0  0  0.127514  0.112282  0  1.041983  0
H  H7  1  0.80674904  0.11265084  0.59910866  1  0  0.108045  0  0.979436  0  0  0.115498  0  1.039614  0  0  0.11967  0  1.036868  0  0  0.127553  0.112278  0  1.042031  0
H  H8  1  0.73568671  0.63434313  0.89920596  1  0  0.093645  0  0.955915  0  0  0.099286  0  1.021435  0  0  0.103753  0  1.017256  0  0  0.123168  0.09622  0  1.024201  0
H  H9  1  0.23569619  0.86566245  0.60079819  1  0  0.093684  0  0.95574  0  0  0.099318  0  1.021289  0  0  0.103778  0  1.017107  0  0  0.123122  0.096253  0  1.02406  0
H  H10  1  0.26433132  0.36565296  0.10079106  1  0  0.093777  0  0.955735  0  0  0.099402  0  1.021265  0  0  0.103869  0  1.017088  0  0  0.123201  0.096337  0  1.02403  0
H  H11  1  0.76431032  0.13433334  0.39921341  1  0  0.09378  0  0.95579  0  0  0.09939  0  1.021344  0  0  0.103852  0  1.017169  0  0  0.123193  0.096326  0  1.024108  0
H  H12  1  0.17460075  0.57942797  0.79003067  1  0  0.400008  0  0.90094  0  0  0.360259  0  0.986321  0  0  0.371636  0  0.969831  0  0  0.297934  0.352172  0  0.998032  0
H  H13  1  0.67459761  0.92056580  0.70997161  1  0  0.399978  0  0.901076  0  0  0.360238  0  0.986371  0  0  0.371613  0  0.969884  0  0  0.297912  0.352152  0  0.998081  0
H  H14  1  0.82537985  0.42058775  0.20996807  1  0  0.399814  0  0.901153  0  0  0.360081  0  0.98656  0  0  0.371458  0  0.970073  0  0  0.297804  0.351994  0  0.998272  0
H  H15  1  0.32538587  0.07941271  0.29002793  1  0  0.399876  0  0.901137  0  0  0.360138  0  0.9865  0  0  0.371514  0  0.970013  0  0  0.297817  0.35205  0  0.998213  0
H  H16  1  0.06512382  0.69458684  0.76906304  1  0  0.426111  0  0.845713  0  0  0.399686  0  0.914072  0  0  0.409857  0  0.899085  0  0  0.311213  0.392418  0  0.922988  0
H  H17  1  0.56511664  0.80540979  0.73094270  1  0  0.426139  0  0.845614  0  0  0.399659  0  0.914097  0  0  0.409842  0  0.899099  0  0  0.311219  0.392392  0  0.92297  0
H  H18  1  0.93485245  0.30542670  0.23092821  1  0  0.426147  0  0.84564  0  0  0.399668  0  0.914114  0  0  0.409849  0  0.899111  0  0  0.311181  0.392398  0  0.923039  0
H  H19  1  0.43485820  0.19457606  0.26907615  1  0  0.426119  0  0.845654  0  0  0.399637  0  0.91415  0  0  0.409818  0  0.899148  0  0  0.311155  0.392366  0  0.923054  0
H  H20  1  0.57790971  0.34298412  0.42168755  1  0  0.416163  0  0.892608  0  0  0.385654  0  0.956449  0  0  0.395707  0  0.941591  0  0  0.296011  0.378485  0  0.967024  0
H  H21  1  0.07791154  0.15701801  0.07831338  1  0  0.416149  0  0.892599  0  0  0.385637  0  0.956448  0  0  0.395692  0  0.941588  0  0  0.295994  0.378469  0  0.967022  0
H  H22  1  0.42208961  0.65700817  0.57830752  1  0  0.416101  0  0.892674  0  0  0.385637  0  0.956437  0  0  0.395688  0  0.941582  0  0  0.296002  0.37847  0  0.96701  0
H  H23  1  0.92209642  0.84299266  0.92169790  1  0  0.416107  0  0.892683  0  0  0.385622  0  0.956482  0  0  0.395673  0  0.94163  0  0  0.296007  0.378454  0  0.967056  0
H  H24  1  0.78588953  0.36859604  0.37873349  1  0  0.418481  0  0.889463  0  0  0.390669  0  0.948216  0  0  0.401634  0  0.932067  0  0  0.294408  0.382842  0  0.959719  0
H  H25  1  0.28588073  0.13140340  0.12126890  1  0  0.418405  0  0.889581  0  0  0.390585  0  0.948346  0  0  0.401552  0  0.932194  0  0  0.294374  0.382759  0  0.959848  0
H  H26  1  0.21409395  0.63140548  0.62125995  1  0  0.418459  0  0.889466  0  0  0.390639  0  0.94824  0  0  0.401604  0  0.932091  0  0  0.294376  0.382816  0  0.95974  0
H  H27  1  0.71411858  0.86859509  0.87874051  1  0  0.418378  0  0.889595  0  0  0.390527  0  0.94839  0  0  0.401511  0  0.932226  0  0  0.294357  0.382696  0  0.959895  0
C  C28  1  0.81696828  0.33283790  0.89054055  1  0  0.058178  0  3.696275  0  0  0.055763  0  3.946795  0  0  0.05547  0  3.962219  0  0  0.135653  0.055414  0  3.937009  0
C  C29  1  0.31696461  0.16717488  0.60946196  1  0  0.058211  0  3.696279  0  0  0.056179  0  3.946345  0  0  0.055892  0  3.961761  0  0  0.135734  0.055827  0  3.936568  0
C  C30  1  0.18305407  0.66716380  0.10945697  1  0  0.058389  0  3.696342  0  0  0.056009  0  3.946791  0  0  0.055719  0  3.962209  0  0  0.135637  0.055658  0  3.937009  0
C  C31  1  0.68303902  0.83282329  0.39054011  1  0  0.058226  0  3.696506  0  0  0.056091  0  3.94666  0  0  0.055804  0  3.962076  0  0  0.13574  0.055738  0  3.936886  0
C  C32  1  0.76882557  0.31887273  0.99904463  1  0  0.067844  0  3.662046  0  0  0.065673  0  3.911038  0  0  0.066087  0  3.926074  0  0  0.138235  0.065252  0  3.901237  0
C  C33  1  0.26881636  0.18114338  0.50095896  1  0  0.067786  0  3.662003  0  0  0.065405  0  3.911103  0  0  0.065815  0  3.926136  0  0  0.138143  0.064989  0  3.901303  0
C  C34  1  0.23118382  0.68113846  0.00095696  1  0  0.067854  0  3.662084  0  0  0.065813  0  3.910824  0  0  0.066232  0  3.925863  0  0  0.138261  0.06539  0  3.901026  0
C  C35  1  0.73116711  0.81885198  0.49904287  1  0  0.067791  0  3.661881  0  0  0.065515  0  3.910853  0  0  0.065924  0  3.925893  0  0  0.138209  0.065096  0  3.90106  0
C  C36  1  0.72470248  0.53200320  0.03795113  1  0  0.079815  0  3.659761  0  0  0.046581  0  3.927922  0  0  0.049371  0  3.942974  0  0  0.05402  0.044698  0  3.918025  0
C  C37  1  0.22470310  0.96800283  0.46204438  1  0  0.079817  0  3.659585  0  0  0.046699  0  3.927677  0  0  0.04946  0  3.942703  0  0  0.053988  0.044811  0  3.917797  0
C  C38  1  0.27529396  0.46800286  0.96203947  1  0  0.07996  0  3.659713  0  0  0.0469  0  3.927719  0  0  0.049676  0  3.942766  0  0  0.054091  0.045015  0  3.917827  0
C  C39  1  0.77528757  0.03199357  0.53795997  1  0  0.080065  0  3.659515  0  0  0.046985  0  3.927506  0  0  0.049774  0  3.942555  0  0  0.054104  0.045098  0  3.917621  0
C  C40  1  0.75021501  0.54345318  0.92769830  1  0  0.089241  0  3.688607  0  0  0.058164  0  3.96023  0  0  0.060689  0  3.975361  0  0  0.059169  0.056455  0  3.949767  0
C  C41  1  0.25021790  0.95655031  0.57229756  1  0  0.08934  0  3.688617  0  0  0.058231  0  3.960281  0  0  0.060766  0  3.975414  0  0  0.059289  0.05652  0  3.949819  0
C  C42  1  0.24980302  0.45653962  0.07228708  1  0  0.089069  0  3.68845  0  0  0.057972  0  3.960105  0  0  0.060496  0  3.975237  0  0  0.059089  0.056262  0  3.949641  0
C  C43  1  0.74977998  0.04344274  0.42771542  1  0  0.089077  0  3.688689  0  0  0.05798  0  3.960372  0  0  0.060512  0  3.975495  0  0  0.059197  0.056271  0  3.949905  0
C  C44  1  0.90890644  0.22971753  0.81066677  1  0  0.653918  0  3.929019  0  0  0.600378  0  4.235629  0  0  0.634639  0  4.226163  0  0  0.226374  0.577179  0  4.241139  0
C  C45  1  0.40889799  0.27030067  0.68933381  1  0  0.654007  0  3.929282  0  0  0.600354  0  4.235923  0  0  0.634617  0  4.22646  0  0  0.226494  0.577149  0  4.241433  0
C  C46  1  0.09111016  0.77028029  0.18932716  1  0  0.654046  0  3.928891  0  0  0.600369  0  4.2357  0  0  0.63463  0  4.226241  0  0  0.226406  0.577171  0  4.241209  0
C  C47  1  0.59110564  0.72969937  0.31066843  1  0  0.654033  0  3.92902  0  0  0.600416  0  4.235646  0  0  0.634676  0  4.226182  0  0  0.226486  0.577209  0  4.241162  0
C  C48  1  0.74268964  0.19315932  0.03838381  1  0  0.669612  0  3.896872  0  0  0.61181  0  4.199674  0  0  0.647163  0  4.18829  0  0  0.231092  0.587774  0  4.206585  0
C  C49  1  0.24268227  0.30685270  0.46161723  1  0  0.669572  0  3.897077  0  0  0.611799  0  4.199908  0  0  0.647154  0  4.188524  0  0  0.230985  0.587761  0  4.206822  0
C  C50  1  0.25732264  0.80684906  0.96161754  1  0  0.669324  0  3.897284  0  0  0.611569  0  4.199955  0  0  0.646908  0  4.188598  0  0  0.230939  0.587535  0  4.20686  0
C  C51  1  0.75729832  0.69314453  0.53838476  1  0  0.669607  0  3.897097  0  0  0.611852  0  4.199862  0  0  0.647204  0  4.188478  0  0  0.231062  0.587816  0  4.20678  0
N  N52  1  0.80079001  0.44479003  0.85555854  1  0  -0.32704  0  3.188964  0  0  -0.283887  0  3.455533  0  0  -0.292275  0  3.470342  0  0  -0.326761  -0.278187  0  3.445839  0
N  N53  1  0.30077806  0.05521319  0.64444151  1  0  -0.327187  0  3.188845  0  0  -0.28414  0  3.455335  0  0  -0.292531  0  3.470133  0  0  -0.326818  -0.278436  0  3.445647  0
N  N54  1  0.19923522  0.55521143  0.14443328  1  0  -0.327169  0  3.188942  0  0  -0.28404  0  3.455522  0  0  -0.292426  0  3.470325  0  0  -0.32671  -0.278341  0  3.445832  0
N  N55  1  0.69921981  0.94478131  0.35556187  1  0  -0.327064  0  3.188852  0  0  -0.283982  0  3.455353  0  0  -0.292366  0  3.470146  0  0  -0.326812  -0.278279  0  3.445663  0
N  N56  1  0.73160588  0.41980382  0.07294475  1  0  -0.291486  0  3.129637  0  0  -0.247016  0  3.385636  0  0  -0.256058  0  3.399241  0  0  -0.286885  -0.240872  0  3.376672  0
N  N57  1  0.23158613  0.08021374  0.42705758  1  0  -0.291554  0  3.12932  0  0  -0.247066  0  3.385348  0  0  -0.25611  0  3.398968  0  0  -0.286846  -0.240923  0  3.376385  0
N  N58  1  0.26839775  0.58020338  0.92705081  1  0  -0.291625  0  3.129586  0  0  -0.247234  0  3.385503  0  0  -0.25628  0  3.399114  0  0  -0.286891  -0.241091  0  3.376542  0
N  N59  1  0.76838726  0.91978758  0.57295288  1  0  -0.291683  0  3.129108  0  0  -0.247273  0  3.385147  0  0  -0.256315  0  3.398752  0  0  -0.287  -0.24113  0  3.37619  0
O  O60  1  0.83907972  0.16918062  0.12174092  1  0  -0.693453  0  1.954067  0  0  -0.624689  0  2.169567  0  0  -0.650654  0  2.156111  0  0  -0.338169  -0.606284  0  2.178214  0
O  O61  1  0.33907139  0.33082873  0.37826398  1  0  -0.69333  0  1.954208  0  0  -0.624573  0  2.169697  0  0  -0.650539  0  2.156246  0  0  -0.338062  -0.606168  0  2.178342  0
O  O62  1  0.16094263  0.83082984  0.87826547  1  0  -0.693195  0  1.954186  0  0  -0.62451  0  2.169652  0  0  -0.650467  0  2.15621  0  0  -0.338079  -0.606107  0  2.178297  0
O  O63  1  0.66091641  0.66916729  0.62173142  1  0  -0.693264  0  1.954374  0  0  -0.624573  0  2.169854  0  0  -0.650533  0  2.156408  0  0  -0.338092  -0.606168  0  2.1785  0
O  O64  1  0.61727052  0.12050765  0.99091007  1  0  -0.680932  0  1.990693  0  0  -0.617097  0  2.234946  0  0  -0.645333  0  2.226074  0  0  -0.355668  -0.597136  0  2.24005  0
O  O65  1  0.11724280  0.37950269  0.50907836  1  0  -0.68099  0  1.990637  0  0  -0.617211  0  2.234961  0  0  -0.645451  0  2.22609  0  0  -0.355723  -0.597249  0  2.24007  0
O  O66  1  0.38275903  0.87949688  0.00908850  1  0  -0.680907  0  1.990559  0  0  -0.617195  0  2.234938  0  0  -0.645425  0  2.226068  0  0  -0.355734  -0.597232  0  2.240039  0
O  O67  1  0.88274356  0.62050182  0.49091940  1  0  -0.681049  0  1.990519  0  0  -0.617255  0  2.234781  0  0  -0.645496  0  2.225908  0  0  -0.355751  -0.597291  0  2.23989  0
O  O68  1  0.91494153  0.24830984  0.71137742  1  0  -0.679516  0  1.991419  0  0  -0.627683  0  2.235922  0  0  -0.653879  0  2.22675  0  0  -0.365221  -0.608955  0  2.241603  0
O  O69  1  0.41494571  0.25170766  0.78862716  1  0  -0.679639  0  1.991112  0  0  -0.627774  0  2.235592  0  0  -0.653968  0  2.226418  0  0  -0.365336  -0.60907  0  2.241342  0
O  O70  1  0.08507795  0.75168878  0.28861334  1  0  -0.679617  0  1.991428  0  0  -0.627744  0  2.236018  0  0  -0.653953  0  2.226854  0  0  -0.365293  -0.609004  0  2.241665  0
O  O71  1  0.58506081  0.74830062  0.21137174  1  0  -0.679751  0  1.990928  0  0  -0.627866  0  2.235371  0  0  -0.654062  0  2.2262  0  0  -0.365384  -0.609163  0  2.241122  0
O  O72  1  0.97999829  0.13810540  0.85079751  1  0  -0.669702  0  1.925744  0  0  -0.61356  0  2.161157  0  0  -0.63957  0  2.150991  0  0  -0.358911  -0.595048  0  2.167514  0
O  O73  1  0.47998038  0.36191658  0.64921073  1  0  -0.669613  0  1.92616  0  0  -0.613464  0  2.161606  0  0  -0.639475  0  2.151439  0  0  -0.358886  -0.594952  0  2.16797  0
O  O74  1  0.02001974  0.86190091  0.14919879  1  0  -0.669725  0  1.925611  0  0  -0.613505  0  2.161059  0  0  -0.639519  0  2.150895  0  0  -0.358811  -0.594993  0  2.167412  0
O  O75  1  0.52002758  0.63808034  0.35078393  1  0  -0.669577  0  1.926137  0  0  -0.613464  0  2.161602  0  0  -0.639472  0  2.151434  0  0  -0.358838  -0.594953  0  2.167969  0
O  O76  1  0.08530979  0.60762457  0.73440551  1  0  -0.839531  0  1.872337  0  0  -0.779262  0  2.061937  0  0  -0.799761  0  2.030748  0  0  -0.578781  -0.764658  0  2.082158  0
O  O77  1  0.58530894  0.89237686  0.76559904  1  0  -0.839516  0  1.872372  0  0  -0.779166  0  2.061949  0  0  -0.799691  0  2.030751  0  0  -0.578761  -0.76456  0  2.082124  0
O  O78  1  0.91467081  0.39239198  0.26559088  1  0  -0.839375  0  1.872333  0  0  -0.779071  0  2.061935  0  0  -0.799589  0  2.030761  0  0  -0.57864  -0.764466  0  2.082157  0
O  O79  1  0.41467886  0.10761045  0.23441020  1  0  -0.839391  0  1.872388  0  0  -0.779051  0  2.061941  0  0  -0.799583  0  2.03079  0  0  -0.578604  -0.764446  0  2.082143  0
O  O80  1  0.71526006  0.34389642  0.44259914  1  0  -0.893901  0  1.833502  0  0  -0.840121  0  2.011148  0  0  -0.860444  0  1.980392  0  0  -0.64209  -0.825774  0  2.032439  0
O  O81  1  0.21526329  0.15609755  0.05739950  1  0  -0.893828  0  1.833595  0  0  -0.840066  0  2.011296  0  0  -0.860389  0  1.980539  0  0  -0.642053  -0.825721  0  2.032584  0
O  O82  1  0.28473781  0.65609949  0.55739381  1  0  -0.893864  0  1.833548  0  0  -0.84009  0  2.01115  0  0  -0.86041  0  1.980385  0  0  -0.642058  -0.825747  0  2.032432  0
O  O83  1  0.78475186  0.84390360  0.94260689  1  0  -0.893769  0  1.833723  0  0  -0.839928  0  2.011396  0  0  -0.860273  0  1.980579  0  0  -0.64203  -0.825579  0  2.032698  0
