# generated using pymatgen
data_CuH6C4N3
_symmetry_space_group_name_H-M   'P 1'
_cell_length_a   5.17440861
_cell_length_b   10.20368503
_cell_length_c   10.20380278
_cell_angle_alpha   86.30975049
_cell_angle_beta   75.31715005
_cell_angle_gamma   75.31824918
_symmetry_Int_Tables_number   1
_chemical_formula_structural   CuH6C4N3
_chemical_formula_sum   'Cu4 H24 C16 N12'
_cell_volume   504.13120934
_cell_formula_units_Z   4
loop_
 _symmetry_equiv_pos_site_id
 _symmetry_equiv_pos_as_xyz
  1  'x, y, z'
loop_
 _atom_site_type_symbol
 _atom_site_label
 _atom_site_symmetry_multiplicity
 _atom_site_fract_x
 _atom_site_fract_y
 _atom_site_fract_z
 _atom_site_occupancy
 _atom_site_pbe_bader_spin_density
 _atom_site_pbe_cm5_charge
 _atom_site_pbe_ddec_charge
 _atom_site_pbe_ddec_spin_density
 _atom_site_pbe_ddec_sum_bond_order
 _atom_site_pbe_magmom
Cu  Cu0  1  0.87500228  0.91512995  0.58486806  1  0  0.510347  0.270994  0  2.328903  0
Cu  Cu1  1  0.37500421  0.08497922  0.41502302  1  0  0.509648  0.269837  0  2.328547  0
Cu  Cu2  1  0.20986435  0.41506955  0.91498397  1  0  0.510678  0.271228  0  2.327575  0
Cu  Cu3  1  0.54013884  0.58501872  0.08493192  1  0  0.510719  0.271242  0  2.327654  0
H  H4  1  0.84137665  0.67900837  0.47326438  1  0  0.096157  0.141434  0  1.027305  0
H  H5  1  0.99317775  0.32077354  0.52695511  1  0  0.095398  0.14081  0  1.026594  0
H  H6  1  0.47960096  0.52684807  0.67900938  1  0  0.096213  0.141843  0  1.025703  0
H  H7  1  0.68621445  0.47302626  0.32074938  1  0  0.095053  0.14074  0  1.027066  0
H  H8  1  0.90861925  0.02673751  0.82099462  1  0  0.096152  0.141455  0  1.027283  0
H  H9  1  0.75682708  0.97304883  0.17923576  1  0  0.09537  0.140773  0  1.026637  0
H  H10  1  0.27039620  0.82097669  0.97313264  1  0  0.09622  0.141848  0  1.025788  0
H  H11  1  0.06376964  0.17924602  0.02698292  1  0  0.095054  0.140729  0  1.027021  0
H  H12  1  0.11325360  0.54306861  0.38941087  1  0  0.096132  0.142522  0  1.032195  0
H  H13  1  0.04556327  0.45678765  0.61056851  1  0  0.09526  0.141089  0  1.032289  0
H  H14  1  0.34367024  0.61057016  0.54302718  1  0  0.095545  0.14106  0  1.033381  0
H  H15  1  0.49789150  0.38928930  0.45671025  1  0  0.096369  0.141819  0  1.031873  0
H  H16  1  0.63672691  0.11059385  0.95693147  1  0  0.096113  0.142515  0  1.032127  0
H  H17  1  0.70444843  0.88943808  0.04322285  1  0  0.095237  0.141009  0  1.032311  0
H  H18  1  0.40631976  0.95696637  0.88942061  1  0  0.095568  0.141073  0  1.03344  0
H  H19  1  0.25209014  0.04328570  0.11071832  1  0  0.096366  0.141851  0  1.031841  0
H  H20  1  0.88497887  0.64319409  0.29952328  1  0  0.095473  0.1395  0  1.03182  0
H  H21  1  0.82779328  0.35669872  0.70070352  1  0  0.095889  0.140331  0  1.032176  0
H  H22  1  0.47148093  0.70059664  0.64310652  1  0  0.095946  0.140351  0  1.032867  0
H  H23  1  0.81580403  0.29926925  0.35662364  1  0  0.095992  0.139771  0  1.033225  0
H  H24  1  0.86501491  0.20048276  0.85680992  1  0  0.095472  0.139489  0  1.031803  0
H  H25  1  0.92222053  0.79930506  0.14330474  1  0  0.095903  0.140379  0  1.032076  0
H  H26  1  0.27853978  0.85687879  0.79938590  1  0  0.096015  0.140376  0  1.032857  0
H  H27  1  0.93418430  0.14337249  0.20073803  1  0  0.095973  0.13978  0  1.033319  0
C  C28  1  0.17478843  0.74216628  0.34183064  1  0  0.198007  0.367555  0  4.003765  0
C  C29  1  0.25880510  0.25778922  0.65819081  1  0  0.200414  0.366727  0  4.006997  0
C  C30  1  0.08292860  0.65821027  0.74211032  1  0  0.197265  0.365612  0  4.009247  0
C  C31  1  0.48360484  0.34180570  0.25769646  1  0  0.198675  0.367243  0  4.006426  0
C  C32  1  0.57521827  0.15817227  0.75783353  1  0  0.19803  0.367618  0  4.003698  0
C  C33  1  0.49120110  0.84180970  0.24221794  1  0  0.200368  0.366606  0  4.007287  0
C  C34  1  0.66707142  0.75788533  0.84178613  1  0  0.197172  0.36548  0  4.00904  0
C  C35  1  0.26639316  0.24230114  0.15819529  1  0  0.198598  0.36714  0  4.006513  0
C  C36  1  0.99433600  0.64661907  0.37792538  1  0  -0.237744  -0.462067  0  3.924042  0
C  C37  1  0.01873777  0.35323417  0.62218926  1  0  -0.237989  -0.461618  0  3.923997  0
C  C38  1  0.35886586  0.62214090  0.64657578  1  0  -0.239025  -0.462344  0  3.92533  0
C  C39  1  0.62824437  0.37776245  0.35315711  1  0  -0.239582  -0.462719  0  3.926282  0
C  C40  1  0.75566390  0.12207752  0.85338089  1  0  -0.237727  -0.462065  0  3.923898  0
C  C41  1  0.73127424  0.87781205  0.14677194  1  0  -0.23794  -0.461484  0  3.923915  0
C  C42  1  0.39114022  0.85341406  0.87784618  1  0  -0.239135  -0.462459  0  3.925691  0
C  C43  1  0.12174078  0.14683947  0.12224663  1  0  -0.239517  -0.462677  0  3.926289  0
N  N44  1  0.13894434  0.85211783  0.41604886  1  0  -0.310377  -0.249074  0  3.634527  0
N  N45  1  0.40713283  0.14790559  0.58392850  1  0  -0.306645  -0.244282  0  3.634136  0
N  N46  1  0.00885429  0.58394103  0.85199136  1  0  -0.3076  -0.246555  0  3.636395  0
N  N47  1  0.44511411  0.41607620  0.14780277  1  0  -0.308583  -0.246826  0  3.632524  0
N  N48  1  0.61105938  0.08395486  0.64788259  1  0  -0.310371  -0.249106  0  3.634499  0
N  N49  1  0.34288053  0.91607078  0.35209949  1  0  -0.306608  -0.244211  0  3.634171  0
N  N50  1  0.74115948  0.64800706  0.91606215  1  0  -0.307659  -0.246541  0  3.636269  0
N  N51  1  0.30487125  0.35219492  0.08392788  1  0  -0.308535  -0.246849  0  3.63256  0
N  N52  1  0.39326777  0.73175978  0.23184482  1  0  -0.39028  -0.433373  0  3.50236  0
N  N53  1  0.35674578  0.26815998  0.76823824  1  0  -0.39028  -0.433414  0  3.50218  0
N  N54  1  0.87500497  0.76827459  0.73171792  1  0  -0.386878  -0.430982  0  3.501486  0
N  N55  1  0.37498736  0.23183026  0.26817418  1  0  -0.386317  -0.431185  0  3.500856  0
