# generated using pymatgen
data_Sn2H18C13O5
_symmetry_space_group_name_H-M   'P 1'
_cell_length_a   9.35748983
_cell_length_b   18.88945041
_cell_length_c   18.89031294
_cell_angle_alpha   117.31761685
_cell_angle_beta   99.51170377
_cell_angle_gamma   99.50775590
_symmetry_Int_Tables_number   1
_chemical_formula_structural   Sn2H18C13O5
_chemical_formula_sum   'Sn12 H108 C78 O30'
_cell_volume   2812.99395860
_cell_formula_units_Z   6
loop_
 _symmetry_equiv_pos_site_id
 _symmetry_equiv_pos_as_xyz
  1  'x, y, z'
loop_
 _atom_site_type_symbol
 _atom_site_label
 _atom_site_symmetry_multiplicity
 _atom_site_fract_x
 _atom_site_fract_y
 _atom_site_fract_z
 _atom_site_occupancy
 _atom_site_pbe_bader_charge
 _atom_site_pbe_bader_spin_density
 _atom_site_pbe_cm5_charge
 _atom_site_pbe_ddec_charge
 _atom_site_pbe_ddec_spin_density
 _atom_site_pbe_ddec_sum_bond_order
 _atom_site_pbe_magmom
Sn  Sn0  1  0.32737007  0.93681499  0.44126855  1  1.896634  0  0.62304  1.408145  0  3.412854  0
Sn  Sn1  1  0.23795893  0.66871703  0.66706328  1  1.889047  0  0.625124  1.365513  0  3.393407  0
Sn  Sn2  1  0.39040222  0.50441780  0.06313430  1  1.895946  0  0.624529  1.409468  0  3.412165  0
Sn  Sn3  1  0.56928959  0.99842888  0.33119813  1  1.885491  0  0.626404  1.368696  0  3.39002  0
Sn  Sn4  1  0.88611318  0.55878585  0.49545234  1  1.901436  0  0.623773  1.408417  0  3.413052  0
Sn  Sn5  1  0.57068554  0.33284069  0.00165553  1  1.886969  0  0.624467  1.365485  0  3.392503  0
Sn  Sn6  1  0.67262675  0.06318547  0.55873104  1  1.896484  0  0.623064  1.40821  0  3.412767  0
Sn  Sn7  1  0.76204872  0.33127910  0.33293786  1  1.888938  0  0.625083  1.365472  0  3.393456  0
Sn  Sn8  1  0.60959970  0.49558205  0.93686595  1  1.89594  0  0.62455  1.409528  0  3.412101  0
Sn  Sn9  1  0.43071079  0.00157220  0.66880204  1  1.885506  0  0.626416  1.36874  0  3.390094  0
Sn  Sn10  1  0.11388627  0.44121338  0.50454743  1  1.901435  0  0.623799  1.4085  0  3.412997  0
Sn  Sn11  1  0.42931468  0.66715792  0.99834295  1  1.886878  0  0.624454  1.365465  0  3.392611  0
H  H12  1  0.09783149  0.91945877  0.69841931  1  0.088075  0  0.107491  0.129412  0  1.000469  0
H  H13  1  0.96277821  0.85983106  0.71897880  1  0.041869  0  0.106581  0.125622  0  0.96041  0
H  H14  1  0.73385419  0.77942221  0.62778092  1  0.047209  0  0.100611  0.100155  0  1.017206  0
H  H15  1  0.54441755  0.72340796  0.49457742  1  0.038756  0  0.101723  0.093131  0  1.021388  0
H  H16  1  0.61918278  0.73425016  0.37763578  1  0.06702  0  0.101901  0.10223  0  1.007671  0
H  H17  1  0.88625466  0.80800327  0.40179931  1  0.098252  0  0.098981  0.09294  0  1.055379  0
H  H18  1  0.46259404  0.64610416  0.59346896  1  0.086646  0  0.093303  0.18387  0  1.029981  0
H  H19  1  0.52401771  0.74666055  0.68620994  1  0.049344  0  0.092356  0.177698  0  1.034946  0
H  H20  1  0.39838051  0.73167246  0.59516590  1  0.053102  0  0.095384  0.183785  0  1.028663  0
H  H21  1  0.06715403  0.72316387  0.77130578  1  0.05678  0  0.09046  0.1782  0  1.025745  0
H  H22  1  0.24025275  0.71750613  0.82444417  1  0.116423  0  0.097475  0.199452  0  1.033193  0
H  H23  1  0.08924735  0.62476982  0.75613637  1  0.036643  0  0.084929  0.161859  0  1.069156  0
H  H24  1  0.42295820  0.80469984  0.35342613  1  0.066433  0  0.091882  0.182795  0  1.032044  0
H  H25  1  0.38588802  0.80393358  0.44386196  1  0.025112  0  0.087317  0.169347  0  1.048185  0
H  H26  1  0.23305576  0.76958004  0.35376468  1  0.089063  0  0.083506  0.168909  0  1.072688  0
H  H27  1  0.10584790  0.00913381  0.43560599  1  0.071268  0  0.089745  0.183272  0  1.036813  0
H  H28  1  0.27178196  0.06722955  0.42992259  1  0.068045  0  0.087769  0.172137  0  1.062163  0
H  H29  1  0.15700499  0.97298070  0.33963189  1  0.071004  0  0.08561  0.16897  0  1.054675  0
H  H30  1  0.17858097  0.77898863  0.08045023  1  0.08715  0  0.107156  0.129391  0  1.00126  0
H  H31  1  0.10305329  0.85912300  0.14009787  1  0.046988  0  0.107022  0.125928  0  0.959548  0
H  H32  1  0.95482246  0.84833908  0.22058999  1  0.040679  0  0.101558  0.100824  0  1.017234  0
H  H33  1  0.82141616  0.77103509  0.27649723  1  0.059077  0  0.101548  0.092943  0  1.019956  0
H  H34  1  0.88508057  0.64314590  0.26545882  1  0.062672  0  0.101193  0.101956  0  1.008431  0
H  H35  1  0.07839573  0.59362365  0.19167810  1  0.081948  0  0.099206  0.093141  0  1.054094  0
H  H36  1  0.81638338  0.94731841  0.35381745  1  0.068902  0  0.093017  0.183655  0  1.030839  0
H  H37  1  0.77728846  0.93951625  0.25325029  1  0.049002  0  0.092769  0.178838  0  1.034179  0
H  H38  1  0.66649083  0.86350084  0.26827872  1  0.055824  0  0.094477  0.183894  0  1.028864  0
H  H39  1  0.34402692  0.04822624  0.27680586  1  0.037166  0  0.089661  0.177377  0  1.025355  0
H  H40  1  0.52272556  0.10704943  0.28244393  1  0.107617  0  0.09815  0.200988  0  1.031756  0
H  H41  1  0.46449673  0.13144120  0.37519243  1  0.033313  0  0.08593  0.162982  0  1.067409  0
H  H42  1  0.61830228  0.54872990  0.19518332  1  0.066593  0  0.091298  0.182221  0  1.031318  0
H  H43  1  0.58201005  0.63994682  0.19596141  1  0.025535  0  0.086496  0.169214  0  1.048104  0
H  H44  1  0.46369356  0.58426243  0.23042172  1  0.044667  0  0.082323  0.168096  0  1.072358  0
H  H45  1  0.09656830  0.42654008  0.99092608  1  0.076828  0  0.091112  0.185196  0  1.036903  0
H  H46  1  0.20424644  0.36266352  0.93278497  1  0.060221  0  0.088228  0.173392  0  1.061546  0
H  H47  1  0.18384301  0.36666063  0.02706429  1  0.055868  0  0.086707  0.170143  0  1.054551  0
H  H48  1  0.39941858  0.30155121  0.22113097  1  0.05498  0  0.107625  0.129015  0  1.001336  0
H  H49  1  0.24383722  0.28100685  0.14092909  1  0.062139  0  0.107076  0.126421  0  0.960312  0
H  H50  1  0.10606725  0.37227802  0.15172969  1  0.040848  0  0.100644  0.100462  0  1.017609  0
H  H51  1  0.04999268  0.50550167  0.22900918  1  0.056317  0  0.101629  0.093201  0  1.021024  0
H  H52  1  0.24175160  0.62236428  0.35681579  1  0.07668  0  0.101686  0.102269  0  1.008858  0
H  H53  1  0.48461706  0.59811342  0.40632710  1  0.075707  0  0.099665  0.094626  0  1.053102  0
H  H54  1  0.86897898  0.40645126  0.05260208  1  0.057998  0  0.093071  0.183003  0  1.030987  0
H  H55  1  0.83766839  0.31369853  0.06041877  1  0.058501  0  0.091858  0.177925  0  1.034918  0
H  H56  1  0.80307236  0.40473139  0.13644312  1  0.057678  0  0.094902  0.18325  0  1.029464  0
H  H57  1  0.29563658  0.22852340  0.95171705  1  0.048627  0  0.088823  0.176193  0  1.024707  0
H  H58  1  0.41575665  0.17547922  0.89299390  1  0.114608  0  0.097045  0.199135  0  1.03186  0
H  H59  1  0.33305783  0.24380209  0.86857420  1  0.070072  0  0.084636  0.162273  0  1.06871  0
H  H60  1  0.07008515  0.64651453  0.45127887  1  0.081564  0  0.091405  0.182479  0  1.031178  0
H  H61  1  0.94252719  0.55606568  0.36000336  1  0.025184  0  0.087278  0.169698  0  1.047839  0
H  H62  1  0.87993385  0.64621969  0.41566054  1  0.081896  0  0.08367  0.168712  0  1.073125  0
H  H63  1  0.67023777  0.56440186  0.57338290  1  0.090815  0  0.08997  0.183565  0  1.038185  0
H  H64  1  0.84179460  0.57013056  0.63721704  1  0.066393  0  0.087377  0.171709  0  1.062196  0
H  H65  1  0.81730020  0.66041327  0.63326646  1  0.025426  0  0.085586  0.168995  0  1.055463  0
H  H66  1  0.90216827  0.08054108  0.30158077  1  0.088014  0  0.107471  0.129394  0  1.000476  0
H  H67  1  0.03722371  0.14016879  0.28102198  1  0.041869  0  0.106594  0.125645  0  0.960392  0
H  H68  1  0.26614526  0.22057702  0.37221938  1  0.047237  0  0.100611  0.10018  0  1.017224  0
H  H69  1  0.45558174  0.27659312  0.50542318  1  0.038761  0  0.101738  0.093163  0  1.021338  0
H  H70  1  0.38081558  0.26574907  0.62236390  1  0.067015  0  0.101891  0.102238  0  1.007691  0
H  H71  1  0.11374587  0.19199596  0.59820108  1  0.09823  0  0.098987  0.092926  0  1.055411  0
H  H72  1  0.53740680  0.35389569  0.40653068  1  0.086675  0  0.093276  0.183828  0  1.029945  0
H  H73  1  0.47598421  0.25333930  0.31378978  1  0.049295  0  0.092363  0.177719  0  1.034937  0
H  H74  1  0.60161956  0.26832801  0.40483449  1  0.053104  0  0.095411  0.183855  0  1.02861  0
H  H75  1  0.93284650  0.27683535  0.22869408  1  0.056744  0  0.090441  0.178164  0  1.025766  0
H  H76  1  0.75974701  0.28249372  0.17555644  1  0.116425  0  0.097446  0.199403  0  1.033167  0
H  H77  1  0.91075318  0.37522941  0.24386349  1  0.03666  0  0.08494  0.161882  0  1.069126  0
H  H78  1  0.57704001  0.19530125  0.64657386  1  0.066407  0  0.091897  0.182797  0  1.031995  0
H  H79  1  0.61411019  0.19606750  0.55613750  1  0.025074  0  0.08733  0.169321  0  1.048181  0
H  H80  1  0.76694323  0.23042042  0.64623562  1  0.089074  0  0.083471  0.168835  0  1.072698  0
H  H81  1  0.89414861  0.99086604  0.56439329  1  0.070214  0  0.089743  0.183241  0  1.036825  0
H  H82  1  0.72821594  0.93277091  0.57007709  1  0.068194  0  0.087748  0.172101  0  1.062193  0
H  H83  1  0.84299260  0.02701915  0.66036748  1  0.071019  0  0.085604  0.168955  0  1.054666  0
H  H84  1  0.82141878  0.22101122  0.91954985  1  0.087154  0  0.107156  0.129386  0  1.001273  0
H  H85  1  0.89694476  0.14087561  0.85990097  1  0.046987  0  0.107016  0.125915  0  0.959558  0
H  H86  1  0.04517513  0.15166077  0.77940832  1  0.040623  0  0.101579  0.100828  0  1.017239  0
H  H87  1  0.17858252  0.22896476  0.72350276  1  0.059083  0  0.101556  0.092964  0  1.019952  0
H  H88  1  0.11491981  0.35685519  0.73454135  1  0.062659  0  0.101182  0.101937  0  1.008442  0
H  H89  1  0.92160604  0.40637806  0.80832405  1  0.081923  0  0.099208  0.093108  0  1.054131  0
H  H90  1  0.18361421  0.05268144  0.64618245  1  0.068882  0  0.093022  0.183687  0  1.030796  0
H  H91  1  0.22271021  0.06048360  0.74674970  1  0.048897  0  0.092809  0.178902  0  1.034146  0
H  H92  1  0.33350893  0.13649900  0.73172189  1  0.055833  0  0.094472  0.183907  0  1.028847  0
H  H93  1  0.65597284  0.95177360  0.72319422  1  0.037177  0  0.089649  0.177369  0  1.025357  0
H  H94  1  0.47727342  0.89295104  0.71755690  1  0.107601  0  0.09812  0.20097  0  1.031767  0
H  H95  1  0.53550333  0.86855927  0.62480849  1  0.033332  0  0.085936  0.163011  0  1.067365  0
H  H96  1  0.38169639  0.45126995  0.80481561  1  0.066573  0  0.091297  0.182205  0  1.031323  0
H  H97  1  0.41799033  0.36005427  0.80403876  1  0.025559  0  0.086504  0.169226  0  1.0481  0
H  H98  1  0.53630760  0.41573803  0.76957822  1  0.044657  0  0.08232  0.168099  0  1.072347  0
H  H99  1  0.90343037  0.57345977  0.00907285  1  0.076874  0  0.091124  0.185222  0  1.036896  0
H  H100  1  0.79575471  0.63733695  0.06721550  1  0.060198  0  0.088214  0.173388  0  1.061543  0
H  H101  1  0.81615876  0.63334107  0.97293681  1  0.055836  0  0.086703  0.170129  0  1.054551  0
H  H102  1  0.60058303  0.69844802  0.77886845  1  0.054972  0  0.10763  0.129037  0  1.00136  0
H  H103  1  0.75616331  0.71899237  0.85906918  1  0.062159  0  0.10708  0.126392  0  0.960333  0
H  H104  1  0.89393297  0.62772058  0.84826932  1  0.040868  0  0.100666  0.100489  0  1.0176  0
H  H105  1  0.95000785  0.49449755  0.77099068  1  0.056294  0  0.101645  0.093215  0  1.020981  0
H  H106  1  0.75824862  0.37763433  0.64318375  1  0.076647  0  0.101707  0.1023  0  1.008897  0
H  H107  1  0.51538378  0.40188643  0.59367253  1  0.075708  0  0.099666  0.094596  0  1.053133  0
H  H108  1  0.13102279  0.59355045  0.94739902  1  0.057957  0  0.09307  0.182993  0  1.030999  0
H  H109  1  0.16232951  0.68630194  0.93958039  1  0.058679  0  0.09187  0.177957  0  1.034919  0
H  H110  1  0.19692693  0.59526969  0.86355643  1  0.057677  0  0.094909  0.18327  0  1.02942  0
H  H111  1  0.70436380  0.77147769  0.04828312  1  0.048624  0  0.08883  0.176195  0  1.024689  0
H  H112  1  0.58424620  0.82452249  0.10700676  1  0.114581  0  0.097091  0.199212  0  1.031872  0
H  H113  1  0.66694085  0.75619776  0.13142473  1  0.069822  0  0.084587  0.162177  0  1.068751  0
H  H114  1  0.92991461  0.35348532  0.54872067  1  0.081568  0  0.091402  0.182482  0  1.031179  0
H  H115  1  0.05747365  0.44393417  0.63999681  1  0.025191  0  0.087285  0.169711  0  1.047819  0
H  H116  1  0.12006590  0.35378015  0.58433954  1  0.081888  0  0.083675  0.168713  0  1.073083  0
H  H117  1  0.32976384  0.43559736  0.42661651  1  0.090826  0  0.089971  0.183559  0  1.038179  0
H  H118  1  0.15820733  0.42986929  0.36278321  1  0.066417  0  0.087397  0.171729  0  1.062187  0
H  H119  1  0.18270173  0.33958658  0.36673379  1  0.025428  0  0.085577  0.168976  0  1.05548  0
C  C120  1  0.13170858  0.80346862  0.67718018  1  1.584127  0  0.215806  0.622252  0  4.160021  0
C  C121  1  0.02720861  0.85658877  0.67419132  1  -0.020502  0  -0.153324  -0.340916  0  3.955272  0
C  C122  1  0.91880977  0.82336422  0.59076906  1  0.002517  0  0.007625  0.145643  0  3.916777  0
C  C123  1  0.76813807  0.78416391  0.57730439  1  0.013341  0  -0.08888  -0.148171  0  3.97672  0
C  C124  1  0.66074823  0.75247676  0.50194136  1  -0.082849  0  -0.084937  -0.071334  0  4.02777  0
C  C125  1  0.70202468  0.75931525  0.43709071  1  -0.10835  0  -0.093518  -0.097939  0  4.019021  0
C  C126  1  0.85034590  0.79946442  0.44989178  1  -0.023011  0  -0.081278  -0.082072  0  3.98523  0
C  C127  1  0.95943618  0.83114356  0.52541462  1  -0.00737  0  -0.014603  -0.092488  0  3.91136  0
C  C128  1  0.11482152  0.87496083  0.53312602  1  1.529862  0  0.229565  0.589179  0  4.167037  0
C  C129  1  0.43114100  0.70231148  0.63120615  1  -0.460336  0  -0.32107  -0.749339  0  3.72586  0
C  C130  1  0.14667552  0.68602870  0.76785673  1  -0.448706  0  -0.320708  -0.737547  0  3.721771  0
C  C131  1  0.34425675  0.81276109  0.39157309  1  -0.455347  0  -0.325633  -0.749948  0  3.73345  0
C  C132  1  0.19912025  0.00523752  0.40719333  1  -0.470197  0  -0.324523  -0.745936  0  3.716587  0
C  C133  1  0.32836676  0.87377329  0.19645104  1  1.57094  0  0.220361  0.628494  0  4.153789  0
C  C134  1  0.17080946  0.81759919  0.14331217  1  -0.041847  0  -0.154846  -0.343776  0  3.954798  0
C  C135  1  0.09576551  0.76739364  0.17656165  1  0.049133  0  0.007933  0.14756  0  3.91614  0
C  C136  1  0.98434220  0.79309781  0.21579340  1  -0.046219  0  -0.090851  -0.1511  0  3.977284  0
C  C137  1  0.90860844  0.74932321  0.24737774  1  -0.047751  0  -0.084613  -0.070265  0  4.027221  0
C  C138  1  0.94287158  0.67756475  0.24042209  1  -0.078354  0  -0.094073  -0.09919  0  4.020031  0
C  C139  1  0.05106281  0.65028138  0.20028255  1  -0.00544  0  -0.080043  -0.080544  0  3.982081  0
C  C140  1  0.12852417  0.69422153  0.16870168  1  -0.053051  0  -0.013342  -0.091514  0  3.913052  0
C  C141  1  0.24005777  0.65814595  0.12490150  1  1.539385  0  0.227883  0.589597  0  4.168417  0
C  C142  1  0.72872127  0.92888000  0.29760007  1  -0.445183  0  -0.320524  -0.751053  0  3.725315  0
C  C143  1  0.46069200  0.08193061  0.31393694  1  -0.415402  0  -0.321954  -0.740032  0  3.718503  0
C  C144  1  0.53155873  0.57884716  0.18716920  1  -0.412325  0  -0.323251  -0.748854  0  3.730457  0
C  C145  1  0.19365852  0.40194777  0.99478078  1  -0.453476  0  -0.327541  -0.750953  0  3.71838  0
C  C146  1  0.45453591  0.32274895  0.12637070  1  1.563765  0  0.218291  0.62436  0  4.157221  0
C  C147  1  0.35304535  0.32579632  0.18249795  1  -0.026303  0  -0.155301  -0.342355  0  3.956046  0
C  C148  1  0.32804410  0.40920748  0.23266374  1  0.009238  0  0.006797  0.146264  0  3.914698  0
C  C149  1  0.19085729  0.42272471  0.20695277  1  0.010552  0  -0.089687  -0.149174  0  3.977315  0
C  C150  1  0.15891620  0.49809661  0.25070825  1  -0.071418  0  -0.084206  -0.071006  0  4.028917  0
C  C151  1  0.26506547  0.56289313  0.32240731  1  -0.129384  0  -0.094436  -0.098441  0  4.023521  0
C  C152  1  0.40056210  0.55005183  0.34968937  1  0.006416  0  -0.081171  -0.08295  0  3.983637  0
C  C153  1  0.43407164  0.47452072  0.30581180  1  -0.002315  0  -0.012754  -0.092835  0  3.908863  0
C  C154  1  0.58181965  0.46683356  0.34184152  1  1.54828  0  0.227592  0.587729  0  4.167452  0
C  C155  1  0.79975613  0.36868344  0.07104723  1  -0.446017  0  -0.320027  -0.748318  0  3.726389  0
C  C156  1  0.37868214  0.23203299  0.91809158  1  -0.471812  0  -0.317787  -0.735181  0  3.716371  0
C  C157  1  0.95322619  0.60838414  0.42108214  1  -0.464485  0  -0.325343  -0.750052  0  3.732115  0
C  C158  1  0.79192727  0.59285964  0.59793048  1  -0.44444  0  -0.324564  -0.746318  0  3.71864  0
C  C159  1  0.86829273  0.19652999  0.32281999  1  1.584112  0  0.215871  0.622248  0  4.160069  0
C  C160  1  0.97279270  0.14340984  0.32580885  1  -0.020049  0  -0.153319  -0.340955  0  3.955251  0
C  C161  1  0.08118860  0.17663501  0.40923168  1  0.002157  0  0.007632  0.145687  0  3.916775  0
C  C162  1  0.23186060  0.21583594  0.42269612  1  0.013286  0  -0.088884  -0.148256  0  3.976751  0
C  C163  1  0.33925153  0.24752309  0.49805978  1  -0.082771  0  -0.08496  -0.071321  0  4.027638  0
C  C164  1  0.29797477  0.24068398  0.56291012  1  -0.108364  0  -0.093528  -0.098021  0  4.019031  0
C  C165  1  0.14965308  0.20053605  0.55010905  1  -0.023024  0  -0.081264  -0.082011  0  3.985279  0
C  C166  1  0.04056249  0.16885629  0.47458643  1  -0.007421  0  -0.014577  -0.0924  0  3.911382  0
C  C167  1  0.88517854  0.12503964  0.46687542  1  1.529779  0  0.22956  0.589111  0  4.167141  0
C  C168  1  0.56886093  0.29768837  0.36879251  1  -0.460295  0  -0.32107  -0.749393  0  3.725799  0
C  C169  1  0.85332501  0.31397052  0.23214260  1  -0.44873  0  -0.320671  -0.737485  0  3.721694  0
C  C170  1  0.65574146  0.18723999  0.60842690  1  -0.45526  0  -0.325645  -0.749883  0  3.733345  0
C  C171  1  0.80087579  0.99476357  0.59280649  1  -0.469282  0  -0.324488  -0.745861  0  3.716584  0
C  C172  1  0.67163361  0.12622779  0.80354860  1  1.570879  0  0.220373  0.628536  0  4.153854  0
C  C173  1  0.82919029  0.18240065  0.85668738  1  -0.041849  0  -0.154861  -0.343809  0  3.954845  0
C  C174  1  0.90423347  0.23260682  0.82343865  1  0.049107  0  0.007969  0.147622  0  3.915974  0
C  C175  1  0.01565539  0.20690204  0.78420703  1  -0.046056  0  -0.090879  -0.151093  0  3.977162  0
C  C176  1  0.09138915  0.25067664  0.75262057  1  -0.047768  0  -0.084616  -0.070303  0  4.027182  0
C  C177  1  0.05712493  0.32243509  0.75957666  1  -0.078357  0  -0.094088  -0.099231  0  4.020119  0
C  C178  1  0.94893757  0.34971971  0.79971815  1  -0.005511  0  -0.080028  -0.080464  0  3.982142  0
C  C179  1  0.87147729  0.30577956  0.83129964  1  -0.052979  0  -0.013357  -0.09153  0  3.912947  0
C  C180  1  0.75994230  0.34185452  0.87509888  1  1.539375  0  0.22788  0.589539  0  4.16846  0
C  C181  1  0.27127633  0.07111984  0.70239983  1  -0.445095  0  -0.32056  -0.751178  0  3.725293  0
C  C182  1  0.53930590  0.91806985  0.68606380  1  -0.415391  0  -0.321938  -0.74007  0  3.718524  0
C  C183  1  0.46844164  0.42115393  0.81283096  1  -0.412326  0  -0.323268  -0.748872  0  3.730431  0
C  C184  1  0.80634185  0.59805332  0.00521992  1  -0.453475  0  -0.327539  -0.750976  0  3.71838  0
C  C185  1  0.54546586  0.67725275  0.87363198  1  1.56381  0  0.218343  0.624411  0  4.157267  0
C  C186  1  0.64695441  0.67420353  0.81750106  1  -0.026312  0  -0.155318  -0.342369  0  3.955997  0
C  C187  1  0.67195752  0.59079175  0.76733568  1  0.009041  0  0.006831  0.14629  0  3.914681  0
C  C188  1  0.80914293  0.57727390  0.79304678  1  0.010748  0  -0.089756  -0.149222  0  3.977308  0
C  C189  1  0.84108572  0.50190324  0.74929200  1  -0.071781  0  -0.084209  -0.071046  0  4.028762  0
C  C190  1  0.73493506  0.43710610  0.67759202  1  -0.128989  0  -0.094434  -0.098436  0  4.023466  0
C  C191  1  0.59943982  0.44994802  0.65031035  1  0.006405  0  -0.081198  -0.082939  0  3.9837  0
C  C192  1  0.56592920  0.52547913  0.69418784  1  -0.002313  0  -0.012776  -0.092842  0  3.908923  0
C  C193  1  0.41818057  0.53316505  0.65815803  1  1.548278  0  0.227578  0.58764  0  4.167593  0
C  C194  1  0.20024208  0.63131764  0.92895223  1  -0.446167  0  -0.320049  -0.74836  0  3.726375  0
C  C195  1  0.62131716  0.76796810  0.08190850  1  -0.471524  0  -0.317799  -0.735167  0  3.7164  0
C  C196  1  0.04677465  0.39161571  0.57891750  1  -0.464509  0  -0.325374  -0.75012  0  3.732092  0
C  C197  1  0.20807357  0.40714021  0.40207021  1  -0.444429  0  -0.324555  -0.746298  0  3.718617  0
O  O198  1  0.08608089  0.72516485  0.62007498  1  -1.198594  0  -0.285904  -0.581466  0  2.283024  0
O  O199  1  0.24965155  0.83266181  0.73472171  1  -1.184921  0  -0.299551  -0.537113  0  2.094869  0
O  O200  1  0.22632696  0.88248867  0.58736719  1  -1.193402  0  -0.278705  -0.542694  0  2.273416  0
O  O201  1  0.12530139  0.90341030  0.48382437  1  -1.184514  0  -0.283069  -0.562295  0  2.301462  0
O  O202  1  0.45674693  0.00378816  0.56340966  1  -1.248133  0  -0.443042  -0.866806  0  2.087488  0
O  O203  1  0.36090197  0.89500334  0.27476665  1  -1.194578  0  -0.286883  -0.583637  0  2.282375  0
O  O204  1  0.41718815  0.90217524  0.16732325  1  -1.173464  0  -0.301992  -0.539771  0  2.092073  0
O  O205  1  0.34415454  0.70489690  0.11749699  1  -1.203554  0  -0.277206  -0.542409  0  2.272809  0
O  O206  1  0.22187608  0.58036554  0.09632246  1  -1.181284  0  -0.283432  -0.563455  0  2.302956  0
O  O207  1  0.45287589  0.55948625  0.99606082  1  -1.249134  0  -0.44392  -0.866505  0  2.088094  0
O  O208  1  0.46597595  0.37983997  0.10513042  1  -1.190248  0  -0.285998  -0.581915  0  2.283183  0
O  O209  1  0.51487484  0.26519432  0.09800514  1  -1.179372  0  -0.299997  -0.537148  0  2.092831  0
O  O210  1  0.63908224  0.41263267  0.29513401  1  -1.191217  0  -0.276296  -0.54094  0  2.273204  0
O  O211  1  0.64170481  0.51618582  0.41957338  1  -1.202808  0  -0.284096  -0.562483  0  2.302464  0
O  O212  1  0.89328780  0.43664231  0.44055758  1  -1.252531  0  -0.443106  -0.865466  0  2.087294  0
O  O213  1  0.91392041  0.27483376  0.37992412  1  -1.198451  0  -0.285903  -0.581427  0  2.283092  0
O  O214  1  0.75034790  0.16733742  0.26527859  1  -1.184865  0  -0.299598  -0.537102  0  2.094907  0
O  O215  1  0.77367140  0.11751056  0.41263249  1  -1.19332  0  -0.278684  -0.542658  0  2.273396  0
O  O216  1  0.87469728  0.09658955  0.51617562  1  -1.184526  0  -0.283096  -0.562321  0  2.301539  0
O  O217  1  0.54325175  0.99621168  0.43658980  1  -1.247954  0  -0.443046  -0.866823  0  2.087476  0
O  O218  1  0.63909887  0.10499651  0.72523298  1  -1.194589  0  -0.286899  -0.58364  0  2.282356  0
O  O219  1  0.58281424  0.09782771  0.83267634  1  -1.173396  0  -0.301985  -0.53978  0  2.092207  0
O  O220  1  0.65584584  0.29510418  0.88250318  1  -1.203553  0  -0.277226  -0.542413  0  2.272977  0
O  O221  1  0.77812073  0.41963493  0.90367766  1  -1.181298  0  -0.283383  -0.563373  0  2.302838  0
O  O222  1  0.54712464  0.44051297  0.00393904  1  -1.249186  0  -0.443929  -0.866515  0  2.088054  0
O  O223  1  0.53402443  0.62016112  0.89487134  1  -1.190248  0  -0.286003  -0.581942  0  2.283344  0
O  O224  1  0.48512523  0.73480615  0.90199577  1  -1.179403  0  -0.299996  -0.537136  0  2.092832  0
O  O225  1  0.36091829  0.58736656  0.70486638  1  -1.191181  0  -0.276298  -0.54091  0  2.273247  0
O  O226  1  0.35829526  0.48381464  0.58042648  1  -1.202809  0  -0.284094  -0.562452  0  2.302502  0
O  O227  1  0.10671351  0.56335630  0.55944312  1  -1.252483  0  -0.443172  -0.86549  0  2.087268  0
