# generated using pymatgen
data_Ag2H5C6S2N5
_symmetry_space_group_name_H-M   'P 1'
_cell_length_a   7.10857623
_cell_length_b   8.04427296
_cell_length_c   17.45402927
_cell_angle_alpha   89.99995940
_cell_angle_beta   89.99503410
_cell_angle_gamma   90.00016409
_symmetry_Int_Tables_number   1
_chemical_formula_structural   Ag2H5C6S2N5
_chemical_formula_sum   'Ag8 H20 C24 S8 N20'
_cell_volume   998.07947021
_cell_formula_units_Z   4
loop_
 _symmetry_equiv_pos_site_id
 _symmetry_equiv_pos_as_xyz
  1  'x, y, z'
loop_
 _atom_site_type_symbol
 _atom_site_label
 _atom_site_symmetry_multiplicity
 _atom_site_fract_x
 _atom_site_fract_y
 _atom_site_fract_z
 _atom_site_occupancy
 _atom_site_pbe_bader_charge
 _atom_site_pbe_bader_spin_density
 _atom_site_pbe_cm5_charge
 _atom_site_pbe_ddec_charge
 _atom_site_pbe_ddec_spin_density
 _atom_site_pbe_ddec_sum_bond_order
 _atom_site_pbe_magmom
Ag  Ag0  1  0.20390888  0.84986047  0.68290435  1  0.473421  0  0.377256  0.30991  0  2.231951  0
Ag  Ag1  1  0.70387237  0.65016207  0.81711392  1  0.473289  0  0.377242  0.309847  0  2.231994  0
Ag  Ag2  1  0.29608967  0.84986207  0.31709376  1  0.47335  0  0.377239  0.309915  0  2.231991  0
Ag  Ag3  1  0.79613632  0.65017157  0.18288795  1  0.473303  0  0.377286  0.309904  0  2.231985  0
Ag  Ag4  1  0.79609092  0.15013672  0.31709354  1  0.473409  0  0.377238  0.309942  0  2.232013  0
Ag  Ag5  1  0.29611899  0.34983389  0.18288912  1  0.47343  0  0.377248  0.309923  0  2.231977  0
Ag  Ag6  1  0.70390451  0.15013886  0.68290356  1  0.47342  0  0.377243  0.309863  0  2.23199  0
Ag  Ag7  1  0.20386630  0.34983060  0.81711338  1  0.473306  0  0.37726  0.309861  0  2.231953  0
H  H8  1  0.16744808  0.20436993  0.61839443  1  0.111079  0  0.108682  0.082017  0  1.011359  0
H  H9  1  0.66737142  0.29561305  0.88161578  1  0.110836  0  0.10868  0.082062  0  1.011256  0
H  H10  1  0.33255111  0.20437206  0.38160261  1  0.111104  0  0.108694  0.082066  0  1.011334  0
H  H11  1  0.83261575  0.29562108  0.11837933  1  0.110913  0  0.108729  0.082104  0  1.011414  0
H  H12  1  0.83256017  0.79562975  0.38160460  1  0.111108  0  0.108702  0.082077  0  1.011483  0
H  H13  1  0.33260729  0.70438166  0.11838383  1  0.110901  0  0.108744  0.082082  0  1.011271  0
H  H14  1  0.66743885  0.79562887  0.61839470  1  0.111106  0  0.108707  0.082048  0  1.011346  0
H  H15  1  0.16738405  0.70438233  0.88161799  1  0.110903  0  0.108709  0.082065  0  1.011306  0
H  H16  1  0.24999617  0.36803028  0.49999837  1  0.102023  0  0.114456  0.145385  0  1.001023  0
H  H17  1  0.74999837  0.13195878  0.00000141  1  0.10193  0  0.11442  0.1452  0  1.001247  0
H  H18  1  0.75000363  0.63196940  0.49999838  1  0.102038  0  0.114458  0.145377  0  1.000867  0
H  H19  1  0.24999995  0.86804292  0.00000102  1  0.101899  0  0.114474  0.145326  0  1.001232  0
H  H20  1  0.31106249  0.66493964  0.45557688  1  0.529774  0  0.294266  0.313147  0  1.006669  0
H  H21  1  0.81107947  0.83505179  0.04441060  1  0.530082  0  0.294324  0.313059  0  1.006736  0
H  H22  1  0.18896257  0.66493966  0.54442043  1  0.529846  0  0.29428  0.313135  0  1.006625  0
H  H23  1  0.68891678  0.83504802  0.95559035  1  0.530092  0  0.294316  0.313044  0  1.006788  0
H  H24  1  0.68895420  0.33505879  0.54442044  1  0.529823  0  0.294265  0.313098  0  1.006688  0
H  H25  1  0.18891049  0.16494914  0.95559015  1  0.53008  0  0.294305  0.313052  0  1.006761  0
H  H26  1  0.81105693  0.33506003  0.45557746  1  0.529762  0  0.294238  0.313035  0  1.006715  0
H  H27  1  0.31106755  0.16494794  0.04441155  1  0.530096  0  0.294316  0.313041  0  1.006782  0
C  C28  1  0.25000493  0.89406166  0.49999729  1  1.63663  0  0.341058  0.56369  0  4.06125  0
C  C29  1  0.75000006  0.60595190  0.00000325  1  1.635169  0  0.340965  0.563648  0  4.061348  0
C  C30  1  0.75000472  0.10593802  0.49999773  1  1.63663  0  0.341175  0.563805  0  4.061188  0
C  C31  1  0.24998982  0.39404856  0.00000090  1  1.635179  0  0.341007  0.563736  0  4.06135  0
C  C32  1  0.20539376  0.14233192  0.56500385  1  0.453819  0  0.056985  0.152952  0  3.952585  0
C  C33  1  0.70535655  0.35765494  0.93500558  1  0.454031  0  0.057012  0.152747  0  3.9527  0
C  C34  1  0.29460958  0.14233421  0.43499217  1  0.453531  0  0.057086  0.152951  0  3.952359  0
C  C35  1  0.79464335  0.35765877  0.06500144  1  0.453781  0  0.057055  0.152794  0  3.952528  0
C  C36  1  0.79462011  0.85766279  0.43499175  1  0.4533  0  0.057059  0.15289  0  3.952475  0
C  C37  1  0.29463340  0.64234474  0.06499976  1  0.45366  0  0.057004  0.1529  0  3.952385  0
C  C38  1  0.70539445  0.85766423  0.56500171  1  0.453565  0  0.056947  0.152871  0  3.952519  0
C  C39  1  0.20535927  0.64234464  0.93500218  1  0.453765  0  0.057049  0.152905  0  3.952466  0
C  C40  1  0.25000031  0.23342147  0.50000022  1  -0.005634  0  -0.101937  -0.200574  0  3.964724  0
C  C41  1  0.75000407  0.26657256  0.00000071  1  -0.005102  0  -0.101717  -0.200017  0  3.965023  0
C  C42  1  0.75000934  0.76658442  0.49999997  1  -0.005214  0  -0.101928  -0.200525  0  3.964838  0
C  C43  1  0.24999283  0.73342913  0.00000172  1  -0.004863  0  -0.101823  -0.200343  0  3.964987  0
C  C44  1  0.96755817  0.97986803  0.83157491  1  0.625775  0  0.132884  0.231942  0  4.246442  0
C  C45  1  0.46755372  0.52012577  0.66845631  1  0.624903  0  0.132856  0.23196  0  4.24562  0
C  C46  1  0.53242700  0.97986641  0.16842347  1  0.625961  0  0.13292  0.231987  0  4.246347  0
C  C47  1  0.03244725  0.52013133  0.33154644  1  0.625414  0  0.1329  0.231973  0  4.245569  0
C  C48  1  0.03244023  0.02014160  0.16842527  1  0.625367  0  0.132909  0.232004  0  4.246223  0
C  C49  1  0.53244046  0.47987267  0.33154273  1  0.625216  0  0.132945  0.23208  0  4.245535  0
C  C50  1  0.46756155  0.02012582  0.83157614  1  0.626131  0  0.132946  0.232146  0  4.246461  0
C  C51  1  0.96755678  0.47986835  0.66845145  1  0.625478  0  0.132772  0.231947  0  4.245815  0
S  S52  1  0.88856304  0.88168971  0.75481534  1  0.042084  0  -0.16598  -0.260339  0  3.265368  0
S  S53  1  0.38855800  0.61831246  0.74521010  1  0.041526  0  -0.166042  -0.260432  0  3.265585  0
S  S54  1  0.61143327  0.88169136  0.24518552  1  0.042058  0  -0.166021  -0.260452  0  3.265339  0
S  S55  1  0.11144731  0.61831665  0.25478902  1  0.041388  0  -0.166047  -0.260471  0  3.265543  0
S  S56  1  0.11142973  0.11831494  0.24518942  1  0.042196  0  -0.16602  -0.260492  0  3.265503  0
S  S57  1  0.61144603  0.38168598  0.25478722  1  0.041404  0  -0.166045  -0.260542  0  3.265375  0
S  S58  1  0.38856232  0.11830583  0.75481466  1  0.041908  0  -0.166026  -0.26047  0  3.265295  0
S  S59  1  0.88855813  0.38168428  0.74520829  1  0.041504  0  -0.166019  -0.260369  0  3.265405  0
N  N60  1  0.25001186  0.72868314  0.49999974  1  -1.399357  0  -0.573455  -0.644169  0  3.367906  0
N  N61  1  0.74999883  0.77131473  0.99999970  1  -1.400066  0  -0.573366  -0.643805  0  3.368594  0
N  N62  1  0.75000342  0.27131779  0.49999872  1  -1.399348  0  -0.573447  -0.644022  0  3.367843  0
N  N63  1  0.24998831  0.22868495  0.00000049  1  -1.400069  0  -0.573395  -0.643889  0  3.368594  0
N  N64  1  0.20820759  0.97567014  0.56656654  1  -1.162365  0  -0.352131  -0.349847  0  3.457646  0
N  N65  1  0.70815766  0.52432383  0.93343897  1  -1.16176  0  -0.352271  -0.34996  0  3.457419  0
N  N66  1  0.29180658  0.97567365  0.43343247  1  -1.162575  0  -0.35216  -0.34985  0  3.45761  0
N  N67  1  0.79183400  0.52432392  0.06655856  1  -1.161887  0  -0.352341  -0.349975  0  3.4575  0
N  N68  1  0.79180206  0.02433203  0.43343249  1  -1.162451  0  -0.352211  -0.349936  0  3.457612  0
N  N69  1  0.29182526  0.47567710  0.06656121  1  -1.161853  0  -0.352284  -0.349999  0  3.457382  0
N  N70  1  0.70819604  0.02433349  0.56656599  1  -1.162445  0  -0.35215  -0.349852  0  3.457517  0
N  N71  1  0.20815877  0.47567452  0.93344162  1  -1.161804  0  -0.352287  -0.349986  0  3.457512  0
N  N72  1  0.02923757  0.05319456  0.88440267  1  -1.240082  0  -0.342044  -0.411871  0  2.95031  0
N  N73  1  0.52928328  0.44677169  0.61563080  1  -1.238859  0  -0.342014  -0.411919  0  2.949364  0
N  N74  1  0.47074597  0.05318325  0.11559639  1  -1.240243  0  -0.342036  -0.411842  0  2.950425  0
N  N75  1  0.97072939  0.44677938  0.38436860  1  -1.239264  0  -0.342028  -0.411876  0  2.949428  0
N  N76  1  0.97075239  0.94682004  0.11559752  1  -1.239778  0  -0.342022  -0.411846  0  2.950165  0
N  N77  1  0.47073200  0.55322923  0.38436537  1  -1.239046  0  -0.342094  -0.411978  0  2.949531  0
N  N78  1  0.52923836  0.94681022  0.88440207  1  -1.24024  0  -0.342049  -0.411962  0  2.950545  0
N  N79  1  0.02928308  0.55322030  0.61563044  1  -1.239388  0  -0.341921  -0.411906  0  2.949664  0
