# generated using pymatgen
data_SmH8C9O8
_symmetry_space_group_name_H-M   'P 1'
_cell_length_a   7.80020883
_cell_length_b   8.27359611
_cell_length_c   19.09073686
_cell_angle_alpha   89.99999094
_cell_angle_beta   89.99997535
_cell_angle_gamma   106.11499525
_symmetry_Int_Tables_number   1
_chemical_formula_structural   SmH8C9O8
_chemical_formula_sum   'Sm4 H32 C36 O32'
_cell_volume   1183.62461065
_cell_formula_units_Z   4
loop_
 _symmetry_equiv_pos_site_id
 _symmetry_equiv_pos_as_xyz
  1  'x, y, z'
loop_
 _atom_site_type_symbol
 _atom_site_label
 _atom_site_symmetry_multiplicity
 _atom_site_fract_x
 _atom_site_fract_y
 _atom_site_fract_z
 _atom_site_occupancy
 _atom_site_hle17_bader_spin_density
 _atom_site_hle17_ddec_charge
 _atom_site_hle17_ddec_spin_density
 _atom_site_hle17_ddec_sum_bond_order
 _atom_site_hle17_magmom
 _atom_site_hse06_10hf_bader_spin_density
 _atom_site_hse06_10hf_ddec_charge
 _atom_site_hse06_10hf_ddec_spin_density
 _atom_site_hse06_10hf_ddec_sum_bond_order
 _atom_site_hse06_10hf_magmom
 _atom_site_hse06_bader_spin_density
 _atom_site_hse06_ddec_charge
 _atom_site_hse06_ddec_spin_density
 _atom_site_hse06_ddec_sum_bond_order
 _atom_site_hse06_magmom
 _atom_site_pbe_bader_spin_density
 _atom_site_pbe_cm5_charge
 _atom_site_pbe_ddec_charge
 _atom_site_pbe_ddec_spin_density
 _atom_site_pbe_ddec_sum_bond_order
 _atom_site_pbe_magmom
Sm  Sm0  1  0.75798215  0.25300507  0.51785264  1  0  2.327985  0  1.633598  0  0  2.235071  0  1.992241  0  0  2.27813  0  1.947633  0  0  1.500311  2.141297  0  2.140765  0
Sm  Sm1  1  0.74201907  0.74699392  0.01785516  1  0  2.327976  0  1.633555  0  0  2.235059  0  1.992185  0  0  2.278113  0  1.947582  0  0  1.50035  2.141293  0  2.14069  0
Sm  Sm2  1  0.24202008  0.74699339  0.48214583  1  0  2.327953  0  1.633553  0  0  2.235031  0  1.992187  0  0  2.278087  0  1.947581  0  0  1.500329  2.14125  0  2.140713  0
Sm  Sm3  1  0.25798226  0.25300581  0.98214750  1  0  2.327951  0  1.633634  0  0  2.235035  0  1.992277  0  0  2.278088  0  1.947673  0  0  1.500317  2.141238  0  2.14084  0
H  H4  1  0.51308820  0.24592517  0.63960333  1  0  0.437187  0  0.808373  0  0  0.422818  0  0.857707  0  0  0.430502  0  0.849135  0  0  0.333486  0.41715  0  0.86324  0
H  H5  1  0.98691218  0.75408003  0.13960476  1  0  0.437209  0  0.808291  0  0  0.422843  0  0.857625  0  0  0.430528  0  0.849049  0  0  0.333498  0.417175  0  0.863157  0
H  H6  1  0.48691131  0.75407708  0.36039514  1  0  0.437167  0  0.80832  0  0  0.422804  0  0.857656  0  0  0.430489  0  0.84908  0  0  0.333468  0.417135  0  0.863188  0
H  H7  1  0.01309139  0.24592725  0.86039685  1  0  0.437191  0  0.808329  0  0  0.422823  0  0.857663  0  0  0.430507  0  0.849089  0  0  0.333493  0.417154  0  0.863196  0
H  H8  1  0.37837395  0.15842752  0.57857270  1  0  0.441021  0  0.853158  0  0  0.409296  0  0.917305  0  0  0.420984  0  0.900054  0  0  0.303037  0.400736  0  0.929753  0
H  H9  1  0.12162338  0.84157074  0.07857367  1  0  0.440986  0  0.853222  0  0  0.409242  0  0.917391  0  0  0.420926  0  0.900146  0  0  0.303006  0.400682  0  0.929838  0
H  H10  1  0.62162572  0.84157096  0.42142524  1  0  0.441081  0  0.853093  0  0  0.40935  0  0.917237  0  0  0.421032  0  0.899995  0  0  0.303045  0.400791  0  0.929684  0
H  H11  1  0.87837538  0.15842900  0.92142689  1  0  0.441032  0  0.853145  0  0  0.409307  0  0.91729  0  0  0.420994  0  0.900041  0  0  0.303039  0.400748  0  0.929738  0
H  H12  1  0.77419504  0.62384235  0.48378008  1  0  0.453086  0  0.839484  0  0  0.422153  0  0.901799  0  0  0.432811  0  0.886255  0  0  0.3104  0.414382  0  0.912963  0
H  H13  1  0.72580690  0.37615630  0.98378018  1  0  0.453092  0  0.839476  0  0  0.422148  0  0.901806  0  0  0.432805  0  0.886262  0  0  0.310381  0.414379  0  0.912966  0
H  H14  1  0.22580757  0.37615738  0.51621943  1  0  0.453093  0  0.839475  0  0  0.422152  0  0.901801  0  0  0.432809  0  0.886258  0  0  0.310392  0.414384  0  0.91296  0
H  H15  1  0.27419533  0.62384217  0.01621934  1  0  0.453072  0  0.839507  0  0  0.422141  0  0.901819  0  0  0.432798  0  0.886275  0  0  0.310406  0.414372  0  0.91298  0
H  H16  1  0.60359923  0.55605989  0.53268602  1  0  0.448244  0  0.813564  0  0  0.424863  0  0.877431  0  0  0.433096  0  0.865757  0  0  0.327523  0.418685  0  0.883909  0
H  H17  1  0.89640085  0.44393531  0.03268801  1  0  0.448325  0  0.813432  0  0  0.424995  0  0.877243  0  0  0.433231  0  0.865578  0  0  0.327572  0.418811  0  0.88374  0
H  H18  1  0.39639841  0.44393607  0.46731088  1  0  0.448324  0  0.813468  0  0  0.424988  0  0.877276  0  0  0.433223  0  0.865589  0  0  0.327588  0.418806  0  0.883769  0
H  H19  1  0.10360026  0.55605938  0.96731256  1  0  0.4483  0  0.813493  0  0  0.424941  0  0.877329  0  0  0.433175  0  0.865651  0  0  0.327555  0.418761  0  0.883815  0
H  H20  1  0.60566384  0.43357439  0.36969284  1  0  0.100422  0  0.96635  0  0  0.108063  0  1.033035  0  0  0.112008  0  1.029898  0  0  0.108118  0.10535  0  1.035036  0
H  H21  1  0.89433696  0.56642435  0.86969341  1  0  0.100415  0  0.966378  0  0  0.108052  0  1.033079  0  0  0.112  0  1.029939  0  0  0.10811  0.105345  0  1.035069  0
H  H22  1  0.39433583  0.56642409  0.63030773  1  0  0.10041  0  0.966322  0  0  0.108018  0  1.033055  0  0  0.111963  0  1.02992  0  0  0.108091  0.105307  0  1.035057  0
H  H23  1  0.10566437  0.43357538  0.13030663  1  0  0.1004  0  0.966385  0  0  0.108039  0  1.033075  0  0  0.111986  0  1.029935  0  0  0.108106  0.105333  0  1.035064  0
H  H24  1  0.65680752  0.58175837  0.25398697  1  0  0.099292  0  0.940007  0  0  0.109633  0  0.997648  0  0  0.113662  0  0.99485  0  0  0.104637  0.106566  0  1.000116  0
H  H25  1  0.84319272  0.41824675  0.75398809  1  0  0.099283  0  0.940034  0  0  0.109629  0  0.997678  0  0  0.113656  0  0.99488  0  0  0.104622  0.106559  0  1.000146  0
H  H26  1  0.34319124  0.41824137  0.74601359  1  0  0.099278  0  0.940021  0  0  0.109619  0  0.997665  0  0  0.113648  0  0.994868  0  0  0.104638  0.106552  0  1.000133  0
H  H27  1  0.15680844  0.58175676  0.24601300  1  0  0.099228  0  0.940026  0  0  0.109585  0  0.997659  0  0  0.113616  0  0.994862  0  0  0.104594  0.106513  0  1.000129  0
H  H28  1  0.31582304  0.14506329  0.15408412  1  0  0.099263  0  0.974786  0  0  0.10481  0  1.042906  0  0  0.108455  0  1.040703  0  0  0.106361  0.10256  0  1.043658  0
H  H29  1  0.18417825  0.85493993  0.65408576  1  0  0.099161  0  0.974941  0  0  0.104712  0  1.043066  0  0  0.108355  0  1.040866  0  0  0.106316  0.102462  0  1.043816  0
H  H30  1  0.68417647  0.85493896  0.84591540  1  0  0.099223  0  0.974852  0  0  0.104785  0  1.042943  0  0  0.108431  0  1.040739  0  0  0.106344  0.102537  0  1.043695  0
H  H31  1  0.81581816  0.14506485  0.34591533  1  0  0.099231  0  0.97485  0  0  0.104763  0  1.042977  0  0  0.10841  0  1.040769  0  0  0.106354  0.102517  0  1.043733  0
H  H32  1  0.25949172  0.99791448  0.27047877  1  0  0.102982  0  0.936947  0  0  0.112577  0  0.994947  0  0  0.116747  0  0.991918  0  0  0.105249  0.109422  0  0.997548  0
H  H33  1  0.24050558  0.00208867  0.77047993  1  0  0.103027  0  0.936999  0  0  0.112657  0  0.99495  0  0  0.116827  0  0.991922  0  0  0.105293  0.109502  0  0.997552  0
H  H34  1  0.74050229  0.00208653  0.72952023  1  0  0.102977  0  0.936968  0  0  0.112632  0  0.994901  0  0  0.116803  0  0.99187  0  0  0.105266  0.109476  0  0.997505  0
H  H35  1  0.75949008  0.99791359  0.22952064  1  0  0.103005  0  0.936906  0  0  0.1126  0  0.994911  0  0  0.116771  0  0.991883  0  0  0.105257  0.109446  0  0.997512  0
C  C36  1  0.42923667  0.20654963  0.32658138  1  0  -0.067669  0  3.744427  0  0  -0.045268  0  3.97388  0  0  -0.053057  0  3.997811  0  0  -0.014411  -0.040636  0  3.959254  0
C  C37  1  0.07076110  0.79345096  0.82658252  1  0  -0.067809  0  3.744495  0  0  -0.045411  0  3.97392  0  0  -0.053202  0  3.997848  0  0  -0.014406  -0.040783  0  3.959302  0
C  C38  1  0.57075990  0.79345137  0.67341814  1  0  -0.067916  0  3.744525  0  0  -0.045471  0  3.973968  0  0  -0.05326  0  3.997895  0  0  -0.014443  -0.040848  0  3.959346  0
C  C39  1  0.92923969  0.20655129  0.17341804  1  0  -0.067658  0  3.744431  0  0  -0.045314  0  3.973901  0  0  -0.053103  0  3.997827  0  0  -0.014438  -0.040685  0  3.959281  0
C  C40  1  0.54004498  0.37182846  0.32255794  1  0  -0.069995  0  3.732822  0  0  -0.094959  0  3.986084  0  0  -0.095914  0  4.007066  0  0  -0.080244  -0.094318  0  3.97252  0
C  C41  1  0.95995550  0.62816906  0.82255850  1  0  -0.069896  0  3.732744  0  0  -0.094855  0  3.985997  0  0  -0.095803  0  4.006962  0  0  -0.08019  -0.094217  0  3.972434  0
C  C42  1  0.45995469  0.62817002  0.67744157  1  0  -0.069915  0  3.732642  0  0  -0.094863  0  3.985912  0  0  -0.095817  0  4.006888  0  0  -0.080229  -0.094223  0  3.972345  0
C  C43  1  0.04004455  0.37183068  0.17744154  1  0  -0.070003  0  3.732748  0  0  -0.094953  0  3.986015  0  0  -0.095908  0  4.006997  0  0  -0.080223  -0.094315  0  3.972449  0
C  C44  1  0.56918005  0.45416627  0.25830950  1  0  -0.067544  0  3.730505  0  0  -0.090354  0  3.980024  0  0  -0.09177  0  4.001226  0  0  -0.081102  -0.089518  0  3.966504  0
C  C45  1  0.93081560  0.54583634  0.75830902  1  0  -0.067569  0  3.730626  0  0  -0.090402  0  3.980164  0  0  -0.091815  0  4.001364  0  0  -0.081136  -0.089565  0  3.966646  0
C  C46  1  0.43081562  0.54583599  0.74169159  1  0  -0.067476  0  3.730447  0  0  -0.090298  0  3.979965  0  0  -0.09171  0  4.001167  0  0  -0.081086  -0.089465  0  3.966447  0
C  C47  1  0.06918519  0.45416591  0.24169049  1  0  -0.067382  0  3.730435  0  0  -0.090209  0  3.979948  0  0  -0.091629  0  4.001154  0  0  -0.081062  -0.089373  0  3.966426  0
C  C48  1  0.48896080  0.37238236  0.19740930  1  0  -0.058611  0  3.730093  0  0  -0.035582  0  3.955783  0  0  -0.043135  0  3.979837  0  0  -0.009699  -0.031193  0  3.941237  0
C  C49  1  0.01103547  0.62761707  0.69740889  1  0  -0.058641  0  3.730176  0  0  -0.035595  0  3.955856  0  0  -0.043152  0  3.979913  0  0  -0.009675  -0.031206  0  3.94131  0
C  C50  1  0.51103796  0.62761738  0.80259232  1  0  -0.058693  0  3.730216  0  0  -0.035641  0  3.955858  0  0  -0.043204  0  3.979927  0  0  -0.00966  -0.031244  0  3.941312  0
C  C51  1  0.98896238  0.37238393  0.30259115  1  0  -0.058745  0  3.730101  0  0  -0.035725  0  3.955808  0  0  -0.043282  0  3.979866  0  0  -0.009702  -0.031335  0  3.941261  0
C  C52  1  0.37680662  0.20775166  0.20168992  1  0  -0.063666  0  3.726767  0  0  -0.085986  0  3.976185  0  0  -0.087425  0  3.998039  0  0  -0.078156  -0.08504  0  3.961874  0
C  C53  1  0.12319205  0.79225154  0.70169053  1  0  -0.063527  0  3.726716  0  0  -0.085884  0  3.976192  0  0  -0.087322  0  3.998048  0  0  -0.078123  -0.084938  0  3.961882  0
C  C54  1  0.62319161  0.79225060  0.79831064  1  0  -0.063524  0  3.726771  0  0  -0.085853  0  3.976188  0  0  -0.08729  0  3.998045  0  0  -0.078088  -0.084914  0  3.96188  0
C  C55  1  0.87680602  0.20775449  0.29830951  1  0  -0.063481  0  3.726752  0  0  -0.085775  0  3.97616  0  0  -0.087212  0  3.998015  0  0  -0.078101  -0.084839  0  3.961856  0
C  C56  1  0.34616921  0.12585462  0.26591793  1  0  -0.06645  0  3.728324  0  0  -0.088551  0  3.97582  0  0  -0.089888  0  3.996959  0  0  -0.080718  -0.087759  0  3.962306  0
C  C57  1  0.15382901  0.87414728  0.76591958  1  0  -0.066551  0  3.728365  0  0  -0.088674  0  3.975884  0  0  -0.090011  0  3.997023  0  0  -0.080822  -0.08788  0  3.962372  0
C  C58  1  0.65382571  0.87414513  0.73408158  1  0  -0.06647  0  3.728317  0  0  -0.088646  0  3.975824  0  0  -0.089983  0  3.996962  0  0  -0.080804  -0.087849  0  3.962308  0
C  C59  1  0.84617087  0.12585624  0.23408151  1  0  -0.066586  0  3.72828  0  0  -0.088687  0  3.975793  0  0  -0.090025  0  3.996932  0  0  -0.080759  -0.087892  0  3.962281  0
C  C60  1  0.40679636  0.11087364  0.39400780  1  0  0.706702  0  3.879787  0  0  0.662111  0  4.173084  0  0  0.697527  0  4.160808  0  0  0.228678  0.63768  0  4.176888  0
C  C61  1  0.09319984  0.88912187  0.89400946  1  0  0.706869  0  3.87963  0  0  0.662333  0  4.172836  0  0  0.69775  0  4.160551  0  0  0.228721  0.637902  0  4.176642  0
C  C62  1  0.59319669  0.88911982  0.60599015  1  0  0.706792  0  3.879728  0  0  0.662143  0  4.173104  0  0  0.697558  0  4.160825  0  0  0.228568  0.637713  0  4.176905  0
C  C63  1  0.90679946  0.11087534  0.10599163  1  0  0.706663  0  3.879916  0  0  0.662172  0  4.173071  0  0  0.697589  0  4.160791  0  0  0.228679  0.637741  0  4.176875  0
C  C64  1  0.52295548  0.46063024  0.12823019  1  0  0.717945  0  3.859395  0  0  0.674827  0  4.148292  0  0  0.710281  0  4.136008  0  0  0.233757  0.650478  0  4.151448  0
C  C65  1  0.97705041  0.53937621  0.62822918  1  0  0.718014  0  3.859378  0  0  0.674909  0  4.14825  0  0  0.710363  0  4.135969  0  0  0.233826  0.65056  0  4.151408  0
C  C66  1  0.47704861  0.53937452  0.87177090  1  0  0.717982  0  3.859338  0  0  0.674863  0  4.148223  0  0  0.710318  0  4.135937  0  0  0.233793  0.650511  0  4.151382  0
C  C67  1  0.02295700  0.46063106  0.37176981  1  0  0.717994  0  3.859336  0  0  0.674891  0  4.148206  0  0  0.710345  0  4.135922  0  0  0.233794  0.650543  0  4.151363  0
C  C68  1  0.07298509  0.05991618  0.52289442  1  0  0.585179  0  3.870345  0  0  0.537839  0  4.171006  0  0  0.568128  0  4.161355  0  0  0.233111  0.517444  0  4.171786  0
C  C69  1  0.42701972  0.94006824  0.02289742  1  0  0.584988  0  3.870408  0  0  0.537832  0  4.17085  0  0  0.568122  0  4.161198  0  0  0.233113  0.517437  0  4.171629  0
C  C70  1  0.92702328  0.94006842  0.47710143  1  0  0.585113  0  3.870358  0  0  0.537982  0  4.170775  0  0  0.568271  0  4.161124  0  0  0.233179  0.517587  0  4.171557  0
C  C71  1  0.57298133  0.05991764  0.97710419  1  0  0.585191  0  3.870182  0  0  0.537892  0  4.170785  0  0  0.568181  0  4.161132  0  0  0.233144  0.517495  0  4.171563  0
O  O72  1  0.51222052  0.17207095  0.44462658  1  0  -0.780374  0  2.068731  0  0  -0.739978  0  2.343474  0  0  -0.763242  0  2.326652  0  0  -0.425403  -0.71257  0  2.354875  0
O  O73  1  0.98778605  0.82793024  0.94462817  1  0  -0.780353  0  2.068828  0  0  -0.73997  0  2.343525  0  0  -0.763228  0  2.326697  0  0  -0.425335  -0.712566  0  2.354927  0
O  O74  1  0.48778795  0.82793128  0.55537346  1  0  -0.780228  0  2.068839  0  0  -0.739821  0  2.343623  0  0  -0.763082  0  2.326801  0  0  -0.425249  -0.712412  0  2.355021  0
O  O75  1  0.01221895  0.17207326  0.05537292  1  0  -0.780332  0  2.068846  0  0  -0.739959  0  2.343521  0  0  -0.763219  0  2.326698  0  0  -0.425384  -0.71255  0  2.354924  0
O  O76  1  0.28646545  0.97182493  0.39743143  1  0  -0.727456  0  2.036099  0  0  -0.685754  0  2.280486  0  0  -0.709956  0  2.268447  0  0  -0.388344  -0.661232  0  2.290493  0
O  O77  1  0.21353849  0.02817937  0.89743312  1  0  -0.727519  0  2.03589  0  0  -0.685847  0  2.28026  0  0  -0.710053  0  2.268222  0  0  -0.388383  -0.661321  0  2.290267  0
O  O78  1  0.71353444  0.02817858  0.60256913  1  0  -0.727547  0  2.035889  0  0  -0.685836  0  2.280309  0  0  -0.710041  0  2.268272  0  0  -0.388345  -0.661312  0  2.290313  0
O  O79  1  0.78646999  0.97182286  0.10256849  1  0  -0.727431  0  2.036037  0  0  -0.68576  0  2.280372  0  0  -0.709966  0  2.268339  0  0  -0.388347  -0.661241  0  2.290378  0
O  O80  1  0.64382433  0.59993757  0.12504853  1  0  -0.719874  0  1.992861  0  0  -0.678407  0  2.234983  0  0  -0.702305  0  2.221914  0  0  -0.394741  -0.654029  0  2.24562  0
O  O81  1  0.85617404  0.40006512  0.62504755  1  0  -0.719852  0  1.992731  0  0  -0.678384  0  2.234824  0  0  -0.702287  0  2.221758  0  0  -0.394767  -0.654004  0  2.245461  0
O  O82  1  0.35617352  0.40006342  0.87495309  1  0  -0.71986  0  1.992699  0  0  -0.678391  0  2.234805  0  0  -0.702289  0  2.221736  0  0  -0.394769  -0.654007  0  2.245443  0
O  O83  1  0.14382729  0.59993461  0.37495092  1  0  -0.719835  0  1.992845  0  0  -0.678371  0  2.234959  0  0  -0.70227  0  2.221891  0  0  -0.394757  -0.653993  0  2.245596  0
O  O84  1  0.43012960  0.39316675  0.07535115  1  0  -0.78981  0  2.077994  0  0  -0.751709  0  2.351094  0  0  -0.775499  0  2.335305  0  0  -0.415433  -0.723056  0  2.361045  0
O  O85  1  0.06987472  0.60683779  0.57535283  1  0  -0.789871  0  2.078037  0  0  -0.751761  0  2.351102  0  0  -0.775553  0  2.335311  0  0  -0.415456  -0.72311  0  2.361052  0
O  O86  1  0.56987247  0.60683550  0.92464889  1  0  -0.789834  0  2.077956  0  0  -0.751737  0  2.351049  0  0  -0.77554  0  2.335286  0  0  -0.415462  -0.723087  0  2.361  0
O  O87  1  0.93012772  0.39316572  0.42464878  1  0  -0.78988  0  2.077954  0  0  -0.751777  0  2.351036  0  0  -0.775574  0  2.335252  0  0  -0.415462  -0.723129  0  2.36099  0
O  O88  1  0.05447136  0.20465663  0.53511134  1  0  -0.658173  0  2.090022  0  0  -0.608931  0  2.321764  0  0  -0.632074  0  2.310853  0  0  -0.346995  -0.586241  0  2.330559  0
O  O89  1  0.44552383  0.79534292  0.03511592  1  0  -0.657925  0  2.090531  0  0  -0.608734  0  2.32219  0  0  -0.631868  0  2.311279  0  0  -0.346875  -0.586047  0  2.330982  0
O  O90  1  0.94552522  0.79534437  0.46488346  1  0  -0.657914  0  2.090664  0  0  -0.608731  0  2.322325  0  0  -0.63187  0  2.311417  0  0  -0.346856  -0.586045  0  2.331119  0
O  O91  1  0.55447108  0.20465683  0.96488674  1  0  -0.658061  0  2.090056  0  0  -0.608823  0  2.321768  0  0  -0.631963  0  2.310855  0  0  -0.346927  -0.586129  0  2.330559  0
O  O92  1  0.20009354  0.00477180  0.54399470  1  0  -0.65708  0  2.101758  0  0  -0.608822  0  2.336866  0  0  -0.633038  0  2.326665  0  0  -0.327525  -0.585447  0  2.344476  0
O  O93  1  0.29989870  0.99522650  0.04399877  1  0  -0.657146  0  2.101342  0  0  -0.608943  0  2.33637  0  0  -0.633162  0  2.326169  0  0  -0.327605  -0.585564  0  2.343984  0
O  O94  1  0.79989807  0.99522544  0.45599906  1  0  -0.657255  0  2.101164  0  0  -0.60905  0  2.33617  0  0  -0.63327  0  2.325968  0  0  -0.327658  -0.585674  0  2.34379  0
O  O95  1  0.70009125  0.00476949  0.95600442  1  0  -0.657171  0  2.101627  0  0  -0.608927  0  2.336711  0  0  -0.633142  0  2.326508  0  0  -0.327607  -0.585555  0  2.344326  0
O  O96  1  0.48827929  0.25050181  0.58985094  1  0  -0.878987  0  1.856559  0  0  -0.838436  0  2.042491  0  0  -0.855873  0  2.014317  0  0  -0.619061  -0.819484  0  2.066032  0
O  O97  1  0.01172224  0.74949769  0.08985298  1  0  -0.878982  0  1.856504  0  0  -0.838415  0  2.042463  0  0  -0.855848  0  2.014291  0  0  -0.619061  -0.819459  0  2.06599  0
O  O98  1  0.51172278  0.74950044  0.41014753  1  0  -0.879031  0  1.856449  0  0  -0.838476  0  2.042412  0  0  -0.85591  0  2.014241  0  0  -0.619061  -0.819521  0  2.065946  0
O  O99  1  0.98827909  0.25050204  0.91014916  1  0  -0.878998  0  1.856506  0  0  -0.83845  0  2.042438  0  0  -0.855884  0  2.014264  0  0  -0.619072  -0.819494  0  2.06598  0
O  O100  1  0.68596687  0.52106035  0.50169507  1  0  -0.913622  0  1.884305  0  0  -0.871371  0  2.087612  0  0  -0.889192  0  2.056357  0  0  -0.632883  -0.851266  0  2.111808  0
O  O101  1  0.81403452  0.47893488  0.00169602  1  0  -0.913735  0  1.884202  0  0  -0.871544  0  2.087399  0  0  -0.88937  0  2.056175  0  0  -0.632935  -0.851441  0  2.111602  0
O  O102  1  0.31403552  0.47893435  0.49830445  1  0  -0.913718  0  1.884225  0  0  -0.871513  0  2.087455  0  0  -0.889333  0  2.056188  0  0  -0.632948  -0.851409  0  2.111658  0
O  O103  1  0.18596696  0.52106107  0.99830507  1  0  -0.91367  0  1.884287  0  0  -0.871441  0  2.087528  0  0  -0.889277  0  2.056302  0  0  -0.632926  -0.851335  0  2.111729  0
