# generated using pymatgen
data_YbH15C11O6
_symmetry_space_group_name_H-M   'P 1'
_cell_length_a   8.05534381
_cell_length_b   10.65038641
_cell_length_c   14.72395714
_cell_angle_alpha   90.00025812
_cell_angle_beta   90.00020538
_cell_angle_gamma   89.99981855
_symmetry_Int_Tables_number   1
_chemical_formula_structural   YbH15C11O6
_chemical_formula_sum   'Yb4 H60 C44 O24'
_cell_volume   1263.20544972
_cell_formula_units_Z   4
loop_
 _symmetry_equiv_pos_site_id
 _symmetry_equiv_pos_as_xyz
  1  'x, y, z'
loop_
 _atom_site_type_symbol
 _atom_site_label
 _atom_site_symmetry_multiplicity
 _atom_site_fract_x
 _atom_site_fract_y
 _atom_site_fract_z
 _atom_site_occupancy
 _atom_site_hle17_bader_spin_density
 _atom_site_hle17_ddec_charge
 _atom_site_hle17_ddec_spin_density
 _atom_site_hle17_ddec_sum_bond_order
 _atom_site_hle17_magmom
 _atom_site_hse06_10hf_bader_spin_density
 _atom_site_hse06_10hf_ddec_charge
 _atom_site_hse06_10hf_ddec_spin_density
 _atom_site_hse06_10hf_ddec_sum_bond_order
 _atom_site_hse06_10hf_magmom
 _atom_site_hse06_bader_spin_density
 _atom_site_hse06_ddec_charge
 _atom_site_hse06_ddec_spin_density
 _atom_site_hse06_ddec_sum_bond_order
 _atom_site_hse06_magmom
 _atom_site_pbe_bader_spin_density
 _atom_site_pbe_cm5_charge
 _atom_site_pbe_ddec_charge
 _atom_site_pbe_ddec_spin_density
 _atom_site_pbe_ddec_sum_bond_order
 _atom_site_pbe_magmom
Yb  Yb0  1  0.92286998  0.29911763  0.00174956  1  0  2.273196  0  1.711246  0  0  2.131346  0  2.193602  0  0  2.264659  0  1.996223  0  0  1.629577  2.095097  0  2.225035  0
Yb  Yb1  1  0.57712639  0.70088623  0.50174454  1  0  2.273145  0  1.711277  0  0  2.131245  0  2.193668  0  0  2.264595  0  1.996253  0  0  1.629602  2.094997  0  2.225096  0
Yb  Yb2  1  0.07712889  0.79911612  0.49825127  1  0  2.273152  0  1.711339  0  0  2.131322  0  2.193673  0  0  2.264612  0  1.996327  0  0  1.629575  2.095068  0  2.225115  0
Yb  Yb3  1  0.42287247  0.20088451  0.99825344  1  0  2.273163  0  1.711262  0  0  2.131305  0  2.193623  0  0  2.26462  0  1.996238  0  0  1.629611  2.095058  0  2.225052  0
H  H4  1  0.23112926  0.17287637  0.69828765  1  0  0.089378  0  0.922563  0  0  0.10126  0  0.977974  0  0  0.103347  0  0.97695  0  0  0.104476  0.099975  0  0.978289  0
H  H5  1  0.26887261  0.82712146  0.19828391  1  0  0.089449  0  0.922556  0  0  0.101307  0  0.977975  0  0  0.103402  0  0.976953  0  0  0.104487  0.10002  0  0.97829  0
H  H6  1  0.76887469  0.67288326  0.80171024  1  0  0.089433  0  0.922728  0  0  0.101198  0  0.978228  0  0  0.103296  0  0.977213  0  0  0.104468  0.099913  0  0.978541  0
H  H7  1  0.73112491  0.32711871  0.30171294  1  0  0.089477  0  0.922583  0  0  0.101281  0  0.97804  0  0  0.103381  0  0.977027  0  0  0.104494  0.099996  0  0.978353  0
H  H8  1  0.31530548  0.46316284  0.82336600  1  0  0.096116  0  0.968516  0  0  0.11584  0  1.035923  0  0  0.117374  0  1.035666  0  0  0.087079  0.114769  0  1.035981  0
H  H9  1  0.18469473  0.53683670  0.32336454  1  0  0.096104  0  0.968526  0  0  0.115838  0  1.035933  0  0  0.11737  0  1.035679  0  0  0.087079  0.114778  0  1.03598  0
H  H10  1  0.68469476  0.96316446  0.67663692  1  0  0.096104  0  0.96856  0  0  0.115818  0  1.035982  0  0  0.11735  0  1.035727  0  0  0.08706  0.11476  0  1.036027  0
H  H11  1  0.81530525  0.03683298  0.17663476  1  0  0.096093  0  0.968549  0  0  0.115828  0  1.035955  0  0  0.11736  0  1.0357  0  0  0.087058  0.114756  0  1.036015  0
H  H12  1  0.14247207  0.51900026  0.76177446  1  0  0.111001  0  0.951047  0  0  0.134091  0  1.007792  0  0  0.135666  0  1.007811  0  0  0.092053  0.132969  0  1.007624  0
H  H13  1  0.35752649  0.48099514  0.26177383  1  0  0.111008  0  0.951067  0  0  0.134101  0  1.007817  0  0  0.135676  0  1.007838  0  0  0.09205  0.132978  0  1.007652  0
H  H14  1  0.85752631  0.01900527  0.73822700  1  0  0.110987  0  0.951087  0  0  0.134093  0  1.007813  0  0  0.135668  0  1.007833  0  0  0.092049  0.13297  0  1.007648  0
H  H15  1  0.64247410  0.98099255  0.23822487  1  0  0.111003  0  0.951066  0  0  0.134097  0  1.00781  0  0  0.135672  0  1.007831  0  0  0.092052  0.132973  0  1.007643  0
H  H16  1  0.34697338  0.56467807  0.72955242  1  0  0.111752  0  0.951153  0  0  0.134268  0  1.010133  0  0  0.136177  0  1.009723  0  0  0.093203  0.132982  0  1.010197  0
H  H17  1  0.15302745  0.43532276  0.22954921  1  0  0.111693  0  0.951218  0  0  0.134243  0  1.010162  0  0  0.13615  0  1.009756  0  0  0.093185  0.132954  0  1.010231  0
H  H18  1  0.65302481  0.06467814  0.77044987  1  0  0.111709  0  0.951231  0  0  0.134223  0  1.010217  0  0  0.136131  0  1.009808  0  0  0.093181  0.13293  0  1.010291  0
H  H19  1  0.84697333  0.93532082  0.27045003  1  0  0.111688  0  0.951262  0  0  0.134235  0  1.010205  0  0  0.136143  0  1.009797  0  0  0.093179  0.132941  0  1.010279  0
H  H20  1  0.56140565  0.48705861  0.89452038  1  0  0.034485  0  0.90057  0  0  0.044485  0  0.964442  0  0  0.045554  0  0.959296  0  0  0.128768  0.043933  0  0.967566  0
H  H21  1  0.93859952  0.51294957  0.39452681  1  0  0.034559  0  0.900693  0  0  0.044624  0  0.96448  0  0  0.045693  0  0.959334  0  0  0.128845  0.044072  0  0.967611  0
H  H22  1  0.43859449  0.98705474  0.60547990  1  0  0.034369  0  0.90051  0  0  0.044424  0  0.964333  0  0  0.045494  0  0.959186  0  0  0.128736  0.043871  0  0.967461  0
H  H23  1  0.06140428  0.01295284  0.10547376  1  0  0.034533  0  0.900707  0  0  0.044582  0  0.964519  0  0  0.045651  0  0.959372  0  0  0.128829  0.044031  0  0.967649  0
H  H24  1  0.90543428  0.29363560  0.73107861  1  0  0.082339  0  0.941063  0  0  0.100979  0  0.997274  0  0  0.103287  0  0.995955  0  0  0.093285  0.099442  0  0.99798  0
H  H25  1  0.59456732  0.70636593  0.23108567  1  0  0.08238  0  0.941063  0  0  0.101036  0  0.997236  0  0  0.103344  0  0.995916  0  0  0.093313  0.099496  0  0.997945  0
H  H26  1  0.09457039  0.79363263  0.76892172  1  0  0.082288  0  0.941071  0  0  0.100924  0  0.997304  0  0  0.103231  0  0.995981  0  0  0.093227  0.099388  0  0.998008  0
H  H27  1  0.40543070  0.20636469  0.26891350  1  0  0.08237  0  0.941031  0  0  0.101045  0  0.997211  0  0  0.103354  0  0.995888  0  0  0.093302  0.099505  0  0.99792  0
H  H28  1  0.96803860  0.19431115  0.64132206  1  0  0.070069  0  0.949449  0  0  0.087563  0  1.012632  0  0  0.088527  0  1.012769  0  0  0.090312  0.086828  0  1.012559  0
H  H29  1  0.53196986  0.80568888  0.14132865  1  0  0.070083  0  0.949497  0  0  0.087627  0  1.012594  0  0  0.088589  0  1.012732  0  0  0.090307  0.086891  0  1.012523  0
H  H30  1  0.03196028  0.69431077  0.85867794  1  0  0.07003  0  0.949537  0  0  0.087589  0  1.01264  0  0  0.088535  0  1.012797  0  0  0.090326  0.086851  0  1.012573  0
H  H31  1  0.46802774  0.30568899  0.35867084  1  0  0.070097  0  0.949494  0  0  0.087646  0  1.012606  0  0  0.088608  0  1.012743  0  0  0.090309  0.08691  0  1.012533  0
H  H32  1  0.94550877  0.38335288  0.55397898  1  0  0.071548  0  0.958649  0  0  0.089731  0  1.022414  0  0  0.090211  0  1.022992  0  0  0.090383  0.089454  0  1.021757  0
H  H33  1  0.55450408  0.61665131  0.05398296  1  0  0.071448  0  0.958618  0  0  0.089655  0  1.022457  0  0  0.090135  0  1.023035  0  0  0.09034  0.089379  0  1.0218  0
H  H34  1  0.05449677  0.88335204  0.94602096  1  0  0.071533  0  0.95862  0  0  0.089702  0  1.022436  0  0  0.090184  0  1.023012  0  0  0.090353  0.089426  0  1.02178  0
H  H35  1  0.44549432  0.11665202  0.44601659  1  0  0.071491  0  0.958568  0  0  0.089667  0  1.022435  0  0  0.090147  0  1.023013  0  0  0.090346  0.089391  0  1.021778  0
H  H36  1  0.97518484  0.47901821  0.64979512  1  0  0.074988  0  0.938852  0  0  0.092567  0  0.996945  0  0  0.09404  0  0.996101  0  0  0.091619  0.091617  0  0.997228  0
H  H37  1  0.52483113  0.52098281  0.14979669  1  0  0.074974  0  0.938696  0  0  0.092591  0  0.996817  0  0  0.094063  0  0.995976  0  0  0.091639  0.091643  0  0.9971  0
H  H38  1  0.02482154  0.97901873  0.85020513  1  0  0.07496  0  0.938809  0  0  0.092556  0  0.996917  0  0  0.09403  0  0.996073  0  0  0.091612  0.091606  0  0.997202  0
H  H39  1  0.47516767  0.02098192  0.35020187  1  0  0.074948  0  0.938684  0  0  0.092568  0  0.996801  0  0  0.094039  0  0.99596  0  0  0.091627  0.091619  0  0.997083  0
H  H40  1  0.18955078  0.32762687  0.45908994  1  0  0.098815  0  0.950868  0  0  0.122114  0  1.011238  0  0  0.123207  0  1.01146  0  0  0.088607  0.121327  0  1.010982  0
H  H41  1  0.31045405  0.67236976  0.95909004  1  0  0.098773  0  0.950935  0  0  0.122074  0  1.011303  0  0  0.123166  0  1.011526  0  0  0.088575  0.121287  0  1.011048  0
H  H42  1  0.81045046  0.82762734  0.04091030  1  0  0.098782  0  0.95089  0  0  0.12208  0  1.011257  0  0  0.123173  0  1.011481  0  0  0.088596  0.121293  0  1.011002  0
H  H43  1  0.68954493  0.17237113  0.54090989  1  0  0.098794  0  0.950928  0  0  0.122095  0  1.011292  0  0  0.123188  0  1.011518  0  0  0.088591  0.121308  0  1.011036  0
H  H44  1  0.22340336  0.21044824  0.54249195  1  0  0.118696  0  0.966436  0  0  0.138665  0  1.03014  0  0  0.140982  0  1.029213  0  0  0.092643  0.13709  0  1.030647  0
H  H45  1  0.27660120  0.78955050  0.04249150  1  0  0.118682  0  0.966478  0  0  0.138649  0  1.030192  0  0  0.140961  0  1.029269  0  0  0.092643  0.137072  0  1.030703  0
H  H46  1  0.77659794  0.71044951  0.95750674  1  0  0.118693  0  0.96645  0  0  0.138664  0  1.030149  0  0  0.140982  0  1.029222  0  0  0.092652  0.137088  0  1.030658  0
H  H47  1  0.72340019  0.28954873  0.45750794  1  0  0.118783  0  0.966389  0  0  0.138745  0  1.030096  0  0  0.141076  0  1.02915  0  0  0.092694  0.13717  0  1.030604  0
H  H48  1  0.38891676  0.31216913  0.50880297  1  0  0.110693  0  0.960613  0  0  0.131386  0  1.022334  0  0  0.132738  0  1.022696  0  0  0.094158  0.13044  0  1.021928  0
H  H49  1  0.11109130  0.68782376  0.00880389  1  0  0.110669  0  0.960717  0  0  0.131451  0  1.022307  0  0  0.1328  0  1.022672  0  0  0.094142  0.130502  0  1.021909  0
H  H50  1  0.61108411  0.81217100  0.99119538  1  0  0.110703  0  0.960604  0  0  0.131395  0  1.022322  0  0  0.132746  0  1.022687  0  0  0.094162  0.13045  0  1.021918  0
H  H51  1  0.88890804  0.18782369  0.49119521  1  0  0.110713  0  0.960698  0  0  0.131465  0  1.022322  0  0  0.132814  0  1.022691  0  0  0.094162  0.130516  0  1.021924  0
H  H52  1  0.51344362  0.30779808  0.75591532  1  0  0.103607  0  0.967306  0  0  0.122551  0  1.033793  0  0  0.124375  0  1.033379  0  0  0.086259  0.121346  0  1.033915  0
H  H53  1  0.98656312  0.69219985  0.25590816  1  0  0.103587  0  0.967303  0  0  0.12252  0  1.033783  0  0  0.124345  0  1.033369  0  0  0.086218  0.121316  0  1.033906  0
H  H54  1  0.48656348  0.80779871  0.74408573  1  0  0.103514  0  0.967229  0  0  0.122472  0  1.033703  0  0  0.124299  0  1.033286  0  0  0.086208  0.121268  0  1.033825  0
H  H55  1  0.01343496  0.19219940  0.24409096  1  0  0.103594  0  0.967278  0  0  0.122529  0  1.03377  0  0  0.124352  0  1.033358  0  0  0.086233  0.121325  0  1.033893  0
H  H56  1  0.54704812  0.40981939  0.66135874  1  0  0.118624  0  0.948074  0  0  0.139551  0  1.005883  0  0  0.141964  0  1.00485  0  0  0.092653  0.137867  0  1.006583  0
H  H57  1  0.95295924  0.59017795  0.16135186  1  0  0.11872  0  0.948152  0  0  0.139659  0  1.005912  0  0  0.142071  0  1.004883  0  0  0.092702  0.137973  0  1.006613  0
H  H58  1  0.45295483  0.90981975  0.83864197  1  0  0.118619  0  0.94815  0  0  0.139543  0  1.005946  0  0  0.141955  0  1.004916  0  0  0.092642  0.137858  0  1.006647  0
H  H59  1  0.04704051  0.09017894  0.33864693  1  0  0.118676  0  0.948216  0  0  0.139618  0  1.005972  0  0  0.142031  0  1.004942  0  0  0.092697  0.137933  0  1.006671  0
H  H60  1  0.48904714  0.25050782  0.64410966  1  0  0.090722  0  0.970504  0  0  0.111287  0  1.03796  0  0  0.112251  0  1.038305  0  0  0.082915  0.110575  0  1.037701  0
H  H61  1  0.01096181  0.74949061  0.14410312  1  0  0.090777  0  0.970554  0  0  0.111345  0  1.037991  0  0  0.112311  0  1.038339  0  0  0.082913  0.110633  0  1.037731  0
H  H62  1  0.51095771  0.75050721  0.85589120  1  0  0.090747  0  0.970459  0  0  0.111288  0  1.037944  0  0  0.112252  0  1.03829  0  0  0.082909  0.110576  0  1.037685  0
H  H63  1  0.98903479  0.24949134  0.35589619  1  0  0.090757  0  0.970585  0  0  0.111306  0  1.038049  0  0  0.11227  0  1.038397  0  0  0.082913  0.110594  0  1.037789  0
C  C64  1  0.17367910  0.25971468  0.72364302  1  0  -0.187336  0  3.546497  0  0  -0.188456  0  3.77052  0  0  -0.195123  0  3.781778  0  0  -0.083627  -0.183541  0  3.76138  0
C  C65  1  0.32632418  0.74028236  0.22364046  1  0  -0.187594  0  3.546917  0  0  -0.188761  0  3.771036  0  0  -0.195468  0  3.782345  0  0  -0.083656  -0.183843  0  3.761894  0
C  C66  1  0.82632200  0.75971846  0.77635652  1  0  -0.187386  0  3.546905  0  0  -0.188407  0  3.770862  0  0  -0.195149  0  3.782228  0  0  -0.083575  -0.183488  0  3.761716  0
C  C67  1  0.67367370  0.24028241  0.27635950  1  0  -0.187528  0  3.546922  0  0  -0.188616  0  3.770946  0  0  -0.195374  0  3.782335  0  0  -0.083616  -0.183698  0  3.761819  0
C  C68  1  0.17309103  0.24933322  0.82583088  1  0  0.774885  0  3.774036  0  0  0.731221  0  4.067023  0  0  0.767555  0  4.059617  0  0  0.24508  0.706904  0  4.075181  0
C  C69  1  0.32690299  0.75066071  0.32582971  1  0  0.775103  0  3.773662  0  0  0.731406  0  4.066628  0  0  0.767753  0  4.059212  0  0  0.245191  0.707087  0  4.074794  0
C  C70  1  0.82690391  0.74933730  0.67416862  1  0  0.774978  0  3.773872  0  0  0.731271  0  4.066884  0  0  0.767626  0  4.059472  0  0  0.245087  0.706952  0  4.075048  0
C  C71  1  0.67309360  0.25065637  0.17417096  1  0  0.774947  0  3.773747  0  0  0.731356  0  4.066537  0  0  0.767712  0  4.059126  0  0  0.245113  0.707017  0  4.074728  0
C  C72  1  0.27101783  0.48641066  0.75474993  1  0  -0.347473  0  3.650843  0  0  -0.430328  0  3.88847  0  0  -0.433528  0  3.898022  0  0  -0.244986  -0.427555  0  3.880958  0
C  C73  1  0.22898564  0.51358752  0.25474780  1  0  -0.34744  0  3.650979  0  0  -0.430335  0  3.888548  0  0  -0.433536  0  3.898105  0  0  -0.245005  -0.427569  0  3.881033  0
C  C74  1  0.72898231  0.98641354  0.74525239  1  0  -0.347421  0  3.65103  0  0  -0.430281  0  3.888622  0  0  -0.43348  0  3.898175  0  0  -0.24497  -0.427512  0  3.881108  0
C  C75  1  0.77101443  0.01358620  0.24525142  1  0  -0.347401  0  3.65101  0  0  -0.430298  0  3.888595  0  0  -0.433499  0  3.898151  0  0  -0.24498  -0.427518  0  3.881087  0
C  C76  1  0.66573660  0.43345677  0.92396153  1  0  0.616457  0  3.869193  0  0  0.549663  0  4.173594  0  0  0.582861  0  4.173949  0  0  0.155629  0.526508  0  4.181476  0
C  C77  1  0.83427249  0.56655723  0.42395163  1  0  0.616136  0  3.868925  0  0  0.549285  0  4.173355  0  0  0.582485  0  4.173718  0  0  0.155528  0.52612  0  4.181244  0
C  C78  1  0.33425880  0.93345109  0.57603654  1  0  0.616526  0  3.869126  0  0  0.549686  0  4.173539  0  0  0.582882  0  4.173897  0  0  0.155687  0.526529  0  4.181423  0
C  C79  1  0.16572736  0.06655913  0.07605048  1  0  0.616239  0  3.868854  0  0  0.549397  0  4.173284  0  0  0.582597  0  4.173636  0  0  0.155524  0.526234  0  4.181176  0
C  C80  1  0.28742436  0.37206905  0.69124577  1  0  0.182237  0  3.455198  0  0  0.211893  0  3.679977  0  0  0.21298  0  3.699709  0  0  0.001973  0.211351  0  3.665805  0
C  C81  1  0.21258118  0.62792779  0.19124330  1  0  0.182219  0  3.455137  0  0  0.21196  0  3.679814  0  0  0.213055  0  3.699554  0  0  0.002031  0.211417  0  3.665644  0
C  C82  1  0.71257750  0.87207236  0.80875617  1  0  0.182152  0  3.455219  0  0  0.211852  0  3.679905  0  0  0.212954  0  3.699646  0  0  0.001989  0.211309  0  3.665734  0
C  C83  1  0.78741717  0.12792683  0.30875493  1  0  0.182161  0  3.455215  0  0  0.2119  0  3.679873  0  0  0.213005  0  3.699618  0  0  0.002015  0.211358  0  3.665698  0
C  C84  1  0.00164777  0.27899480  0.67955351  1  0  -0.109846  0  3.636602  0  0  -0.158441  0  3.896694  0  0  -0.158485  0  3.907961  0  0  -0.167781  -0.158024  0  3.888215  0
C  C85  1  0.49835770  0.72100666  0.17955869  1  0  -0.10995  0  3.63678  0  0  -0.158489  0  3.896796  0  0  -0.158525  0  3.908075  0  0  -0.167763  -0.15807  0  3.888319  0
C  C86  1  0.99835449  0.77899375  0.82044541  1  0  -0.109759  0  3.636604  0  0  -0.158384  0  3.896662  0  0  -0.158395  0  3.907945  0  0  -0.167753  -0.157966  0  3.888184  0
C  C87  1  0.50163902  0.22100646  0.32044120  1  0  -0.109964  0  3.636709  0  0  -0.158597  0  3.89682  0  0  -0.158621  0  3.908106  0  0  -0.167796  -0.158177  0  3.888344  0
C  C88  1  0.01863232  0.39296885  0.61633158  1  0  -0.140879  0  3.649684  0  0  -0.188382  0  3.907191  0  0  -0.18818  0  3.919069  0  0  -0.16712  -0.18809  0  3.898102  0
C  C89  1  0.48137770  0.60703222  0.11633364  1  0  -0.140591  0  3.64925  0  0  -0.188316  0  3.907022  0  0  -0.188115  0  3.918909  0  0  -0.167032  -0.188015  0  3.897914  0
C  C90  1  0.98137194  0.89296917  0.88366975  1  0  -0.14081  0  3.649412  0  0  -0.188392  0  3.90706  0  0  -0.18819  0  3.918933  0  0  -0.167075  -0.188095  0  3.89796  0
C  C91  1  0.51862074  0.10703143  0.38366588  1  0  -0.140578  0  3.649244  0  0  -0.188242  0  3.907008  0  0  -0.188042  0  3.918895  0  0  -0.167001  -0.187942  0  3.8979  0
C  C92  1  0.20554791  0.40249029  0.59645125  1  0  -0.02447  0  3.526353  0  0  0.000936  0  3.749776  0  0  -0.004876  0  3.766629  0  0  -0.011408  0.004977  0  3.737605  0
C  C93  1  0.29446570  0.59750972  0.09645156  1  0  -0.024314  0  3.525967  0  0  0.001075  0  3.749461  0  0  -0.004718  0  3.766223  0  0  -0.011543  0.005116  0  3.737293  0
C  C94  1  0.79445880  0.90249117  0.90354943  1  0  -0.024355  0  3.52604  0  0  0.001048  0  3.749469  0  0  -0.004763  0  3.766301  0  0  -0.011432  0.005088  0  3.737302  0
C  C95  1  0.70553402  0.09750955  0.40354725  1  0  -0.024292  0  3.525937  0  0  0.001043  0  3.749467  0  0  -0.004745  0  3.766217  0  0  -0.011509  0.005086  0  3.737297  0
C  C96  1  0.25626912  0.52926673  0.55775878  1  0  0.741503  0  3.759837  0  0  0.702494  0  4.040641  0  0  0.738166  0  4.034348  0  0  0.24825  0.678663  0  4.047846  0
C  C97  1  0.24374547  0.47073116  0.05775654  1  0  0.741347  0  3.759833  0  0  0.702378  0  4.040626  0  0  0.738055  0  4.034341  0  0  0.248191  0.678545  0  4.047834  0
C  C98  1  0.74373046  0.02926858  0.94224272  1  0  0.741403  0  3.760021  0  0  0.702429  0  4.040784  0  0  0.738103  0  4.034497  0  0  0.248255  0.678599  0  4.047991  0
C  C99  1  0.75625268  0.97073144  0.44224417  1  0  0.741341  0  3.759851  0  0  0.70244  0  4.040565  0  0  0.738117  0  4.034279  0  0  0.248188  0.678605  0  4.047773  0
C  C100  1  0.25547373  0.30682117  0.52271078  1  0  -0.322828  0  3.643225  0  0  -0.40572  0  3.88107  0  0  -0.408161  0  3.890896  0  0  -0.240184  -0.40349  0  3.873565  0
C  C101  1  0.24453319  0.69317744  0.02270994  1  0  -0.322822  0  3.643306  0  0  -0.40573  0  3.881021  0  0  -0.40819  0  3.890899  0  0  -0.240109  -0.403499  0  3.873517  0
C  C102  1  0.74452717  0.80682076  0.97729095  1  0  -0.322821  0  3.643123  0  0  -0.405708  0  3.880962  0  0  -0.408145  0  3.890778  0  0  -0.240193  -0.403478  0  3.873459  0
C  C103  1  0.75546737  0.19317854  0.47729054  1  0  -0.322991  0  3.643171  0  0  -0.405882  0  3.880918  0  0  -0.408348  0  3.890765  0  0  -0.240213  -0.403651  0  3.873413  0
C  C104  1  0.47005848  0.33298480  0.68760692  1  0  -0.342574  0  3.674674  0  0  -0.42641  0  3.913826  0  0  -0.429268  0  3.923265  0  0  -0.24814  -0.423983  0  3.906442  0
C  C105  1  0.02994208  0.66701296  0.18759946  1  0  -0.342695  0  3.674688  0  0  -0.426549  0  3.913812  0  0  -0.429405  0  3.923239  0  0  -0.248145  -0.42412  0  3.906429  0
C  C106  1  0.52993859  0.83298575  0.81239490  1  0  -0.342441  0  3.674447  0  0  -0.426279  0  3.913581  0  0  -0.429131  0  3.923007  0  0  -0.248065  -0.423851  0  3.906198  0
C  C107  1  0.97005611  0.16701347  0.31239957  1  0  -0.342613  0  3.674713  0  0  -0.426445  0  3.913845  0  0  -0.429299  0  3.923272  0  0  -0.248145  -0.424016  0  3.90646  0
O  O108  1  0.04875003  0.28971983  0.87029034  1  0  -0.771808  0  2.064249  0  0  -0.722537  0  2.330731  0  0  -0.763694  0  2.313509  0  0  -0.430174  -0.704204  0  2.338634  0
O  O109  1  0.45123187  0.71027719  0.37029132  1  0  -0.771749  0  2.064401  0  0  -0.722502  0  2.330992  0  0  -0.763661  0  2.313752  0  0  -0.430214  -0.704168  0  2.338896  0
O  O110  1  0.95124970  0.78971864  0.62970794  1  0  -0.771857  0  2.064147  0  0  -0.722585  0  2.330666  0  0  -0.763736  0  2.313433  0  0  -0.430228  -0.704251  0  2.338571  0
O  O111  1  0.54875372  0.21027005  0.12970922  1  0  -0.77178  0  2.064268  0  0  -0.722555  0  2.330742  0  0  -0.763711  0  2.313508  0  0  -0.430212  -0.704213  0  2.338656  0
O  O112  1  0.80286415  0.48527637  0.93965930  1  0  -0.609795  0  1.975738  0  0  -0.56231  0  2.213704  0  0  -0.59485  0  2.203284  0  0  -0.352894  -0.54636  0  2.219692  0
O  O113  1  0.69712394  0.51473303  0.43964896  1  0  -0.609657  0  1.975061  0  0  -0.562153  0  2.213027  0  0  -0.594703  0  2.202621  0  0  -0.352893  -0.546196  0  2.219011  0
O  O114  1  0.19714345  0.98527374  0.56033554  1  0  -0.60968  0  1.975763  0  0  -0.562191  0  2.213732  0  0  -0.594725  0  2.203315  0  0  -0.352834  -0.546241  0  2.219718  0
O  O115  1  0.30287365  0.01473732  0.06035094  1  0  -0.609704  0  1.975058  0  0  -0.562207  0  2.213022  0  0  -0.594751  0  2.202605  0  0  -0.352909  -0.546252  0  2.219009  0
O  O116  1  0.64426669  0.31568084  0.94131942  1  0  -0.818842  0  2.183433  0  0  -0.758455  0  2.456494  0  0  -0.807206  0  2.443349  0  0  -0.457511  -0.740135  0  2.464592  0
O  O117  1  0.85573383  0.68433138  0.44131131  1  0  -0.818705  0  2.183559  0  0  -0.758332  0  2.456683  0  0  -0.807081  0  2.443545  0  0  -0.457472  -0.740011  0  2.464783  0
O  O118  1  0.35573417  0.81567406  0.55868030  1  0  -0.818901  0  2.183473  0  0  -0.758511  0  2.456571  0  0  -0.807262  0  2.443428  0  0  -0.457609  -0.74019  0  2.46467  0
O  O119  1  0.14426677  0.18433229  0.05869187  1  0  -0.818737  0  2.183559  0  0  -0.758374  0  2.456702  0  0  -0.807122  0  2.443556  0  0  -0.457441  -0.740054  0  2.464804  0
O  O120  1  0.30165808  0.20302219  0.86430632  1  0  -0.779035  0  2.012732  0  0  -0.732584  0  2.278516  0  0  -0.77282  0  2.259541  0  0  -0.435256  -0.71487  0  2.287433  0
O  O121  1  0.19832005  0.79697010  0.36430166  1  0  -0.779118  0  2.01234  0  0  -0.73268  0  2.278215  0  0  -0.772915  0  2.259235  0  0  -0.435323  -0.714964  0  2.287134  0
O  O122  1  0.69833829  0.70302821  0.63569371  1  0  -0.779061  0  2.012738  0  0  -0.732574  0  2.278523  0  0  -0.772815  0  2.25954  0  0  -0.435206  -0.71486  0  2.287442  0
O  O123  1  0.80166890  0.29696146  0.13569712  1  0  -0.779031  0  2.012516  0  0  -0.732619  0  2.278302  0  0  -0.772855  0  2.259316  0  0  -0.435273  -0.714897  0  2.287231  0
O  O124  1  0.14338480  0.60053648  0.52578369  1  0  -0.773642  0  2.08524  0  0  -0.726862  0  2.354818  0  0  -0.766841  0  2.340543  0  0  -0.425217  -0.708309  0  2.361701  0
O  O125  1  0.35661717  0.39946403  0.02578008  1  0  -0.773562  0  2.085546  0  0  -0.726709  0  2.354948  0  0  -0.766707  0  2.340698  0  0  -0.425155  -0.70816  0  2.361832  0
O  O126  1  0.85661697  0.10053920  0.97421736  1  0  -0.773678  0  2.085329  0  0  -0.726865  0  2.354825  0  0  -0.766855  0  2.340554  0  0  -0.425217  -0.708315  0  2.36171  0
O  O127  1  0.64338004  0.89946666  0.47421701  1  0  -0.773591  0  2.085645  0  0  -0.726757  0  2.355031  0  0  -0.766765  0  2.340778  0  0  -0.425167  -0.708208  0  2.361916  0
O  O128  1  0.41023517  0.55497734  0.55417638  1  0  -0.74257  0  2.06516  0  0  -0.693392  0  2.324878  0  0  -0.732882  0  2.308829  0  0  -0.424623  -0.675541  0  2.332909  0
O  O129  1  0.08976574  0.44502429  0.05417511  1  0  -0.74266  0  2.065047  0  0  -0.693539  0  2.324828  0  0  -0.732998  0  2.308718  0  0  -0.42467  -0.675685  0  2.332861  0
O  O130  1  0.58976678  0.05497676  0.94582385  1  0  -0.742533  0  2.065383  0  0  -0.693402  0  2.325107  0  0  -0.732864  0  2.309014  0  0  -0.424628  -0.675552  0  2.33314  0
O  O131  1  0.91023376  0.94502328  0.44582484  1  0  -0.742652  0  2.064995  0  0  -0.693541  0  2.324718  0  0  -0.733001  0  2.308619  0  0  -0.424662  -0.675685  0  2.332748  0
