# generated using pymatgen
data_VCdP2H14(C4O3)3
_symmetry_space_group_name_H-M   'P 1'
_cell_length_a   6.97662367
_cell_length_b   8.86612975
_cell_length_c   14.74626803
_cell_angle_alpha   72.54783235
_cell_angle_beta   86.47747536
_cell_angle_gamma   78.03390807
_symmetry_Int_Tables_number   1
_chemical_formula_structural   VCdP2H14(C4O3)3
_chemical_formula_sum   'V2 Cd2 P4 H28 C24 O18'
_cell_volume   851.24380208
_cell_formula_units_Z   2
loop_
 _symmetry_equiv_pos_site_id
 _symmetry_equiv_pos_as_xyz
  1  'x, y, z'
loop_
 _atom_site_type_symbol
 _atom_site_label
 _atom_site_symmetry_multiplicity
 _atom_site_fract_x
 _atom_site_fract_y
 _atom_site_fract_z
 _atom_site_occupancy
 _atom_site_hle17_ddec_charge
 _atom_site_hle17_ddec_spin_density
 _atom_site_hle17_ddec_sum_bond_order
 _atom_site_hle17_magmom
 _atom_site_hse06_10hf_ddec_charge
 _atom_site_hse06_10hf_ddec_spin_density
 _atom_site_hse06_10hf_ddec_sum_bond_order
 _atom_site_hse06_10hf_magmom
 _atom_site_hse06_ddec_charge
 _atom_site_hse06_ddec_spin_density
 _atom_site_hse06_ddec_sum_bond_order
 _atom_site_hse06_magmom
 _atom_site_pbe_cm5_charge
 _atom_site_pbe_ddec_charge
 _atom_site_pbe_ddec_spin_density
 _atom_site_pbe_ddec_sum_bond_order
 _atom_site_pbe_magmom
V  V0  1  0.29582655  0.75717098  0.99202380  1  1.953365  1.246988  2.403851  1.199  1.986574  1.042199  2.766323  1.009  2.084837  1.074265  2.726239  1.041  1.396872  1.917352  1.012453  2.79773  0.98
V  V1  1  0.79575002  0.74915570  0.00815925  1  1.952506  -1.246757  2.405719  -1.199  1.987204  -1.042148  2.765761  -1.009  2.083164  -1.074269  2.729364  -1.041  1.397163  1.91809  -1.012383  2.796947  -0.98
Cd  Cd2  1  0.07143835  0.27607764  0.95408901  1  1.358085  -9.1e-05  1.546834  0.0  1.199621  -0.000137  1.980852  0.0  1.250915  -0.000103  1.921921  0.0  0.810258  1.162034  -0.00017  2.022138  0.0
Cd  Cd3  1  0.57179685  0.22994480  0.04569386  1  1.357885  9.1e-05  1.546048  0.0  1.199242  0.00013  1.980006  0.0  1.250608  0.0001  1.921062  0.0  0.81019  1.161596  0.000159  2.021285  0.0
P  P4  1  0.50740534  0.06022244  0.88024404  1  1.510306  -8.7e-05  4.790056  0.0  1.358777  -4.8e-05  5.282998  0.0  1.414669  -8.5e-05  5.239698  0.0  0.351595  1.319655  -4.1e-05  5.311799  0.0
P  P5  1  0.00784920  0.94078042  0.11977928  1  1.509292  9.9e-05  4.791531  0.0  1.358129  4.8e-05  5.283998  0.0  1.413927  8.5e-05  5.240809  0.0  0.350576  1.319022  3.9e-05  5.312791  0.0
P  P6  1  0.64006233  0.56599876  0.87992910  1  1.507027  -0.000367  4.792468  0.0  1.355302  1.9e-05  5.285777  0.0  1.411093  -8.1e-05  5.242461  0.0  0.350875  1.316238  8.2e-05  5.314557  0.0
P  P7  1  0.14076564  0.44596479  0.11988230  1  1.505183  0.00038  4.790701  0.0  1.353163  -6e-06  5.284296  0.0  1.408971  9.6e-05  5.241111  0.0  0.349983  1.314085  -6.6e-05  5.313028  0.0
H  H8  1  0.28905225  0.34389713  0.74286913  1  0.101062  2.3e-05  0.95604  0.0  0.112833  -5e-06  1.016418  0.0  0.115438  -2e-06  1.015105  0.0  0.104154  0.110896  -8e-06  1.017442  0.0
H  H9  1  0.78916152  0.08732058  0.25728764  1  0.10154  -2.4e-05  0.955452  0.0  0.113041  5e-06  1.016175  0.0  0.115593  2e-06  1.014945  0.0  0.103781  0.111145  7e-06  1.017169  0.0
H  H10  1  0.30542046  0.44195798  0.56716489  1  0.080356  -1.5e-05  0.962455  0.0  0.092902  -1.3e-05  1.021381  0.0  0.095257  -9e-06  1.021063  0.0  0.098251  0.091213  -1.9e-05  1.0217  0.0
H  H11  1  0.80597969  0.00953422  0.43297860  1  0.080125  1.6e-05  0.964012  0.0  0.092224  1.3e-05  1.023294  0.0  0.09455  9e-06  1.023051  0.0  0.098175  0.090571  1.9e-05  1.02355  0.0
H  H12  1  0.56690684  0.30447124  0.47960991  1  0.081914  2.6e-05  0.953443  0.0  0.094049  1e-06  1.012321  0.0  0.096796  1e-06  1.011253  0.0  0.099322  0.092073  1e-06  1.013138  0.0
H  H13  1  0.06769877  0.78452555  0.52048864  1  0.081216  -2.5e-05  0.953553  0.0  0.093704  -2e-06  1.012205  0.0  0.096287  -1e-06  1.011294  0.0  0.099252  0.091784  -3e-06  1.01296  0.0
H  H14  1  0.81201410  0.06762639  0.56908765  1  0.081465  -1.1e-05  0.966899  0.0  0.093531  0.0  1.025926  0.0  0.096078  -1e-06  1.025344  0.0  0.098042  0.091682  3e-06  1.026468  0.0
H  H15  1  0.31321142  0.63789716  0.43087328  1  0.081467  1.2e-05  0.966105  0.0  0.093796  1e-06  1.024931  0.0  0.096205  2e-06  1.024485  0.0  0.098432  0.092048  -2e-06  1.025355  0.0
H  H16  1  0.78779523  0.96162985  0.74492325  1  0.105519  1.8e-05  0.932817  0.0  0.118856  -9.3e-05  0.985378  0.0  0.12205  -4.1e-05  0.98356  0.0  0.108545  0.116491  -0.000139  0.986847  0.0
H  H17  1  0.28901100  0.70817252  0.25500328  1  0.104928  -1.7e-05  0.932933  0.0  0.118152  9.4e-05  0.985684  0.0  0.121349  4.1e-05  0.983859  0.0  0.108611  0.115797  0.00014  0.987132  0.0
H  H18  1  0.13126194  0.05386432  0.85394169  1  0.420258  -0.000405  0.878965  0.0  0.392435  -0.000414  0.941578  0.0  0.403048  -0.000386  0.926096  0.0  0.295788  0.385023  -0.000424  0.952354  0.0
H  H19  1  0.63183760  0.90800148  0.14679198  1  0.421459  0.000405  0.877699  0.0  0.3938  0.000414  0.93961  0.0  0.404409  0.000386  0.92413  0.0  0.29628  0.386395  0.000425  0.950377  0.0
H  H20  1  0.90441689  0.08367011  0.87514936  1  0.436789  0.000402  0.859282  0.0  0.408804  0.000335  0.918773  0.0  0.419312  0.000321  0.903607  0.0  0.297023  0.401416  0.000348  0.929407  0.0
H  H21  1  0.40501855  0.95886076  0.12549555  1  0.436302  -0.000403  0.859699  0.0  0.408601  -0.000335  0.918811  0.0  0.419089  -0.000321  0.903658  0.0  0.297066  0.40123  -0.000349  0.92941  0.0
H  H22  1  0.24395105  0.54397442  0.87384450  1  0.432038  -0.000418  0.867826  0.0  0.403521  -0.000417  0.927872  0.0  0.413873  -0.00039  0.912938  0.0  0.296237  0.39626  -0.000429  0.938324  0.0
H  H23  1  0.74517155  0.41676682  0.12646197  1  0.429385  0.000416  0.870763  0.0  0.401119  0.000415  0.930772  0.0  0.411426  0.000388  0.915918  0.0  0.295178  0.393882  0.000427  0.941183  0.0
H  H24  1  0.01454948  0.59935977  0.85979434  1  0.427833  0.000203  0.870775  0.0  0.401248  0.000193  0.929139  0.0  0.412163  0.000191  0.913178  0.0  0.296065  0.393616  0.0002  0.940251  0.0
H  H25  1  0.51606114  0.45830821  0.14075157  1  0.429454  -0.000203  0.866896  0.0  0.40207  -0.000193  0.927334  0.0  0.413023  -0.00019  0.91133  0.0  0.296754  0.394419  -0.0002  0.938473  0.0
H  H26  1  0.36410397  0.80224757  0.74338287  1  0.104599  -6.9e-05  0.936493  0.0  0.117652  -1.3e-05  0.989901  0.0  0.120844  -4.6e-05  0.988029  0.0  0.108094  0.115276  2.2e-05  0.991412  0.0
H  H27  1  0.86516922  0.54629762  0.25589352  1  0.103229  7.4e-05  0.937203  0.0  0.116089  1.7e-05  0.991032  0.0  0.119372  5e-05  0.989039  0.0  0.107512  0.113683  -1.9e-05  0.992582  0.0
H  H28  1  0.34976824  0.87978287  0.56704558  1  0.080515  1.3e-05  0.967984  0.0  0.093003  2e-06  1.026784  0.0  0.09552  3e-06  1.026203  0.0  0.098078  0.091211  -1e-06  1.027277  0.0
H  H29  1  0.85014683  0.44809060  0.43223615  1  0.080653  -1.3e-05  0.967565  0.0  0.092925  -1e-06  1.026443  0.0  0.095414  -2e-06  1.025915  0.0  0.098321  0.091141  2e-06  1.026926  0.0
H  H30  1  0.60305730  0.73916499  0.47759208  1  0.082238  -1.3e-05  0.952829  0.0  0.094203  -2e-06  1.011588  0.0  0.096835  -2e-06  1.010692  0.0  0.099469  0.092232  -2e-06  1.012386  0.0
H  H31  1  0.10258241  0.21749921  0.52204482  1  0.08232  1.7e-05  0.953001  0.0  0.093984  2e-06  1.012045  0.0  0.096692  2e-06  1.011075  0.0  0.099607  0.092025  2e-06  1.012825  0.0
H  H32  1  0.86335916  0.51347597  0.56567167  1  0.081764  2.2e-05  0.96273  0.0  0.094262  1.9e-05  1.021574  0.0  0.096692  1.4e-05  1.021163  0.0  0.098676  0.092503  2.6e-05  1.021977  0.0
H  H33  1  0.36264679  0.07897390  0.43437880  1  0.08143  -2.2e-05  0.962619  0.0  0.094162  -2e-05  1.021154  0.0  0.096538  -1.4e-05  1.020819  0.0  0.09886  0.092422  -2.7e-05  1.021559  0.0
H  H34  1  0.86986122  0.42792596  0.74171812  1  0.101503  -9e-06  0.954898  0.0  0.112334  1.1e-05  1.016728  0.0  0.114962  1e-05  1.015325  0.0  0.103848  0.110378  1.1e-05  1.017855  0.0
H  H35  1  0.36984157  0.16904953  0.25831321  1  0.101462  9e-06  0.9559  0.0  0.112244  -1.1e-05  1.017746  0.0  0.114796  -1e-05  1.01643  0.0  0.103634  0.110335  -1.1e-05  1.018814  0.0
C  C36  1  0.53683778  0.14573676  0.75476217  1  -0.242506  -0.001056  3.754377  -0.001  -0.199263  -0.001035  3.99102  -0.001  -0.211091  -0.000864  4.014213  -0.001  -0.024986  -0.191505  -0.00116  3.97578  -0.001
C  C37  1  0.03740549  0.90146913  0.24524648  1  -0.240785  0.001051  3.755146  0.001  -0.197273  0.001034  3.990995  0.001  -0.208954  0.000863  4.01403  0.001  -0.02558  -0.189557  0.001158  3.975767  0.001
C  C38  1  0.40143921  0.28167434  0.70470257  1  -0.029208  -0.000846  3.726892  -0.001  -0.051974  -0.000225  3.964427  0.0  -0.051311  -0.000249  3.986781  0.0  -0.079064  -0.052203  -0.000168  3.949353  0.0
C  C39  1  0.90185901  0.98706877  0.29537739  1  -0.032295  0.000879  3.728923  0.001  -0.054942  0.000221  3.966391  0.0  -0.054336  0.000249  3.988832  0.0  -0.079012  -0.055181  0.000155  3.951248  0.0
C  C40  1  0.41214592  0.33743652  0.60590420  1  -0.076777  0.00048  3.780151  0.0  -0.087891  2e-06  4.029637  0.0  -0.091862  4.3e-05  4.053012  0.0  -0.090653  -0.085222  -4.8e-05  4.013688  0.0
C  C41  1  0.91284733  0.94401133  0.39419203  1  -0.075389  -0.000473  3.781902  0.0  -0.085906  6e-06  4.031125  0.0  -0.089854  -3.6e-05  4.054437  0.0  -0.090949  -0.083276  5.7e-05  4.015235  0.0
C  C42  1  0.55928111  0.26059303  0.55695004  1  -0.067048  -0.000913  3.784576  -0.001  -0.084531  -9.5e-05  4.038343  0.0  -0.085318  -0.000145  4.060467  0.0  -0.088979  -0.083769  -1.7e-05  4.023129  0.0
C  C43  1  0.06016702  0.81831042  0.44312922  1  -0.065426  0.00088  3.783615  0.001  -0.083233  8.9e-05  4.037619  0.0  -0.083849  0.000138  4.059699  0.0  -0.088  -0.082538  1e-05  4.022444  0.0
C  C44  1  0.69632524  0.12718428  0.60704551  1  -0.084027  0.000375  3.779649  0.0  -0.09445  2.8e-05  4.029498  0.0  -0.098641  4.2e-05  4.052692  0.0  -0.092617  -0.091603  2.3e-05  4.013681  0.0
C  C45  1  0.19741383  0.73537874  0.39296038  1  -0.085092  -0.000369  3.779256  0.0  -0.095966  -3.4e-05  4.029768  0.0  -0.100024  -4.5e-05  4.052881  0.0  -0.093634  -0.093205  -3.6e-05  4.013952  0.0
C  C46  1  0.68438728  0.06829383  0.70574659  1  -0.026336  -0.000642  3.73213  0.0  -0.05  -0.000179  3.974655  0.0  -0.048884  -0.000177  3.995493  0.0  -0.077651  -0.0506  -0.000168  3.960621  0.0
C  C47  1  0.18546397  0.77539702  0.29424635  1  -0.026206  0.000601  3.732496  0.0  -0.04971  0.000171  3.974832  0.0  -0.048638  0.000168  3.995632  0.0  -0.077544  -0.050293  0.000165  3.960817  0.0
C  C48  1  0.61793156  0.61065012  0.75358500  1  -0.243322  0.001579  3.755276  0.001  -0.199564  0.001358  3.991422  0.001  -0.21137  0.001179  4.014598  0.001  -0.025317  -0.191748  0.001488  3.976077  0.001
C  C49  1  0.11855010  0.36431007  0.24615266  1  -0.243668  -0.001581  3.758236  -0.001  -0.200075  -0.001361  3.994188  -0.001  -0.211922  -0.001181  4.017442  -0.001  -0.025822  -0.192238  -0.001491  3.97879  -0.001
C  C50  1  0.47099737  0.73739730  0.70424788  1  -0.028888  0.00028  3.734737  0.0  -0.052763  2.6e-05  3.977022  0.0  -0.051706  3.7e-05  3.998006  0.0  -0.078777  -0.053331  1.1e-05  3.962876  0.0
C  C51  1  0.97170677  0.44221314  0.29525370  1  -0.026915  -0.000326  3.737955  0.0  -0.050632  -3e-05  3.979848  0.0  -0.049682  -4.2e-05  4.000926  0.0  -0.07841  -0.051148  -1.2e-05  3.965661  0.0
C  C52  1  0.46465044  0.78170812  0.60523564  1  -0.08383  -0.000212  3.778137  0.0  -0.09479  -2.8e-05  4.028482  0.0  -0.09897  -3e-05  4.051664  0.0  -0.093136  -0.09197  -4.1e-05  4.01263  0.0
C  C53  1  0.96498739  0.38782957  0.39423903  1  -0.084614  0.000218  3.779748  0.0  -0.09523  1.7e-05  4.029733  0.0  -0.099415  2.3e-05  4.052985  0.0  -0.092742  -0.092412  2.4e-05  4.013864  0.0
C  C54  1  0.60637963  0.70232964  0.55513152  1  -0.067072  0.000473  3.780431  0.0  -0.084389  1e-05  4.034535  0.0  -0.085011  6.5e-05  4.056532  0.0  -0.089197  -0.083698  -6.5e-05  4.019431  0.0
C  C55  1  0.10622963  0.25803850  0.44452178  1  -0.065009  -0.000526  3.779801  0.0  -0.082009  -1.9e-05  4.033735  0.0  -0.082711  -7.3e-05  4.055727  0.0  -0.088341  -0.081307  5.5e-05  4.018612  0.0
C  C56  1  0.75277440  0.57605991  0.60442885  1  -0.078944  -0.000283  3.779398  0.0  -0.089662  4.3e-05  4.028073  0.0  -0.093728  -1e-06  4.051364  0.0  -0.091244  -0.086907  9.3e-05  4.012159  0.0
C  C57  1  0.25248945  0.18055683  0.39545229  1  -0.079821  0.000309  3.779097  0.0  -0.090987  -3e-05  4.028103  0.0  -0.09503  1e-05  4.051366  0.0  -0.092064  -0.088257  -7.8e-05  4.012233  0.0
C  C58  1  0.75797251  0.52860163  0.70346269  1  -0.02623  0.000713  3.724715  0.001  -0.04879  0.000257  3.962116  0.0  -0.048085  0.000273  3.984421  0.0  -0.076897  -0.049091  0.000208  3.947059  0.0
C  C59  1  0.25816953  0.23190301  0.29643591  1  -0.026432  -0.000689  3.725336  0.0  -0.048581  -0.00026  3.962336  0.0  -0.047797  -0.000273  3.984637  0.0  -0.077147  -0.048919  -0.000219  3.947258  0.0
O  O60  1  0.40726392  0.19238153  0.92489518  1  -0.898969  0.002458  2.039018  0.002  -0.800935  0.002307  2.321365  0.002  -0.833368  0.001859  2.297862  0.002  -0.382196  -0.777742  0.002694  2.336949  0.002
O  O61  1  0.90766961  0.11746352  0.07488505  1  -0.897924  -0.002452  2.039986  -0.002  -0.80001  -0.002307  2.322535  -0.002  -0.832397  -0.001859  2.299052  -0.002  -0.38104  -0.776836  -0.002697  2.33812  -0.002
O  O62  1  0.37661327  0.93472854  0.88820710  1  -0.907885  0.013484  2.092883  -0.001  -0.85403  0.022907  2.3658  0.008  -0.888847  0.0207  2.349934  0.007  -0.417614  -0.828979  0.024598  2.375809  0.009
O  O63  1  0.87695885  0.82317398  0.11194890  1  -0.908237  -0.013542  2.091218  0.001  -0.85498  -0.022965  2.364035  -0.008  -0.889363  -0.02074  2.348335  -0.007  -0.417975  -0.829913  -0.024657  2.37403  -0.009
O  O64  1  0.71295239  0.97949004  0.92530180  1  -0.898355  -0.009778  2.069926  0.004  -0.842717  -0.018955  2.34527  -0.005  -0.873469  -0.017127  2.325133  -0.004  -0.409015  -0.820248  -0.020341  2.358379  -0.006
O  O65  1  0.21344471  0.90464237  0.07499829  1  -0.897339  0.009824  2.069337  -0.004  -0.841569  0.018999  2.3445  0.005  -0.872859  0.017173  2.324568  0.004  -0.407993  -0.819113  0.020393  2.357592  0.006
O  O66  1  0.07239027  0.77833330  0.95127669  1  -0.831074  -0.186365  1.540264  -0.184  -0.865528  -0.077994  1.843171  -0.08  -0.915832  -0.092781  1.840398  -0.096  -0.627351  -0.831494  -0.066839  1.845085  -0.068
O  O67  1  0.57263322  0.72937694  0.04902017  1  -0.83073  0.186234  1.539794  0.184  -0.865188  0.077959  1.842062  0.08  -0.915303  0.092759  1.839751  0.096  -0.627565  -0.831306  0.066804  1.844242  0.068
O  O68  1  0.01387740  0.14014202  0.84952201  1  -0.829483  -0.00073  1.848319  -0.001  -0.769603  -0.000444  2.036025  0.0  -0.792305  -0.000426  2.003411  0.0  -0.57945  -0.753345  -0.000436  2.058492  0.0
O  O69  1  0.51446380  0.98999725  0.15101735  1  -0.829485  0.000715  1.848234  0.001  -0.770072  0.000437  2.035682  0.0  -0.79268  0.00042  2.003054  0.0  -0.579034  -0.753798  0.000429  2.058133  0.0
O  O70  1  0.12817557  0.51708518  0.85095115  1  -0.832651  -0.000898  1.847429  -0.001  -0.772655  -0.000623  2.033032  -0.001  -0.79555  -0.000549  2.000342  -0.001  -0.580335  -0.756259  -0.000679  2.055521  -0.001
O  O71  1  0.62943977  0.36708551  0.14937819  1  -0.831096  0.000876  1.847838  0.001  -0.77034  0.000611  2.035295  0.001  -0.793264  0.000536  2.002533  0.001  -0.579224  -0.75392  0.000665  2.057837  0.001
O  O72  1  0.73516801  0.38783892  0.92381505  1  -0.895016  -0.002527  2.035198  -0.002  -0.797858  -0.001996  2.317767  -0.002  -0.82998  -0.001622  2.294182  -0.002  -0.381034  -0.774791  -0.002311  2.33333  -0.002
O  O73  1  0.23574051  0.31177897  0.07586206  1  -0.89491  0.002534  2.03361  0.002  -0.797359  0.002001  2.316119  0.002  -0.829408  0.001626  2.292266  0.002  -0.381077  -0.774385  0.002314  2.331887  0.002
O  O74  1  0.43225061  0.60180063  0.92230091  1  -0.909426  0.011808  2.098944  -0.002  -0.85531  0.019481  2.379138  0.006  -0.887912  0.017693  2.359743  0.005  -0.411875  -0.831719  0.020809  2.391398  0.006
O  O75  1  0.93279641  0.52410342  0.07751108  1  -0.90808  -0.01183  2.097704  0.002  -0.854837  -0.019518  2.37896  -0.006  -0.886625  -0.017713  2.358965  -0.005  -0.411385  -0.83146  -0.020851  2.391679  -0.006
O  O76  1  0.77155698  0.67962321  0.89320669  1  -0.889956  -0.010346  2.075004  0.003  -0.834239  -0.020893  2.342626  -0.007  -0.867253  -0.018778  2.326284  -0.006  -0.414356  -0.810254  -0.022477  2.353203  -0.008
O  O77  1  0.27223801  0.57274192  0.10688985  1  -0.890013  0.010348  2.073298  -0.003  -0.833713  0.020965  2.340754  0.007  -0.867192  0.018841  2.324334  0.006  -0.414282  -0.809682  0.022563  2.351276  0.008
