# generated using pymatgen
data_Zn4H3C24S4Br4O13F
_symmetry_space_group_name_H-M   'P 1'
_cell_length_a   19.67851086
_cell_length_b   19.73091285
_cell_length_c   33.38955190
_cell_angle_alpha   78.99873314
_cell_angle_beta   79.15335733
_cell_angle_gamma   63.93137592
_symmetry_Int_Tables_number   1
_chemical_formula_structural   Zn4H3C24S4Br4O13F
_chemical_formula_sum   'Zn16 H12 C96 S16 Br16 O52 F4'
_cell_volume   11351.15067616
_cell_formula_units_Z   4
loop_
 _symmetry_equiv_pos_site_id
 _symmetry_equiv_pos_as_xyz
  1  'x, y, z'
loop_
 _atom_site_type_symbol
 _atom_site_label
 _atom_site_symmetry_multiplicity
 _atom_site_fract_x
 _atom_site_fract_y
 _atom_site_fract_z
 _atom_site_occupancy
 _atom_site_pbe_bader_charge
 _atom_site_pbe_bader_spin_density
 _atom_site_pbe_cm5_charge
 _atom_site_pbe_ddec_charge
 _atom_site_pbe_ddec_spin_density
 _atom_site_pbe_ddec_sum_bond_order
 _atom_site_pbe_magmom
Zn  Zn0  1  0.05573238  0.40014844  0.47785183  1  1.318281  0  0.672209  0.973633  0  2.330339  0
Zn  Zn1  1  0.98519286  0.48410712  0.56004241  1  1.319947  0  0.673324  0.967934  0  2.377286  0
Zn  Zn2  1  0.05853348  0.56137276  0.48261664  1  1.323167  0  0.675422  0.971204  0  2.372282  0
Zn  Zn3  1  0.90058082  0.55440045  0.47931116  1  1.321707  0  0.675658  0.972001  0  2.370628  0
Zn  Zn4  1  0.69320379  0.34995701  0.27177775  1  1.319377  0  0.672702  0.971593  0  2.339924  0
Zn  Zn5  1  0.69080079  0.18837577  0.26617349  1  1.31773  0  0.673286  0.971795  0  2.350441  0
Zn  Zn6  1  0.76859435  0.26591917  0.19003152  1  1.325555  0  0.675581  0.971516  0  2.369021  0
Zn  Zn7  1  0.84729148  0.19699604  0.27236242  1  1.31777  0  0.673375  0.965391  0  2.388344  0
Zn  Zn8  1  0.26555178  0.76604652  0.69024164  1  1.327378  0  0.673185  0.964652  0  2.391781  0
Zn  Zn9  1  0.34941158  0.69684550  0.77153967  1  1.31984  0  0.673212  0.971633  0  2.350582  0
Zn  Zn10  1  0.19281525  0.84935994  0.77143986  1  1.318785  0  0.675657  0.974567  0  2.345405  0
Zn  Zn11  1  0.19109517  0.68804666  0.76670137  1  1.315924  0  0.673053  0.969758  0  2.36115  0
Zn  Zn12  1  0.55892846  0.06161599  0.98339945  1  1.318864  0  0.673503  0.96985  0  2.362033  0
Zn  Zn13  1  0.40274846  0.05304387  0.97784273  1  1.318318  0  0.673249  0.964736  0  2.389786  0
Zn  Zn14  1  0.55636840  0.90019973  0.97829802  1  1.318936  0  0.672803  0.97189  0  2.338938  0
Zn  Zn15  1  0.48236107  0.98482656  0.06039052  1  1.318018  0  0.673292  0.970117  0  2.359124  0
H  H16  1  0.95376167  0.24914492  0.35143977  1  0.108394  0  0.11042  0.119052  0  0.993627  0
H  H17  1  0.74661274  0.45520563  0.35066265  1  0.176327  0  0.119996  0.149491  0  0.976895  0
H  H18  1  0.00004079  0.29871583  0.39945773  1  0.079062  0  0.113379  0.120989  0  0.983996  0
H  H19  1  0.09702454  0.59687873  0.70006253  1  0.113042  0  0.110884  0.119716  0  0.991628  0
H  H20  1  0.20133746  0.70118756  0.59736376  1  0.152949  0  0.118784  0.147816  0  0.981012  0
H  H21  1  0.05014298  0.55030521  0.65081068  1  0.08786  0  0.112627  0.119854  0  0.988689  0
H  H22  1  0.54996546  0.05024119  0.15301912  1  0.106994  0  0.111461  0.120485  0  0.990712  0
H  H23  1  0.65268723  0.15291998  0.04868236  1  0.148502  0  0.119255  0.148514  0  0.978681  0
H  H24  1  0.59932545  0.09899323  0.19987445  1  0.12371  0  0.113517  0.121033  0  0.985979  0
H  H25  1  0.50168377  0.79521173  0.89854094  1  0.084203  0  0.112017  0.121481  0  0.98901  0
H  H26  1  0.29589112  0.00263585  0.89917396  1  0.114997  0  0.118878  0.147572  0  0.980654  0
H  H27  1  0.45106424  0.75003106  0.85052669  1  0.081788  0  0.112712  0.119846  0  0.985677  0
C  C28  1  0.06151276  0.31649246  0.56146776  1  1.602223  0  0.21626  0.621644  0  4.208608  0
C  C29  1  0.06932235  0.56997756  0.56899946  1  1.562739  0  0.228993  0.621282  0  4.168163  0
C  C30  1  0.18346295  0.43920076  0.43852537  1  1.603704  0  0.216667  0.62341  0  4.205044  0
C  C31  1  0.93739191  0.68401067  0.43877567  1  1.583428  0  0.21621  0.619613  0  4.213084  0
C  C32  1  0.93060314  0.43059472  0.43086299  1  1.572927  0  0.22987  0.624538  0  4.163385  0
C  C33  1  0.81682629  0.56120361  0.56202041  1  1.588629  0  0.215696  0.620527  0  4.212092  0
C  C34  1  0.56621512  0.31053627  0.31120091  1  1.613614  0  0.216079  0.6237  0  4.206221  0
C  C35  1  0.68172126  0.18020441  0.18057101  1  1.556189  0  0.229081  0.622642  0  4.166475  0
C  C36  1  0.68938395  0.43369303  0.18857290  1  1.600803  0  0.215719  0.620874  0  4.208485  0
C  C37  1  0.93460533  0.18862564  0.18938847  1  1.553303  0  0.215406  0.618422  0  4.211522  0
C  C38  1  0.81878289  0.32026698  0.31944427  1  1.575494  0  0.230848  0.604099  0  4.159262  0
C  C39  1  0.81200257  0.06638071  0.31127755  1  1.580318  0  0.216008  0.621262  0  4.208419  0
C  C40  1  0.43328575  0.68921573  0.68835980  1  1.586367  0  0.215665  0.62139  0  4.210394  0
C  C41  1  0.31876392  0.82001504  0.81908992  1  1.57452  0  0.229811  0.623665  0  4.165891  0
C  C42  1  0.18840745  0.93333479  0.68827746  1  1.605752  0  0.215513  0.620146  0  4.210563  0
C  C43  1  0.06584153  0.81015031  0.81104765  1  1.603828  0  0.216161  0.621373  0  4.210619  0
C  C44  1  0.18068441  0.68006720  0.68065297  1  1.552172  0  0.230462  0.603434  0  4.160486  0
C  C45  1  0.31239056  0.56618436  0.81106973  1  1.58178  0  0.215848  0.62113  0  4.207454  0
C  C46  1  0.43787874  0.18378056  0.93867156  1  1.580157  0  0.216421  0.621456  0  4.208329  0
C  C47  1  0.43123211  0.92989920  0.93048928  1  1.572691  0  0.231437  0.604446  0  4.158409  0
C  C48  1  0.68349998  0.93961344  0.93871697  1  1.60392  0  0.216845  0.623812  0  4.205204  0
C  C49  1  0.56095582  0.81674391  0.06159092  1  1.593126  0  0.216178  0.623922  0  4.204632  0
C  C50  1  0.56879794  0.07017779  0.06946215  1  1.557091  0  0.230927  0.604114  0  4.159259  0
C  C51  1  0.31601097  0.06162617  0.06091617  1  1.560819  0  0.216552  0.623176  0  4.205552  0
C  C52  1  0.90044231  0.40387410  0.40207592  1  0.050405  0  -0.019406  -0.145542  0  3.941642  0
C  C53  1  0.84747806  0.34890757  0.34805238  1  -0.047865  0  -0.007615  0.002487  0  3.975658  0
C  C54  1  0.82893668  0.44681768  0.38762275  1  0.465495  0  0.113266  0.289382  0  4.026637  0
C  C55  1  0.91911331  0.30467475  0.36182451  1  0.019971  0  -0.084098  -0.11051  0  3.976191  0
C  C56  1  0.80230625  0.42032160  0.36107447  1  -0.013551  0  -0.089266  -0.222952  0  3.960978  0
C  C57  1  0.94466231  0.33220124  0.38839264  1  -0.036082  0  -0.075167  -0.065109  0  3.970819  0
C  C58  1  0.09884661  0.59904857  0.59689817  1  0.013779  0  -0.018163  -0.142452  0  3.940505  0
C  C59  1  0.15202238  0.65179466  0.65186502  1  -0.096354  0  -0.007851  0.003077  0  3.975489  0
C  C60  1  0.14186060  0.64190161  0.58274377  1  0.458834  0  0.112635  0.289236  0  4.027181  0
C  C61  1  0.10929984  0.60918512  0.66700462  1  -0.007521  0  -0.084323  -0.110813  0  3.976794  0
C  C62  1  0.16827539  0.66817458  0.60950698  1  0.055885  0  -0.088641  -0.222102  0  3.960646  0
C  C63  1  0.08338595  0.58348032  0.63971638  1  0.02388  0  -0.075447  -0.065643  0  3.971395  0
C  C64  1  0.30481130  0.45405179  0.40072512  1  -0.003827  0  -0.02223  0.06151  0  3.994734  0
C  C65  1  0.44505727  0.29555570  0.34926032  1  0.014651  0  -0.022343  0.063461  0  3.99297  0
C  C66  1  0.25847695  0.41542627  0.41381368  1  -0.15402  0  -0.028785  -0.169925  0  3.933839  0
C  C67  1  0.49140673  0.33413170  0.33610815  1  -0.162462  0  -0.02901  -0.171569  0  3.937035  0
C  C68  1  0.37704195  0.33918609  0.37278910  1  -0.136909  0  -0.02912  -0.060351  0  4.097217  0
C  C69  1  0.37281421  0.41038444  0.37718016  1  -0.117294  0  -0.028645  -0.05927  0  4.096541  0
C  C70  1  0.72559176  0.57600935  0.63000769  1  -0.01757  0  -0.02248  0.064019  0  3.992722  0
C  C71  1  0.52443135  0.67377016  0.62035155  1  0.050799  0  -0.021423  0.064698  0  3.990645  0
C  C72  1  0.74262402  0.58534316  0.58751876  1  -0.12798  0  -0.027719  -0.169226  0  3.934131  0
C  C73  1  0.50742715  0.66463735  0.66286965  1  -0.133896  0  -0.028533  -0.16932  0  3.935639  0
C  C74  1  0.60393248  0.64149407  0.60833646  1  -0.17231  0  -0.029089  -0.062436  0  4.0987  0
C  C75  1  0.64609366  0.60820389  0.64200532  1  -0.098036  0  -0.02892  -0.059605  0  4.097453  0
C  C76  1  0.07636164  0.22524770  0.62957002  1  -0.009534  0  -0.022616  0.062269  0  3.992979  0
C  C77  1  0.17386017  0.02455225  0.62024692  1  -0.001614  0  -0.021993  0.06375  0  3.991454  0
C  C78  1  0.08562334  0.24233358  0.58705493  1  -0.059279  0  -0.027859  -0.167631  0  3.933955  0
C  C79  1  0.16455238  0.00745572  0.66276008  1  -0.132565  0  -0.028842  -0.170701  0  3.936064  0
C  C80  1  0.14174922  0.10390114  0.60812857  1  -0.115351  0  -0.028832  -0.060231  0  4.097417  0
C  C81  1  0.10851863  0.14588812  0.64171240  1  -0.161385  0  -0.028584  -0.060395  0  4.096473  0
C  C82  1  0.84312954  0.80144135  0.39700980  1  -0.049214  0  -0.022557  0.06062  0  3.99627  0
C  C83  1  0.90644810  0.94873158  0.35282321  1  -0.041067  0  -0.022229  0.063584  0  3.991548  0
C  C84  1  0.91146941  0.75857161  0.41365586  1  -0.097691  0  -0.028462  -0.168076  0  3.935316  0
C  C85  1  0.83805165  0.99167307  0.33621197  1  -0.104662  0  -0.028904  -0.169617  0  3.936711  0
C  C86  1  0.90842547  0.87935678  0.37495769  1  -0.106387  0  -0.028949  -0.061491  0  4.097118  0
C  C87  1  0.84129707  0.87074072  0.37482112  1  -0.108904  0  -0.028448  -0.05881  0  4.095911  0
C  C88  1  0.65335206  0.15284586  0.15120023  1  0.014528  0  -0.019331  -0.145664  0  3.942499  0
C  C89  1  0.59805002  0.09847416  0.09800108  1  0.024505  0  -0.0071  0.002234  0  3.975904  0
C  C90  1  0.66733745  0.16719166  0.10819455  1  0.452937  0  0.113425  0.290483  0  4.024542  0
C  C91  1  0.58302528  0.08321738  0.14072743  1  -0.020543  0  -0.084766  -0.111007  0  3.977724  0
C  C92  1  0.64050854  0.14067624  0.08175767  1  0.008588  0  -0.089215  -0.222578  0  3.960383  0
C  C93  1  0.61044121  0.11020785  0.16663173  1  -0.051844  0  -0.074952  -0.064817  0  3.973141  0
C  C94  1  0.67371137  0.52474967  0.12039131  1  -0.009946  0  -0.022659  0.061349  0  3.995561  0
C  C95  1  0.57612239  0.72550802  0.12967601  1  0.048315  0  -0.021827  0.063823  0  3.994466  0
C  C96  1  0.66468341  0.50776045  0.16292707  1  -0.063013  0  -0.028362  -0.169802  0  3.934985  0
C  C97  1  0.58526394  0.74262033  0.08716058  1  -0.134844  0  -0.028925  -0.171763  0  3.937409  0
C  C98  1  0.60830502  0.64615744  0.14180743  1  -0.164391  0  -0.028988  -0.060418  0  4.096745  0
C  C99  1  0.64144510  0.60411934  0.10824291  1  -0.159947  0  -0.028541  -0.059939  0  4.095582  0
C  C100  1  0.08214421  0.12362601  0.17780346  1  -0.059354  0  -0.021821  0.063837  0  3.991919  0
C  C101  1  0.16845986  0.12600069  0.07241907  1  -0.062883  0  -0.021328  0.065479  0  3.990745  0
C  C102  1  0.00994054  0.16281739  0.16503340  1  -0.085079  0  -0.027824  -0.168268  0  3.934755  0
C  C103  1  0.24067622  0.08700690  0.08522154  1  -0.082901  0  -0.028817  -0.170863  0  3.936218  0
C  C104  1  0.11061907  0.13931064  0.10613471  1  -0.150333  0  -0.028829  -0.061915  0  4.096509  0
C  C105  1  0.13993524  0.11012038  0.14407300  1  -0.164723  0  -0.029453  -0.059554  0  4.096597  0
C  C106  1  0.34600485  0.84981550  0.84780736  1  -0.025412  0  -0.019014  -0.14603  0  3.942739  0
C  C107  1  0.40219445  0.90159839  0.90185030  1  -0.03804  0  -0.00741  0.002508  0  3.974128  0
C  C108  1  0.30347510  0.92108393  0.86222216  1  0.46346  0  0.11312  0.289164  0  4.02862  0
C  C109  1  0.44601461  0.83019395  0.88812352  1  0.006441  0  -0.084959  -0.113149  0  3.976154  0
C  C110  1  0.33055646  0.94712979  0.88876958  1  0.072743  0  -0.088804  -0.22109  0  3.958289  0
C  C111  1  0.41789233  0.80525136  0.86154166  1  0.045283  0  -0.074501  -0.062848  0  3.968892  0
C  C112  1  0.40667172  0.44867540  0.85286400  1  -0.045248  0  -0.022708  0.061709  0  3.995407  0
C  C113  1  0.34338148  0.30136877  0.89709693  1  -0.04221  0  -0.022285  0.062802  0  3.991957  0
C  C114  1  0.33838663  0.49156292  0.83617590  1  -0.098373  0  -0.028304  -0.16861  0  3.933971  0
C  C115  1  0.41176693  0.25849663  0.91373022  1  -0.102697  0  -0.028545  -0.169107  0  3.936146  0
C  C116  1  0.34144132  0.37071973  0.87491489  1  -0.105044  0  -0.028807  -0.06037  0  4.094566  0
C  C117  1  0.40855085  0.37936680  0.87505970  1  -0.104439  0  -0.028245  -0.058999  0  4.094668  0
C  C118  1  0.94472717  0.79539794  0.84935949  1  0.03404  0  -0.022512  0.062611  0  3.99377  0
C  C119  1  0.80486712  0.95420288  0.90070879  1  0.004933  0  -0.022395  0.062617  0  3.99477  0
C  C120  1  0.99114956  0.83385397  0.83608165  1  -0.135731  0  -0.028183  -0.170273  0  3.936243  0
C  C121  1  0.75836076  0.91579573  0.91389245  1  -0.149858  0  -0.028692  -0.170671  0  3.936809  0
C  C122  1  0.87279451  0.91038647  0.87717186  1  -0.128428  0  -0.028714  -0.060409  0  4.095772  0
C  C123  1  0.87680380  0.83921844  0.87288715  1  -0.146435  0  -0.028894  -0.060238  0  4.096838  0
S  S124  1  0.29819957  0.32559330  0.39738366  1  0.314435  0  0.091706  0.153064  0  2.776681  0
S  S125  1  0.45167996  0.42394524  0.35259196  1  0.313117  0  0.093201  0.154925  0  2.776574  0
S  S126  1  0.66128132  0.63349698  0.56219190  1  0.30887  0  0.096619  0.160257  0  2.775442  0
S  S127  1  0.58879114  0.61639496  0.68817035  1  0.299199  0  0.091457  0.152604  0  2.778846  0
S  S128  1  0.13371442  0.16122039  0.56190429  1  0.299633  0  0.092709  0.154232  0  2.777233  0
S  S129  1  0.11648338  0.08856447  0.68794835  1  0.304055  0  0.095726  0.159005  0  2.772522  0
S  S130  1  0.97363465  0.80294417  0.40207577  1  0.313544  0  0.09473  0.157424  0  2.776071  0
S  S131  1  0.77607944  0.94709291  0.34770309  1  0.309174  0  0.092347  0.153601  0  2.7795  0
S  S132  1  0.61647563  0.58890852  0.18806828  1  0.302076  0  0.092969  0.155083  0  2.775943  0
S  S133  1  0.63332780  0.66143859  0.06200752  1  0.303482  0  0.092746  0.154747  0  2.775836  0
S  S134  1  0.01273614  0.18309470  0.11169417  1  0.364357  0  0.096301  0.159209  0  2.774775  0
S  S135  1  0.23780739  0.06657288  0.13856759  1  0.348768  0  0.092699  0.154279  0  2.778142  0
S  S136  1  0.27630592  0.44707026  0.84772702  1  0.308548  0  0.093262  0.155113  0  2.77708  0
S  S137  1  0.47375921  0.30304496  0.90221166  1  0.308468  0  0.093511  0.155407  0  2.777443  0
S  S138  1  0.95171738  0.92372710  0.85246289  1  0.316143  0  0.096511  0.159635  0  2.773105  0
S  S139  1  0.79782990  0.82591685  0.89752341  1  0.309855  0  0.092299  0.154285  0  2.777069  0
Br  Br140  1  0.28541150  0.55136654  0.41131986  1  0.017017  0  0.051911  -0.000998  0  1.395111  0
Br  Br141  1  0.46470244  0.19795853  0.33892473  1  0.009642  0  0.046064  -0.008477  0  1.392011  0
Br  Br142  1  0.79470900  0.52788104  0.66919733  1  0.013849  0  0.044829  -0.010599  0  1.402695  0
Br  Br143  1  0.45539354  0.72178213  0.58112409  1  0.011723  0  0.047499  -0.007083  0  1.401894  0
Br  Br144  1  0.02826221  0.29405654  0.66866821  1  0.004544  0  0.045554  -0.009496  0  1.403455  0
Br  Br145  1  0.22170276  0.95576123  0.58113699  1  0.011483  0  0.046419  -0.008382  0  1.403179  0
Br  Br146  1  0.76066756  0.77569060  0.40132701  1  0.017152  0  0.051464  -0.001375  0  1.394461  0
Br  Br147  1  0.98929350  0.97409153  0.34826786  1  0.010374  0  0.045363  -0.009638  0  1.403224  0
Br  Br148  1  0.72115488  0.45572393  0.08142126  1  0.011523  0  0.051943  -0.000928  0  1.395103  0
Br  Br149  1  0.52828144  0.79430963  0.16876372  1  0.011397  0  0.047703  -0.006444  0  1.393142  0
Br  Br150  1  0.10631645  0.09032950  0.23197036  1  0.013311  0  0.046276  -0.009  0  1.403857  0
Br  Br151  1  0.14438346  0.15954187  0.01825364  1  0.01703  0  0.047612  -0.00724  0  1.403223  0
Br  Br152  1  0.48940172  0.47413646  0.84838019  1  0.010573  0  0.048146  -0.005909  0  1.39199  0
Br  Br153  1  0.26066568  0.27587217  0.90160345  1  0.010612  0  0.047178  -0.007282  0  1.403273  0
Br  Br154  1  0.96414936  0.69781804  0.83912737  1  0.008988  0  0.046431  -0.00788  0  1.392246  0
Br  Br155  1  0.78560765  0.05165890  0.91104725  1  0.011519  0  0.049004  -0.004842  0  1.392838  0
O  O156  1  0.00070474  0.49872680  0.49973219  1  -1.235207  0  -0.570543  -1.03181  0  2.520303  0
O  O157  1  0.07833635  0.31463717  0.52257479  1  -1.175354  0  -0.318068  -0.54337  0  2.31711  0
O  O158  1  0.03169463  0.53123912  0.58643925  1  -1.147556  0  -0.313688  -0.54444  0  2.331123  0
O  O159  1  0.15428013  0.50534046  0.44973817  1  -1.16766  0  -0.313679  -0.538019  0  2.387512  0
O  O160  1  0.02646097  0.37535150  0.58007553  1  -1.175665  0  -0.315391  -0.539143  0  2.387934  0
O  O161  1  0.15440986  0.39060919  0.44638495  1  -1.154762  0  -0.319866  -0.545818  0  2.31555  0
O  O162  1  0.08359346  0.58583855  0.53050333  1  -1.156564  0  -0.310877  -0.539872  0  2.372942  0
O  O163  1  0.00466549  0.65785208  0.44919389  1  -1.165699  0  -0.317671  -0.539203  0  2.322597  0
O  O164  1  0.88811638  0.49523405  0.44287980  1  -1.161155  0  -0.311846  -0.541579  0  2.377089  0
O  O165  1  0.89151996  0.65230443  0.44799185  1  -1.161653  0  -0.312903  -0.538167  0  2.387707  0
O  O166  1  0.99684440  0.38588456  0.44107567  1  -1.166502  0  -0.31462  -0.547643  0  2.317472  0
O  O167  1  0.87615952  0.52594377  0.58046688  1  -1.163283  0  -0.314293  -0.539617  0  2.387418  0
O  O168  1  0.81450077  0.57830281  0.52313754  1  -1.1633  0  -0.316486  -0.538223  0  2.323418  0
O  O169  1  0.74883531  0.25106169  0.25035355  1  -1.23325  0  -0.570158  -1.030611  0  2.51938  0
O  O170  1  0.59525399  0.35915145  0.30363889  1  -1.17666  0  -0.319545  -0.543889  0  2.317854  0
O  O171  1  0.66461762  0.16263092  0.21881399  1  -1.159528  0  -0.313636  -0.545811  0  2.324953  0
O  O172  1  0.72597897  0.37475579  0.17014889  1  -1.173942  0  -0.313602  -0.538134  0  2.387533  0
O  O173  1  0.59524156  0.24480012  0.29947302  1  -1.169285  0  -0.314909  -0.54214  0  2.385697  0
O  O174  1  0.67160161  0.43571517  0.22744052  1  -1.173004  0  -0.31834  -0.542367  0  2.317837  0
O  O175  1  0.72044010  0.21837877  0.16539449  1  -1.14549  0  -0.311331  -0.540435  0  2.372586  0
O  O176  1  0.87739423  0.22411900  0.16884039  1  -1.159036  0  -0.316379  -0.537552  0  2.320893  0
O  O177  1  0.86273339  0.25467210  0.30867694  1  -1.170422  0  -0.311209  -0.539354  0  2.341652  0
O  O178  1  0.93264849  0.17378320  0.22828954  1  -1.137831  0  -0.313781  -0.538004  0  2.388047  0
O  O179  1  0.75314613  0.36353737  0.30826542  1  -1.172436  0  -0.311297  -0.541533  0  2.329828  0
O  O180  1  0.74560780  0.09191859  0.29980433  1  -1.168726  0  -0.318922  -0.543495  0  2.320399  0
O  O181  1  0.85717594  0.09893871  0.30330156  1  -1.161567  0  -0.315174  -0.538753  0  2.389739  0
O  O182  1  0.24966337  0.74997013  0.75048766  1  -1.235014  0  -0.570413  -1.031124  0  2.519739  0
O  O183  1  0.37411935  0.72409094  0.66974474  1  -1.16204  0  -0.314484  -0.538267  0  2.390779  0
O  O184  1  0.36431835  0.75461887  0.80829485  1  -1.163891  0  -0.314286  -0.54622  0  2.324745  0
O  O185  1  0.17094258  0.93506964  0.72714986  1  -1.172868  0  -0.31715  -0.540355  0  2.318038  0
O  O186  1  0.43525383  0.67307941  0.72731146  1  -1.173155  0  -0.319169  -0.544004  0  2.321103  0
O  O187  1  0.22392877  0.87442576  0.66971557  1  -1.178178  0  -0.314662  -0.538607  0  2.392082  0
O  O188  1  0.25319079  0.86150153  0.80772499  1  -1.162902  0  -0.311608  -0.541455  0  2.369976  0
O  O189  1  0.09468461  0.85888178  0.80312127  1  -1.17208  0  -0.317018  -0.539177  0  2.320355  0
O  O190  1  0.16501232  0.66303470  0.71901808  1  -1.169563  0  -0.310868  -0.541773  0  2.335444  0
O  O191  1  0.09493970  0.74419564  0.79956111  1  -1.17587  0  -0.315051  -0.541607  0  2.385232  0
O  O192  1  0.21853679  0.71890004  0.66430999  1  -1.151865  0  -0.310897  -0.53815  0  2.34064  0
O  O193  1  0.35755832  0.59870969  0.80261962  1  -1.163963  0  -0.314166  -0.540933  0  2.383453  0
O  O194  1  0.24571929  0.59147560  0.79996019  1  -1.167378  0  -0.318703  -0.541291  0  2.321235  0
O  O195  1  0.50108936  0.99893379  0.00001652  1  -1.229413  0  -0.569928  -1.030094  0  2.518453  0
O  O196  1  0.50442268  0.15825374  0.94997943  1  -1.166336  0  -0.318861  -0.542906  0  2.321551  0
O  O197  1  0.38752656  0.99550476  0.94136274  1  -1.17376  0  -0.312191  -0.538709  0  2.339777  0
O  O198  1  0.65420003  0.89122578  0.94628690  1  -1.168075  0  -0.319965  -0.544569  0  2.318885  0
O  O199  1  0.39276800  0.15117565  0.94681631  1  -1.159945  0  -0.314399  -0.538592  0  2.389456  0
O  O200  1  0.65462300  0.00542240  0.95036158  1  -1.171577  0  -0.315033  -0.541556  0  2.386842  0
O  O201  1  0.49685746  0.88641914  0.94160545  1  -1.170347  0  -0.310376  -0.541975  0  2.330665  0
O  O202  1  0.57808932  0.81472576  0.02269412  1  -1.174557  0  -0.319174  -0.543829  0  2.317716  0
O  O203  1  0.53018680  0.03217516  0.08592928  1  -1.154622  0  -0.310759  -0.541207  0  2.334246  0
O  O204  1  0.52541990  0.87576525  0.08005226  1  -1.170046  0  -0.315869  -0.542312  0  2.385854  0
O  O205  1  0.58485539  0.08659202  0.03104023  1  -1.174446  0  -0.311492  -0.539944  0  2.336155  0
O  O206  1  0.31783921  0.07607319  0.02200374  1  -1.135546  0  -0.314794  -0.539247  0  2.388091  0
O  O207  1  0.37336386  0.02694961  0.08143766  1  -1.165547  0  -0.319158  -0.543802  0  2.321423  0
F  F208  1  0.78245335  0.51648225  0.39901833  1  -0.622779  0  -0.098938  -0.135842  0  1.350232  0
F  F209  1  0.15963794  0.65951849  0.54208835  1  -0.629472  0  -0.098716  -0.135843  0  1.348089  0
F  F210  1  0.70789084  0.20787426  0.09050973  1  -0.628699  0  -0.099198  -0.136258  0  1.347159  0
F  F211  1  0.23369877  0.96789927  0.85073315  1  -0.622428  0  -0.098931  -0.135409  0  1.347343  0
