# generated using pymatgen
data_AlH4C8NO7
_symmetry_space_group_name_H-M   'P 1'
_cell_length_a   6.88335817
_cell_length_b   12.67753104
_cell_length_c   16.93107429
_cell_angle_alpha   89.99211875
_cell_angle_beta   89.35832112
_cell_angle_gamma   89.46913241
_symmetry_Int_Tables_number   1
_chemical_formula_structural   AlH4C8NO7
_chemical_formula_sum   'Al4 H16 C32 N4 O28'
_cell_volume   1477.31697404
_cell_formula_units_Z   4
loop_
 _symmetry_equiv_pos_site_id
 _symmetry_equiv_pos_as_xyz
  1  'x, y, z'
loop_
 _atom_site_type_symbol
 _atom_site_label
 _atom_site_symmetry_multiplicity
 _atom_site_fract_x
 _atom_site_fract_y
 _atom_site_fract_z
 _atom_site_occupancy
 _atom_site_pbe_bader_charge
 _atom_site_pbe_bader_spin_density
 _atom_site_pbe_cm5_charge
 _atom_site_pbe_ddec_charge
 _atom_site_pbe_ddec_spin_density
 _atom_site_pbe_ddec_sum_bond_order
 _atom_site_pbe_magmom
Al  Al0  1  0.00708464  0.99932926  0.50172389  1  2.500557  0  0.408686  1.643339  0  2.531512  0
Al  Al1  1  0.50675007  0.00397895  0.49839434  1  2.506963  0  0.401711  1.654561  0  2.536964  0
Al  Al2  1  0.98990190  0.50058778  0.99827720  1  2.505298  0  0.409266  1.649076  0  2.555934  0
Al  Al3  1  0.48972112  0.50211092  0.99904822  1  2.506438  0  0.409139  1.645761  0  2.558129  0
H  H4  1  0.26101750  0.86571496  0.47871981  1  0.639227  0  0.337854  0.421842  0  0.879313  0
H  H5  1  0.76046616  0.14002545  0.48513429  1  0.651262  0  0.341296  0.425578  0  0.868616  0
H  H6  1  0.23514841  0.64013443  0.01146055  1  0.637363  0  0.350065  0.42822  0  0.85512  0
H  H7  1  0.73991601  0.36272247  0.01142101  1  0.609452  0  0.349028  0.427072  0  0.857339  0
H  H8  1  0.05067870  0.71334509  0.82011236  1  0.058395  0  0.110017  0.113094  0  0.999818  0
H  H9  1  0.42934483  0.68834433  0.80676256  1  0.155139  0  0.119857  0.133574  0  0.98892  0
H  H10  1  0.04782431  0.82784889  0.69791374  1  0.136514  0  0.111558  0.10809  0  1.104313  0
H  H11  1  0.54755237  0.28126226  0.17147134  1  0.062445  0  0.108827  0.110944  0  0.999864  0
H  H12  1  0.92838226  0.31776441  0.19694805  1  0.113017  0  0.119062  0.132195  0  0.990219  0
H  H13  1  0.55043888  0.16797393  0.29402067  1  0.175697  0  0.110048  0.105778  0  1.099042  0
H  H14  1  0.94457705  0.27982112  0.82552931  1  0.119485  0  0.110424  0.113562  0  0.996578  0
H  H15  1  0.56138041  0.32303262  0.80159272  1  0.114328  0  0.12062  0.135265  0  0.987674  0
H  H16  1  0.95219080  0.16534023  0.70357070  1  0.141973  0  0.111412  0.10816  0  1.097546  0
H  H17  1  0.05044432  0.66905986  0.19497632  1  0.095707  0  0.110923  0.114707  0  0.996837  0
H  H18  1  0.43122116  0.71306777  0.18613328  1  0.114797  0  0.118682  0.130804  0  0.99116  0
H  H19  1  0.05776414  0.77967863  0.31882914  1  0.161502  0  0.109585  0.105151  0  1.099439  0
C  C20  1  0.76278452  0.87789270  0.39278202  1  1.608044  0  0.27554  0.654658  0  4.078733  0
C  C21  1  0.75054514  0.88478016  0.60981138  1  1.60642  0  0.278287  0.659317  0  4.074525  0
C  C22  1  0.25035721  0.11882652  0.60931050  1  1.611596  0  0.278468  0.658778  0  4.072712  0
C  C23  1  0.25671511  0.11912702  0.38956326  1  1.61526  0  0.275144  0.656388  0  4.079147  0
C  C24  1  0.73634350  0.62154268  0.10832892  1  1.582198  0  0.272284  0.649367  0  4.080725  0
C  C25  1  0.74118420  0.62337758  0.89125164  1  1.560628  0  0.274888  0.651419  0  4.076288  0
C  C26  1  0.24817205  0.37998370  0.89081328  1  1.583995  0  0.273941  0.648682  0  4.082097  0
C  C27  1  0.23693810  0.37774928  0.10642997  1  1.574786  0  0.272144  0.649216  0  4.082346  0
C  C28  1  0.74359972  0.82030509  0.68387781  1  0.070669  0  0.004782  -0.067169  0  3.911802  0
C  C29  1  0.74116100  0.69285490  0.82011546  1  -0.054683  0  -0.004899  -0.022113  0  3.966181  0
C  C30  1  0.57056500  0.78236449  0.71668603  1  0.127856  0  0.092017  0.063405  0  3.965721  0
C  C31  1  0.91596649  0.73262434  0.78997124  1  0.069814  0  -0.074383  -0.084157  0  3.942138  0
C  C32  1  0.56586918  0.71853883  0.78324335  1  0.005171  0  -0.072244  -0.148726  0  3.937604  0
C  C33  1  0.91571889  0.79511689  0.72264138  1  0.040156  0  -0.073121  -0.064752  0  3.940837  0
C  C34  1  0.24700095  0.18179981  0.31459414  1  0.007828  0  0.004828  -0.065846  0  3.903488  0
C  C35  1  0.23922254  0.30835521  0.17779261  1  -0.02991  0  -0.005337  -0.021897  0  3.964724  0
C  C36  1  0.07296900  0.22199102  0.28459094  1  0.185616  0  0.091697  0.065702  0  3.955657  0
C  C37  1  0.41449974  0.26512653  0.20452954  1  0.028512  0  -0.074626  -0.083427  0  3.944781  0
C  C38  1  0.06571486  0.28573367  0.21803280  1  0.014805  0  -0.073832  -0.149652  0  3.939465  0
C  C39  1  0.41727400  0.20323103  0.27215015  1  0.027818  0  -0.07272  -0.062207  0  3.940088  0
C  C40  1  0.25504353  0.18203140  0.68396049  1  0.118012  0  0.005348  -0.066215  0  3.908919  0
C  C41  1  0.25111174  0.31008995  0.81988146  1  0.053982  0  -0.004429  -0.021437  0  3.965985  0
C  C42  1  0.42574044  0.22464398  0.71408857  1  0.150403  0  0.09157  0.064275  0  3.956408  0
C  C43  1  0.07943362  0.26468109  0.79301035  1  -0.110638  0  -0.074312  -0.083783  0  3.940492  0
C  C44  1  0.42695747  0.28918678  0.78022133  1  0.005259  0  -0.071992  -0.149639  0  3.936569  0
C  C45  1  0.08256535  0.20196252  0.72574562  1  0.005909  0  -0.071775  -0.062619  0  3.93805  0
C  C46  1  0.75423729  0.80895479  0.32087598  1  0.038195  0  0.005862  -0.060021  0  3.897886  0
C  C47  1  0.74150643  0.68620995  0.18207162  1  0.041109  0  -0.00471  -0.019248  0  3.962291  0
C  C48  1  0.57911336  0.78712369  0.28317197  1  0.190711  0  0.091416  0.06299  0  3.951958  0
C  C49  1  0.91830668  0.70412220  0.21987082  1  -0.066828  0  -0.073534  -0.084347  0  3.93873  0
C  C50  1  0.56957946  0.72786533  0.21446749  1  -0.030092  0  -0.072449  -0.148259  0  3.94491  0
C  C51  1  0.92342218  0.76503682  0.28800923  1  0.041855  0  -0.07222  -0.064354  0  3.941097  0
N  N52  1  0.38344057  0.81233346  0.68206826  1  0.392446  0  0.060693  0.520137  0  4.22309  0
N  N53  1  0.88668857  0.19157760  0.32086684  1  0.416602  0  0.061137  0.518147  0  4.223895  0
N  N54  1  0.61525915  0.19631784  0.67886273  1  0.399253  0  0.061274  0.518615  0  4.220515  0
N  N55  1  0.39261758  0.82364073  0.31680230  1  0.391283  0  0.062344  0.520224  0  4.223612  0
O  O56  1  0.92878893  0.90191908  0.41879699  1  -1.232142  0  -0.223563  -0.573263  0  2.341101  0
O  O57  1  0.58812580  0.91249153  0.58122199  1  -1.250926  0  -0.226504  -0.591186  0  2.412501  0
O  O58  1  0.41236775  0.10269399  0.57411101  1  -1.257007  0  -0.229606  -0.597287  0  2.390649  0
O  O59  1  0.09543816  0.09951804  0.42375887  1  -1.248429  0  -0.231429  -0.600697  0  2.396402  0
O  O60  1  0.08514065  0.08908271  0.58639759  1  -1.243268  0  -0.218069  -0.562945  0  2.36288  0
O  O61  1  0.42506714  0.09344226  0.41295844  1  -1.249234  0  -0.224148  -0.577897  0  2.370939  0
O  O62  1  0.59867406  0.90603462  0.42114906  1  -1.253327  0  -0.228117  -0.598871  0  2.431841  0
O  O63  1  0.91752930  0.90426116  0.58117949  1  -1.235809  0  -0.221218  -0.568293  0  2.353157  0
O  O64  1  0.25881608  0.93761458  0.49878341  1  -1.436462  0  -0.451296  -0.98281  0  2.135779  0
O  O65  1  0.75772304  0.06550921  0.49847544  1  -1.448413  0  -0.449912  -0.982924  0  2.132811  0
O  O66  1  0.90091192  0.59772351  0.07775866  1  -1.259848  0  -0.234767  -0.600523  0  2.359057  0
O  O67  1  0.57613839  0.59930039  0.92063371  1  -1.254297  0  -0.234164  -0.593587  0  2.343281  0
O  O68  1  0.41207041  0.40981738  0.91638027  1  -1.26469  0  -0.232715  -0.589074  0  2.348872  0
O  O69  1  0.07077704  0.40590532  0.08091060  1  -1.255342  0  -0.236368  -0.597501  0  2.340744  0
O  O70  1  0.08192781  0.40358843  0.92010487  1  -1.258037  0  -0.232893  -0.593738  0  2.342865  0
O  O71  1  0.40192562  0.40250731  0.07718209  1  -1.256104  0  -0.235404  -0.600133  0  2.344615  0
O  O72  1  0.56982066  0.59621022  0.08236019  1  -1.252513  0  -0.235915  -0.595718  0  2.323643  0
O  O73  1  0.90651347  0.59427101  0.91694501  1  -1.254274  0  -0.232121  -0.592  0  2.343891  0
O  O74  1  0.23847317  0.56529754  0.99993556  1  -1.44381  0  -0.450338  -0.987157  0  2.139727  0
O  O75  1  0.74031496  0.43743459  0.99946376  1  -1.41512  0  -0.449796  -0.986855  0  2.140862  0
O  O76  1  0.31078694  0.89619318  0.70635577  1  -0.443119  0  -0.102112  -0.294416  0  1.939415  0
O  O77  1  0.30979533  0.75062138  0.63488459  1  -0.427421  0  -0.105419  -0.294241  0  1.892069  0
O  O78  1  0.82100869  0.10629079  0.29821228  1  -0.448322  0  -0.097685  -0.286618  0  1.941598  0
O  O79  1  0.80633396  0.25360027  0.36742853  1  -0.444937  0  -0.109053  -0.30551  0  1.891644  0
O  O80  1  0.68230658  0.10975514  0.69968570  1  -0.441298  0  -0.099104  -0.291137  0  1.952434  0
O  O81  1  0.69633296  0.26103408  0.63548001  1  -0.428203  0  -0.108709  -0.299631  0  1.882861  0
O  O82  1  0.32125991  0.76689604  0.36918238  1  -0.445547  0  -0.105074  -0.303129  0  1.945391  0
O  O83  1  0.31584996  0.90274456  0.28780589  1  -0.431698  0  -0.099644  -0.291085  0  1.910282  0
