# generated using pymatgen
data_Zn3H6C18I4(O6F)2
_symmetry_space_group_name_H-M   'P 1'
_cell_length_a   16.95626950
_cell_length_b   16.95659807
_cell_length_c   17.06415785
_cell_angle_alpha   100.51881194
_cell_angle_beta   114.11100785
_cell_angle_gamma   113.90304995
_symmetry_Int_Tables_number   1
_chemical_formula_structural   Zn3H6C18I4(O6F)2
_chemical_formula_sum   'Zn6 H12 C36 I8 O24 F4'
_cell_volume   3720.97071233
_cell_formula_units_Z   2
loop_
 _symmetry_equiv_pos_site_id
 _symmetry_equiv_pos_as_xyz
  1  'x, y, z'
loop_
 _atom_site_type_symbol
 _atom_site_label
 _atom_site_symmetry_multiplicity
 _atom_site_fract_x
 _atom_site_fract_y
 _atom_site_fract_z
 _atom_site_occupancy
 _atom_site_pbe_bader_charge
 _atom_site_pbe_bader_spin_density
 _atom_site_pbe_cm5_charge
 _atom_site_pbe_ddec_charge
 _atom_site_pbe_ddec_spin_density
 _atom_site_pbe_ddec_sum_bond_order
 _atom_site_pbe_magmom
Zn  Zn0  1  0.92933017  0.92933789  0.00000438  1  1.313349  0  0.750906  0.998908  0  2.028298  0
Zn  Zn1  1  0.50022227  0.93995490  0.44018794  1  1.315209  0  0.751831  0.987396  0  2.046128  0
Zn  Zn2  1  0.49977735  0.06004289  0.55981217  1  1.306231  0  0.751806  0.987403  0  2.046113  0
Zn  Zn3  1  0.07067141  0.07066351  0.99999699  1  1.317539  0  0.75088  0.998879  0  2.028328  0
Zn  Zn4  1  0.07038635  0.50159401  0.57198099  1  1.31081  0  0.751889  1.001275  0  2.023345  0
Zn  Zn5  1  0.92960846  0.49840574  0.42801503  1  1.3124  0  0.752081  1.001435  0  2.022685  0
H  H6  1  0.89278582  0.08472472  0.20669618  1  0.115494  0  0.099576  0.120452  0  1.003192  0
H  H7  1  0.14551465  0.85466835  0.90438349  1  0.076822  0  0.103611  0.114581  0  0.957017  0
H  H8  1  0.04971637  0.75886414  0.90439224  1  0.060555  0  0.103504  0.1144  0  0.958383  0
H  H9  1  0.95028800  0.24113752  0.09561050  1  0.060447  0  0.103495  0.114397  0  0.958373  0
H  H10  1  0.85448618  0.14533199  0.09561642  1  0.076864  0  0.10361  0.114539  0  0.957012  0
H  H11  1  0.84981039  0.25273102  0.19776040  1  0.057181  0  0.092085  0.107449  0  1.000867  0
H  H12  1  0.15019276  0.74727170  0.80224041  1  0.057263  0  0.092107  0.107471  0  1.000775  0
H  H13  1  0.05498189  0.65205124  0.80224056  1  0.055507  0  0.092086  0.107805  0  0.999081  0
H  H14  1  0.10721637  0.91527725  0.79330721  1  0.115465  0  0.099568  0.12043  0  1.003207  0
H  H15  1  0.94502161  0.34795025  0.19775989  1  0.055448  0  0.092072  0.107793  0  0.999069  0
H  H16  1  0.87803243  0.68608967  0.79330690  1  0.114816  0  0.099606  0.12022  0  1.003539  0
H  H17  1  0.12196968  0.31391097  0.20669499  1  0.114836  0  0.099655  0.120249  0  1.00355  0
C  C18  1  0.13920750  0.00028963  0.13948735  1  1.663908  0  0.228289  0.6579  0  4.246415  0
C  C19  1  0.13933781  0.63934913  0.49998448  1  1.699018  0  0.219599  0.63865  0  4.289553  0
C  C20  1  0.86064067  0.36064845  0.49999665  1  1.698959  0  0.219717  0.638722  0  4.289512  0
C  C21  1  0.99887087  0.38137589  0.38025222  1  1.592408  0  0.209334  0.582274  0  4.165442  0
C  C22  1  0.00111455  0.61862525  0.61973090  1  1.592538  0  0.209262  0.582177  0  4.165307  0
C  C23  1  0.63940557  0.13941809  0.50000033  1  1.669979  0  0.232372  0.66987  0  4.228298  0
C  C24  1  0.36059246  0.86058200  0.49999820  1  1.670095  0  0.232462  0.670068  0  4.228111  0
C  C25  1  0.86079408  0.99971177  0.86051402  1  1.663866  0  0.228233  0.657794  0  4.246548  0
C  C26  1  0.36040261  0.00007883  0.36049330  1  1.677348  0  0.232898  0.666936  0  4.232938  0
C  C27  1  0.63959865  0.99991731  0.63950064  1  1.676848  0  0.232921  0.666937  0  4.232763  0
C  C28  1  0.78279199  0.28279986  0.50001353  1  -0.262754  0  -0.013219  -0.090834  0  3.92701  0
C  C29  1  0.21720468  0.71720292  0.49998862  1  -0.263183  0  -0.01313  -0.090725  0  3.927097  0
C  C30  1  0.71708442  0.21708753  0.50000000  1  0.05405  0  -0.014961  -0.09995  0  3.887551  0
C  C31  1  0.28291174  0.78291384  0.49999951  1  0.054418  0  -0.015002  -0.100063  0  3.887811  0
C  C32  1  0.00398017  0.11874315  0.12268512  1  1.584975  0  0.222209  0.595544  0  4.116445  0
C  C33  1  0.99602195  0.88125749  0.87731677  1  1.584939  0  0.222269  0.595675  0  4.116179  0
C  C34  1  0.97169785  0.14388407  0.25654584  1  -0.144087  0  -0.114825  -0.139759  0  3.685062  0
C  C35  1  0.02830583  0.85611789  0.74345550  1  -0.14406  0  -0.114785  -0.139617  0  3.684966  0
C  C36  1  0.88733410  0.71513595  0.74344669  1  -0.14164  0  -0.114862  -0.13939  0  3.68525  0
C  C37  1  0.11266850  0.28486613  0.25655641  1  -0.14152  0  -0.114932  -0.139496  0  3.685258  0
C  C38  1  0.97604014  0.21774229  0.32967573  1  0.461655  0  0.088732  0.275219  0  3.650314  0
C  C39  1  0.02396160  0.78225961  0.67032509  1  0.461843  0  0.088696  0.275213  0  3.650355  0
C  C40  1  0.88808683  0.64635679  0.67032066  1  0.471192  0  0.088661  0.27463  0  3.650061  0
C  C41  1  0.11191391  0.35364441  0.32967986  1  0.471204  0  0.088666  0.274635  0  3.650018  0
C  C42  1  0.28261945  0.00052205  0.28314283  1  -0.257922  0  -0.009838  -0.093563  0  3.887684  0
C  C43  1  0.92941863  0.21213436  0.14152371  1  -0.075222  0  -0.152145  -0.171857  0  3.806629  0
C  C44  1  0.07058565  0.78786815  0.85847965  1  -0.075046  0  -0.152099  -0.171843  0  3.806628  0
C  C45  1  0.00983438  0.18890217  0.19869420  1  0.031936  0  -0.022141  0.016514  0  3.787895  0
C  C46  1  0.99016756  0.81109799  0.80130682  1  0.031914  0  -0.022211  0.01635  0  3.78791  0
C  C47  1  0.71738490  0.99947748  0.71685492  1  -0.258135  0  -0.009876  -0.093716  0  3.887461  0
C  C48  1  0.00236175  0.31034447  0.31273047  1  0.001465  0  -0.026279  -0.133695  0  3.786721  0
C  C49  1  0.99764031  0.68965840  0.68727067  1  0.001053  0  -0.026306  -0.13372  0  3.78672  0
C  C50  1  0.92623570  0.28282782  0.20905841  1  -0.001097  0  -0.172719  -0.176159  0  3.888198  0
C  C51  1  0.07376586  0.71717361  0.79094152  1  -0.001377  0  -0.172746  -0.17616  0  3.888187  0
C  C52  1  0.21692362  0.00062115  0.21756036  1  0.076095  0  -0.01072  -0.091582  0  3.904937  0
C  C53  1  0.78308017  0.99937993  0.78244179  1  0.076345  0  -0.010645  -0.091406  0  3.904812  0
I  I54  1  0.03937259  0.06999349  0.32113825  1  0.097201  0  0.032526  -0.038341  0  1.391973  0
I  I55  1  0.17428637  0.84604644  0.68298558  1  0.038987  0  0.045989  -0.074804  0  1.26532  0
I  I56  1  0.83697387  0.50871778  0.68301522  1  0.039069  0  0.045839  -0.074964  0  1.265259  0
I  I57  1  0.16303360  0.49128513  0.31698778  1  0.039005  0  0.04583  -0.074967  0  1.26523  0
I  I58  1  0.82571727  0.15395772  0.31701644  1  0.038906  0  0.04599  -0.074786  0  1.265351  0
I  I59  1  0.96062858  0.93000779  0.67886342  1  0.097139  0  0.0325  -0.038399  0  1.391948  0
I  I60  1  0.74884009  0.71822646  0.67884935  1  0.091517  0  0.032451  -0.038578  0  1.391508  0
I  I61  1  0.25116176  0.28177456  0.32115228  1  0.091484  0  0.032463  -0.038558  0  1.391513  0
O  O62  1  0.04685757  0.93815194  0.10882348  1  -1.123038  0  -0.303807  -0.537892  0  2.251591  0
O  O63  1  0.06198710  0.96876240  0.90787889  1  -1.1594  0  -0.308634  -0.541335  0  2.334032  0
O  O64  1  0.93910329  0.84588131  0.90789326  1  -1.146689  0  -0.308624  -0.540822  0  2.333021  0
O  O65  1  0.06089671  0.15411881  0.09210723  1  -1.146762  0  -0.308608  -0.540762  0  2.333093  0
O  O66  1  0.93801588  0.03123841  0.09212529  1  -1.159321  0  -0.308583  -0.541254  0  2.334104  0
O  O67  1  0.95282361  0.39260318  0.56353164  1  -1.133332  0  -0.303828  -0.53236  0  2.245777  0
O  O68  1  0.04718183  0.60740054  0.43647145  1  -1.133808  0  -0.303678  -0.532168  0  2.246647  0
O  O69  1  0.82906819  0.38928703  0.43647906  1  -1.125424  0  -0.303198  -0.531879  0  2.2472  0
O  O70  1  0.95314334  0.06184973  0.89117792  1  -1.123083  0  -0.303738  -0.537826  0  2.251669  0
O  O71  1  0.17093136  0.61071016  0.56352736  1  -1.124982  0  -0.303233  -0.531986  0  2.246266  0
O  O72  1  0.05856787  0.40962786  0.46820239  1  -1.139958  0  -0.304629  -0.532341  0  2.365004  0
O  O73  1  0.94143574  0.59037707  0.53180455  1  -1.140188  0  -0.304498  -0.532144  0  2.365679  0
O  O74  1  0.93599723  0.40565092  0.34160882  1  -1.13494  0  -0.303987  -0.527627  0  2.31858  0
O  O75  1  0.82932271  0.93803916  0.89119204  1  -1.124026  0  -0.304344  -0.538145  0  2.25395  0
O  O76  1  0.06400881  0.59434762  0.65839344  1  -1.134714  0  -0.303981  -0.527646  0  2.317615  0
O  O77  1  0.60904687  0.16142598  0.55290998  1  -1.113668  0  -0.304484  -0.537654  0  2.224852  0
O  O78  1  0.39095186  0.83857597  0.44709351  1  -1.113689  0  -0.30448  -0.537672  0  2.224943  0
O  O79  1  0.60850481  0.05615102  0.44710034  1  -1.122653  0  -0.304142  -0.537198  0  2.226185  0
O  O80  1  0.39149332  0.94385037  0.55290113  1  -1.12268  0  -0.304179  -0.537273  0  2.225944  0
O  O81  1  0.17067846  0.06196213  0.10880963  1  -1.124062  0  -0.304329  -0.538162  0  2.253941  0
O  O82  1  0.39086313  0.05249595  0.44337098  1  -1.121355  0  -0.301732  -0.533801  0  2.223112  0
O  O83  1  0.60914104  0.94750171  0.55662870  1  -1.121336  0  -0.30172  -0.533742  0  2.223314  0
O  O84  1  0.39100177  0.94722569  0.33823639  1  -1.119976  0  -0.304853  -0.537776  0  2.222145  0
O  O85  1  0.60899759  0.05277034  0.66175990  1  -1.119469  0  -0.304927  -0.537824  0  2.221816  0
F  F86  1  0.04445395  0.23875187  0.42100483  1  -0.611659  0  -0.108039  -0.129172  0  1.442885  0
F  F87  1  0.95555164  0.76125235  0.57899770  1  -0.611629  0  -0.10803  -0.129189  0  1.442947  0
F  F88  1  0.81774136  0.62342564  0.57900178  1  -0.609837  0  -0.108271  -0.128813  0  1.44327  0
F  F89  1  0.18226013  0.37657661  0.42100021  1  -0.609878  0  -0.108282  -0.128795  0  1.44326  0
