# generated using pymatgen
data_CdH8C10SN3Cl
_symmetry_space_group_name_H-M   'P 1'
_cell_length_a   7.44059200
_cell_length_b   8.30878277
_cell_length_c   10.41305941
_cell_angle_alpha   104.12728389
_cell_angle_beta   98.17033925
_cell_angle_gamma   111.91797203
_symmetry_Int_Tables_number   1
_chemical_formula_structural   CdH8C10SN3Cl
_chemical_formula_sum   'Cd2 H16 C20 S2 N6 Cl2'
_cell_volume   559.36544128
_cell_formula_units_Z   2
loop_
 _symmetry_equiv_pos_site_id
 _symmetry_equiv_pos_as_xyz
  1  'x, y, z'
loop_
 _atom_site_type_symbol
 _atom_site_label
 _atom_site_symmetry_multiplicity
 _atom_site_fract_x
 _atom_site_fract_y
 _atom_site_fract_z
 _atom_site_occupancy
 _atom_site_hle17_bader_spin_density
 _atom_site_hle17_ddec_charge
 _atom_site_hle17_ddec_spin_density
 _atom_site_hle17_ddec_sum_bond_order
 _atom_site_hle17_magmom
 _atom_site_hse06_10hf_bader_spin_density
 _atom_site_hse06_10hf_ddec_charge
 _atom_site_hse06_10hf_ddec_spin_density
 _atom_site_hse06_10hf_ddec_sum_bond_order
 _atom_site_hse06_10hf_magmom
 _atom_site_hse06_bader_spin_density
 _atom_site_hse06_ddec_charge
 _atom_site_hse06_ddec_spin_density
 _atom_site_hse06_ddec_sum_bond_order
 _atom_site_hse06_magmom
 _atom_site_pbe_bader_spin_density
 _atom_site_pbe_cm5_charge
 _atom_site_pbe_ddec_charge
 _atom_site_pbe_ddec_spin_density
 _atom_site_pbe_ddec_sum_bond_order
 _atom_site_pbe_magmom
Cd  Cd0  1  0.63116304  0.89583662  0.60247936  1  0  0.939969  0  2.003107  0  0  0.771377  0  2.466413  0  0  0.814988  0  2.427868  0  0  0.651213  0.740544  0  2.491263  0
Cd  Cd1  1  0.36884317  0.10415650  0.39752095  1  0  0.940003  0  2.003059  0  0  0.771388  0  2.466389  0  0  0.814995  0  2.427848  0  0  0.651203  0.740555  0  2.491245  0
H  H2  1  0.52260432  0.79555812  0.87345189  1  0  0.064665  0  0.956012  0  0  0.07223  0  1.026074  0  0  0.074085  0  1.024528  0  0  0.106918  0.071003  0  1.027143  0
H  H3  1  0.47739231  0.20444326  0.12655403  1  0  0.064638  0  0.956009  0  0  0.072233  0  1.026034  0  0  0.074088  0  1.024488  0  0  0.106927  0.071003  0  1.02711  0
H  H4  1  0.65268029  0.92075450  0.13147190  1  0  0.108601  0  0.985109  0  0  0.115711  0  1.051463  0  0  0.119046  0  1.050622  0  0  0.091664  0.113884  0  1.05156  0
H  H5  1  0.34732104  0.07925102  0.86853347  1  0  0.108597  0  0.985176  0  0  0.115712  0  1.051517  0  0  0.119046  0  1.050678  0  0  0.091662  0.113882  0  1.051613  0
H  H6  1  0.96436967  0.21293705  0.23593589  1  0  0.106958  0  0.960262  0  0  0.116549  0  1.02369  0  0  0.118946  0  1.021962  0  0  0.101262  0.115035  0  1.024907  0
H  H7  1  0.03563378  0.78706725  0.76406462  1  0  0.106947  0  0.96021  0  0  0.116537  0  1.023665  0  0  0.118933  0  1.02194  0  0  0.101264  0.115018  0  1.024876  0
H  H8  1  0.23918268  0.47475676  0.20460024  1  0  0.105946  0  0.950481  0  0  0.114901  0  1.014444  0  0  0.117273  0  1.013956  0  0  0.100161  0.113124  0  1.015158  0
H  H9  1  0.76081064  0.52524625  0.79540090  1  0  0.105942  0  0.950493  0  0  0.114894  0  1.014466  0  0  0.117266  0  1.013973  0  0  0.100161  0.113116  0  1.015173  0
H  H10  1  0.40556837  0.62125794  0.04807167  1  0  0.091903  0  0.960981  0  0  0.103304  0  1.021202  0  0  0.105672  0  1.020965  0  0  0.097225  0.101637  0  1.021419  0
H  H11  1  0.59441955  0.37874796  0.95192858  1  0  0.091886  0  0.961005  0  0  0.103269  0  1.021229  0  0  0.105636  0  1.020993  0  0  0.09721  0.101604  0  1.021446  0
H  H12  1  0.26553210  0.47729487  0.79387302  1  0  0.100594  0  0.968021  0  0  0.108353  0  1.036646  0  0  0.110988  0  1.035337  0  0  0.0969  0.106313  0  1.038154  0
H  H13  1  0.73446058  0.52270397  0.20612812  1  0  0.100584  0  0.968001  0  0  0.108328  0  1.036647  0  0  0.110959  0  1.035338  0  0  0.096898  0.106288  0  1.038158  0
H  H14  1  0.89357088  0.24946064  0.61522967  1  0  0.291027  0  0.920682  0  0  0.277163  0  0.989922  0  0  0.282316  0  0.986864  0  0  0.277433  0.273395  0  0.99249  0
H  H15  1  0.10643329  0.75053954  0.38476907  1  0  0.290985  0  0.920721  0  0  0.277121  0  0.989957  0  0  0.282273  0  0.986902  0  0  0.277425  0.273352  0  0.992534  0
H  H16  1  0.04590462  0.14828087  0.61636484  1  0  0.305985  0  0.885581  0  0  0.298209  0  0.941353  0  0  0.303233  0  0.938032  0  0  0.291106  0.294422  0  0.944247  0
H  H17  1  0.95408945  0.85170958  0.38363656  1  0  0.305982  0  0.885605  0  0  0.29821  0  0.941372  0  0  0.303233  0  0.938052  0  0  0.291109  0.294426  0  0.944263  0
C  C18  1  0.65777577  0.92315895  0.92348723  1  0  0.147412  0  3.728689  0  0  0.114742  0  3.984572  0  0  0.124692  0  4.001293  0  0  0.052272  0.108155  0  3.972883  0
C  C19  1  0.34222627  0.07684241  0.07651731  1  0  0.147493  0  3.728714  0  0  0.114798  0  3.98456  0  0  0.124751  0  4.00128  0  0  0.052279  0.108213  0  3.972875  0
C  C20  1  0.72984793  0.99347171  0.06727968  1  0  -0.135066  0  3.748783  0  0  -0.147784  0  4.005883  0  0  -0.156061  0  4.026883  0  0  -0.09443  -0.142542  0  3.991435  0
C  C21  1  0.27015545  0.00653243  0.93272464  1  0  -0.135101  0  3.748901  0  0  -0.147833  0  4.006026  0  0  -0.156107  0  4.027019  0  0  -0.09441  -0.142591  0  3.991571  0
C  C22  1  0.90079991  0.15515790  0.12514362  1  0  -0.02862  0  3.661248  0  0  -0.055157  0  3.910225  0  0  -0.051052  0  3.926987  0  0  -0.06282  -0.057716  0  3.898657  0
C  C23  1  0.09920482  0.84484622  0.87486083  1  0  -0.028489  0  3.661168  0  0  -0.055072  0  3.910166  0  0  -0.050966  0  3.926932  0  0  -0.062791  -0.057623  0  3.898578  0
C  C24  1  0.99948449  0.24726076  0.04012259  1  0  0.018844  0  3.800977  0  0  0.040474  0  4.025126  0  0  0.036759  0  4.05043  0  0  -0.005578  0.042973  0  4.007812  0
C  C25  1  0.00051355  0.75273794  0.95988002  1  0  0.018757  0  3.801102  0  0  0.040417  0  4.025188  0  0  0.036701  0  4.050493  0  0  -0.005603  0.042919  0  4.007863  0
C  C26  1  0.17661670  0.41300041  0.09383874  1  0  -0.098348  0  3.725134  0  0  -0.123999  0  3.978096  0  0  -0.125947  0  4.000546  0  0  -0.085309  -0.122443  0  3.962856  0
C  C27  1  0.82337934  0.58700259  0.90616171  1  0  -0.098293  0  3.725207  0  0  -0.123957  0  3.978147  0  0  -0.125905  0  4.000599  0  0  -0.085292  -0.1224  0  3.9629  0
C  C28  1  0.26927848  0.49396376  0.00602958  1  0  -0.053329  0  3.776928  0  0  -0.067266  0  4.03377  0  0  -0.07053  0  4.057117  0  0  -0.088794  -0.065154  0  4.017933  0
C  C29  1  0.73071558  0.50603797  0.99396847  1  0  -0.053295  0  3.776863  0  0  -0.06721  0  4.033701  0  0  -0.070473  0  4.057048  0  0  -0.088757  -0.065103  0  4.017868  0
C  C30  1  0.19014221  0.41273647  0.86258097  1  0  -0.137615  0  3.729803  0  0  -0.161476  0  3.984461  0  0  -0.163419  0  4.005419  0  0  -0.087696  -0.159964  0  3.970408  0
C  C31  1  0.80985250  0.58726379  0.13741876  1  0  -0.13763  0  3.729652  0  0  -0.161498  0  3.984323  0  0  -0.163435  0  4.005276  0  0  -0.087702  -0.159984  0  3.97028  0
C  C32  1  0.01657993  0.25198179  0.80608774  1  0  0.189669  0  3.726399  0  0  0.190102  0  3.972896  0  0  0.191575  0  3.996554  0  0  0.080884  0.18941  0  3.956473  0
C  C33  1  0.98341953  0.74801705  0.19391119  1  0  0.189676  0  3.726336  0  0  0.19012  0  3.972768  0  0  0.191592  0  3.996424  0  0  0.080882  0.189424  0  3.956358  0
C  C34  1  0.91677931  0.16556916  0.89471620  1  0  0.125497  0  3.748841  0  0  0.119506  0  3.979203  0  0  0.124037  0  4.003484  0  0  0.110168  0.116519  0  3.962195  0
C  C35  1  0.08321679  0.83442552  0.10528343  1  0  0.125462  0  3.749032  0  0  0.119512  0  3.97924  0  0  0.124046  0  4.00352  0  0  0.110174  0.116522  0  3.962237  0
C  C36  1  0.25654449  0.46696720  0.50048070  1  0  0.309373  0  3.992985  0  0  0.285124  0  4.301279  0  0  0.307167  0  4.3143  0  0  0.147107  0.269881  0  4.29305  0
C  C37  1  0.74347053  0.53303579  0.49951397  1  0  0.309368  0  3.992948  0  0  0.285113  0  4.301246  0  0  0.307155  0  4.314268  0  0  0.147072  0.269874  0  4.293014  0
S  S38  1  0.26046664  0.66039423  0.58922977  1  0  -0.340954  0  2.26017  0  0  -0.301691  0  2.601966  0  0  -0.319288  0  2.594513  0  0  -0.128645  -0.290133  0  2.607873  0
S  S39  1  0.73954444  0.33959493  0.41076346  1  0  -0.340992  0  2.259903  0  0  -0.301731  0  2.601715  0  0  -0.31933  0  2.594263  0  0  -0.128649  -0.290174  0  2.607626  0
N  N40  1  0.74706923  0.00502951  0.84074471  1  0  -0.354616  0  3.284756  0  0  -0.281798  0  3.546543  0  0  -0.302088  0  3.566376  0  0  -0.334709  -0.267118  0  3.531499  0
N  N41  1  0.25293154  0.99496639  0.15925757  1  0  -0.354686  0  3.284712  0  0  -0.281865  0  3.546466  0  0  -0.302147  0  3.566274  0  0  -0.33479  -0.267182  0  3.531422  0
N  N42  1  0.93646724  0.16695561  0.65944869  1  0  -0.645519  0  3.119804  0  0  -0.596847  0  3.348573  0  0  -0.613663  0  3.348671  0  0  -0.607952  -0.585782  0  3.348855  0
N  N43  1  0.06353016  0.83304176  0.34055261  1  0  -0.645508  0  3.119856  0  0  -0.596841  0  3.348589  0  0  -0.613657  0  3.348692  0  0  -0.607942  -0.585773  0  3.348875  0
N  N44  1  0.24521105  0.32413256  0.43446526  1  0  -0.530266  0  2.869732  0  0  -0.475658  0  3.148135  0  0  -0.495344  0  3.153412  0  0  -0.391007  -0.462501  0  3.144648  0
N  N45  1  0.75480149  0.67586249  0.56551977  1  0  -0.530227  0  2.86988  0  0  -0.475636  0  3.148337  0  0  -0.495298  0  3.153567  0  0  -0.390957  -0.46248  0  3.144845  0
Cl  Cl46  1  0.55968398  0.86209749  0.34643235  1  0  -0.582086  0  0.921284  0  0  -0.516019  0  1.183257  0  0  -0.53335  0  1.165202  0  0  -0.317368  -0.502887  0  1.195134  0
Cl  Cl47  1  0.44031277  0.13789851  0.65356859  1  0  -0.582123  0  0.921292  0  0  -0.516065  0  1.18327  0  0  -0.533392  0  1.165212  0  0  -0.317383  -0.502939  0  1.195155  0
