# generated using pymatgen
data_CuH20C20(N2O)4
_symmetry_space_group_name_H-M   'P 1'
_cell_length_a   8.01890470
_cell_length_b   8.43481371
_cell_length_c   8.81387358
_cell_angle_alpha   77.19467776
_cell_angle_beta   68.26919189
_cell_angle_gamma   76.53048376
_symmetry_Int_Tables_number   1
_chemical_formula_structural   CuH20C20(N2O)4
_chemical_formula_sum   'Cu1 H20 C20 N8 O4'
_cell_volume   532.47030354
_cell_formula_units_Z   1
loop_
 _symmetry_equiv_pos_site_id
 _symmetry_equiv_pos_as_xyz
  1  'x, y, z'
loop_
 _atom_site_type_symbol
 _atom_site_label
 _atom_site_symmetry_multiplicity
 _atom_site_fract_x
 _atom_site_fract_y
 _atom_site_fract_z
 _atom_site_occupancy
 _atom_site_hle17_ddec_charge
 _atom_site_hle17_ddec_spin_density
 _atom_site_hle17_ddec_sum_bond_order
 _atom_site_hle17_magmom
 _atom_site_hse06_10hf_ddec_charge
 _atom_site_hse06_10hf_ddec_spin_density
 _atom_site_hse06_10hf_ddec_sum_bond_order
 _atom_site_hse06_10hf_magmom
 _atom_site_hse06_ddec_charge
 _atom_site_hse06_ddec_spin_density
 _atom_site_hse06_ddec_sum_bond_order
 _atom_site_hse06_magmom
 _atom_site_pbe_cm5_charge
 _atom_site_pbe_ddec_charge
 _atom_site_pbe_ddec_spin_density
 _atom_site_pbe_ddec_sum_bond_order
 _atom_site_pbe_magmom
Cu  Cu0  1  0.49999841  0.50000266  0.49999538  1  0.826681  -0.711208  1.846657  -0.544  0.78031  -0.784208  2.230312  -0.641  0.858133  -0.839813  2.174959  -0.713  0.78074  0.733015  -0.745832  2.267031  -0.593
H  H1  1  0.96850241  0.34470276  0.79592171  1  0.304713  -0.000398  0.934733  -0.001  0.281201  -0.000356  1.000909  -0.001  0.291438  -0.000281  0.992176  -0.001  0.300354  0.273895  -0.000416  1.007162  -0.001
H  H2  1  0.03149662  0.65529764  0.20407730  1  0.304724  -0.000398  0.934731  -0.001  0.2812  -0.000356  1.000949  -0.001  0.291437  -0.000281  0.992216  -0.001  0.300342  0.273891  -0.000416  1.007204  -0.001
H  H3  1  0.95752129  0.11831769  0.12296337  1  0.309114  -0.000393  0.926113  -0.001  0.284077  -0.000318  0.997928  -0.001  0.292955  -0.000243  0.99074  0.0  0.306692  0.277738  -0.000378  1.003092  -0.001
H  H4  1  0.04248575  0.88168274  0.87703638  1  0.309109  -0.000392  0.926079  -0.001  0.284082  -0.000318  0.997879  -0.001  0.29296  -0.000243  0.990692  0.0  0.306689  0.277743  -0.000378  1.003048  -0.001
H  H5  1  0.55991532  0.74273271  0.71451938  1  0.104036  0.000104  0.972547  0.0  0.113889  -0.000153  1.029639  0.0  0.115263  -8.8e-05  1.030693  0.0  0.11447  0.112815  -0.000212  1.02906  0.0
H  H6  1  0.44008346  0.25726892  0.28548172  1  0.104006  0.000104  0.972554  0.0  0.113853  -0.000153  1.029658  0.0  0.11523  -8.8e-05  1.030709  0.0  0.114451  0.112778  -0.000212  1.029074  0.0
H  H7  1  0.81238675  0.63199923  0.87609057  1  0.104108  -0.000639  0.975748  -0.001  0.113272  -0.000524  1.037187  -0.001  0.114881  -0.000387  1.03727  0.0  0.116539  0.112015  -0.000638  1.037295  -0.001
H  H8  1  0.18761316  0.36800364  0.12390649  1  0.104135  -0.000643  0.975704  -0.001  0.113267  -0.000524  1.037193  -0.001  0.114867  -0.000387  1.037286  0.0  0.116542  0.112007  -0.000638  1.037297  -0.001
H  H9  1  0.85504543  0.28052505  0.58301308  1  0.085502  0.000167  0.954264  0.0  0.095269  6e-06  1.015869  0.0  0.096952  3.4e-05  1.014357  0.0  0.133124  0.094004  -2.3e-05  1.016926  0.0
H  H10  1  0.14494933  0.71947657  0.41698822  1  0.085427  0.000165  0.954339  0.0  0.095224  6e-06  1.015913  0.0  0.096901  3.4e-05  1.014413  0.0  0.133147  0.093959  -2.3e-05  1.016968  0.0
H  H11  1  0.81338193  0.40862711  0.17848999  1  0.102662  -0.000159  0.957865  -0.001  0.110437  -0.000213  1.020751  0.0  0.112978  -0.000147  1.017366  0.0  0.133568  0.108453  -0.00027  1.023294  -0.001
H  H12  1  0.18662558  0.59137086  0.82151013  1  0.10268  -0.000159  0.95783  -0.001  0.11046  -0.000213  1.020718  0.0  0.112995  -0.000147  1.017332  0.0  0.133567  0.108476  -0.00027  1.023262  -0.001
H  H13  1  0.82554141  0.90263655  0.38271662  1  0.116146  -0.000597  0.957195  -0.001  0.127158  -0.000471  1.012886  -0.001  0.12974  -0.000354  1.01187  0.0  0.122374  0.125239  -0.00057  1.013754  -0.001
H  H14  1  0.17446966  0.09736390  0.61728180  1  0.116161  -0.000599  0.957152  -0.001  0.127148  -0.000471  1.012874  -0.001  0.12973  -0.000354  1.011859  0.0  0.122382  0.125227  -0.00057  1.013745  -0.001
H  H15  1  0.56971197  0.09636091  0.61122266  1  0.105111  -7.9e-05  0.98003  0.0  0.110525  -0.000273  1.045794  -0.001  0.111565  -0.000184  1.047111  0.0  0.113742  0.109673  -0.000352  1.045006  -0.001
H  H16  1  0.43028758  0.90363702  0.38876990  1  0.10512  -7.8e-05  0.980043  0.0  0.11057  -0.000273  1.045755  -0.001  0.111605  -0.000184  1.047088  0.0  0.113748  0.109713  -0.000352  1.04497  -0.001
H  H17  1  0.45080536  0.71678398  0.13848826  1  0.093207  0.000161  0.991798  0.0  0.100635  9.2e-05  1.057517  0.0  0.103575  9.1e-05  1.056856  0.0  0.099673  0.098482  9.2e-05  1.05809  0.0
H  H18  1  0.54918810  0.28321024  0.86151731  1  0.093271  0.00016  0.991779  0.0  0.100703  9.2e-05  1.057481  0.0  0.103644  9.1e-05  1.056825  0.0  0.099705  0.098553  9.2e-05  1.058056  0.0
H  H19  1  0.78484732  0.09368539  0.96892589  1  0.103334  -3e-06  0.972961  0.0  0.108737  -3e-06  1.042601  0.0  0.112809  -2e-06  1.039602  0.0  0.100634  0.105804  -5e-06  1.044795  0.0
H  H20  1  0.21514518  0.90631376  0.03108122  1  0.103328  -3e-06  0.972899  0.0  0.108708  -3e-06  1.042569  0.0  0.11278  -2e-06  1.03957  0.0  0.100619  0.105774  -5e-06  1.044763  0.0
C  C21  1  0.65873521  0.63040966  0.70965528  1  -0.019377  0.001251  3.754356  0.0  -0.045374  -0.000371  4.018488  -0.001  -0.042742  0.000617  4.040881  0.0  -0.010163  -0.046977  -0.001062  4.003619  -0.002
C  C22  1  0.34126334  0.36959321  0.29034450  1  -0.01942  0.001241  3.754421  0.0  -0.045408  -0.000371  4.018545  -0.001  -0.042777  0.000616  4.040932  0.0  -0.010138  -0.047011  -0.001062  4.003671  -0.002
C  C23  1  0.78363087  0.57692167  0.79063381  1  -0.018053  -0.003763  3.710764  -0.004  -0.054798  -0.001933  3.968776  -0.002  -0.05394  -0.001629  3.98916  -0.002  -0.004281  -0.055344  -0.002206  3.955088  -0.002
C  C24  1  0.21637015  0.42308244  0.20936262  1  -0.018107  -0.003745  3.710724  -0.004  -0.054803  -0.001934  3.968729  -0.002  -0.053936  -0.001629  3.989118  -0.002  -0.004341  -0.055347  -0.002206  3.955037  -0.002
C  C25  1  0.80842474  0.39244558  0.63809269  1  0.21152  0.007971  3.669338  0.004  0.15676  0.002278  3.944261  0.0  0.17224  0.003591  3.957501  0.001  0.138294  0.146824  0.001406  3.935176  0.0
C  C26  1  0.19157134  0.60755605  0.36191044  1  0.21155  0.008003  3.669414  0.004  0.156789  0.002277  3.94438  0.0  0.172271  0.003591  3.957616  0.001  0.138262  0.146849  0.001406  3.935293  0.0
C  C27  1  0.78278141  0.29747145  0.26498564  1  0.209554  0.01049  3.648114  0.006  0.151719  0.003492  3.923018  0.001  0.167463  0.004854  3.934716  0.002  0.139226  0.141595  0.002568  3.915031  0.001
C  C28  1  0.21722540  0.70253021  0.73501507  1  0.209567  0.010496  3.648127  0.006  0.151694  0.003489  3.923034  0.001  0.167445  0.004859  3.93472  0.002  0.139271  0.141569  0.002568  3.915052  0.001
C  C29  1  0.78670656  0.03513184  0.37597200  1  -0.01752  -0.003801  3.700873  -0.004  -0.055927  -0.002055  3.959746  -0.002  -0.05447  -0.001725  3.978471  -0.002  -0.003232  -0.05684  -0.002338  3.9471  -0.003
C  C30  1  0.21330231  0.96486613  0.62402654  1  -0.017407  -0.003784  3.700987  -0.004  -0.05582  -0.002056  3.95983  -0.002  -0.054363  -0.001725  3.978555  -0.002  -0.003233  -0.056731  -0.002338  3.947189  -0.003
C  C31  1  0.65932507  0.13186431  0.48741215  1  -0.029626  0.000432  3.745176  -0.001  -0.056691  -0.000824  4.013278  -0.001  -0.053931  0.000167  4.034482  -0.001  -0.008944  -0.058384  -0.001526  3.999246  -0.002
C  C32  1  0.34067690  0.86813487  0.51258274  1  -0.029692  0.000413  3.745235  -0.001  -0.056794  -0.000824  4.013335  -0.001  -0.054039  0.000167  4.034535  -0.001  -0.008949  -0.058483  -0.001525  3.999297  -0.002
C  C33  1  0.76428021  0.77764222  0.13507816  1  0.618296  0.000231  3.961296  0.0  0.572959  0.000163  4.26155  0.0  0.607029  0.00013  4.251274  0.0  0.191988  0.550096  0.000183  4.267494  0.0
C  C34  1  0.23571417  0.22235446  0.86492090  1  0.618576  0.000249  3.961146  0.0  0.573191  0.000162  4.261452  0.0  0.607259  0.000129  4.251174  0.0  0.192097  0.55033  0.000183  4.267399  0.0
C  C35  1  0.63061158  0.89344720  0.06175849  1  -0.072222  -0.000123  3.777462  0.0  -0.04752  -8.4e-05  4.003998  0.0  -0.053811  -4.1e-05  4.025471  0.0  -0.025255  -0.043507  -0.000134  3.98954  0.0
C  C36  1  0.36938432  0.10654826  0.93824600  1  -0.072196  -0.000212  3.777338  0.0  -0.047472  -8.2e-05  4.003847  0.0  -0.053763  -4.4e-05  4.025323  0.0  -0.025236  -0.043462  -0.000134  3.989391  0.0
C  C37  1  0.47021348  0.84152896  0.07785087  1  -0.084041  -3e-06  3.763091  0.0  -0.102121  4.5e-05  4.005073  0.0  -0.103252  6.2e-05  4.025258  0.0  -0.090816  -0.101177  2.3e-05  3.991332  0.0
C  C38  1  0.52977659  0.15846894  0.92215504  1  -0.084136  0.000107  3.763115  0.0  -0.102218  4.3e-05  4.0051  0.0  -0.103353  6.8e-05  4.025288  0.0  -0.09085  -0.101276  2.3e-05  3.991363  0.0
C  C39  1  0.66021456  0.05293651  0.98222280  1  -0.087713  -2e-06  3.740352  0.0  -0.10959  1.5e-05  3.987887  0.0  -0.109832  1.9e-05  4.006387  0.0  -0.09431  -0.109266  3e-06  3.975331  0.0
C  C40  1  0.33977929  0.94706264  0.01778273  1  -0.087806  0.000128  3.740387  0.0  -0.109665  1.3e-05  3.987928  0.0  -0.109909  2.6e-05  4.006429  0.0  -0.094355  -0.109341  3e-06  3.975369  0.0
N  N41  1  0.67460442  0.51334238  0.61502930  1  -0.354054  -0.078621  3.291658  -0.105  -0.316949  -0.054401  3.607465  -0.076  -0.347519  -0.04363  3.62837  -0.065  -0.367381  -0.2979  -0.061513  3.594197  -0.082
N  N42  1  0.32539144  0.48666048  0.38497251  1  -0.353944  -0.078639  3.291703  -0.105  -0.316849  -0.054401  3.607523  -0.076  -0.347418  -0.04363  3.628425  -0.065  -0.367368  -0.297799  -0.061514  3.594253  -0.082
N  N43  1  0.87644783  0.42684669  0.74381699  1  -0.271387  -0.000935  3.456319  -0.002  -0.202776  -0.000921  3.689084  -0.002  -0.219232  -0.000466  3.702992  -0.001  -0.3758  -0.191729  -0.001301  3.679543  -0.002
N  N44  1  0.12355229  0.57315495  0.25618253  1  -0.271333  -0.000945  3.45626  -0.002  -0.202762  -0.00092  3.689077  -0.002  -0.219218  -0.000467  3.702984  -0.001  -0.375743  -0.191713  -0.001302  3.679536  -0.002
N  N45  1  0.65866277  0.29548063  0.41609447  1  -0.350514  -0.074385  3.331137  -0.099  -0.303  -0.051053  3.638579  -0.071  -0.333241  -0.041441  3.658838  -0.062  -0.375601  -0.284139  -0.057236  3.625631  -0.076
N  N46  1  0.34133785  0.70451854  0.58390201  1  -0.350547  -0.074392  3.331155  -0.099  -0.303042  -0.051056  3.638617  -0.071  -0.333281  -0.041446  3.658878  -0.062  -0.37567  -0.284173  -0.057239  3.625661  -0.076
N  N47  1  0.86243715  0.14225433  0.23712260  1  -0.282818  -0.001285  3.482312  -0.003  -0.21667  -0.001011  3.722576  -0.002  -0.233379  -0.000566  3.738453  -0.001  -0.379584  -0.205439  -0.001379  3.711665  -0.002
N  N48  1  0.13757257  0.85774611  0.76287741  1  -0.282866  -0.001292  3.48262  -0.003  -0.216654  -0.001011  3.722756  -0.002  -0.233362  -0.000568  3.738631  -0.001  -0.379558  -0.205424  -0.001379  3.711856  -0.002
O  O49  1  0.71096202  0.65606484  0.24028670  1  -0.634684  0.001347  1.984791  0.0  -0.603156  0.001591  2.243874  0.0  -0.626388  0.001846  2.231432  0.0  -0.331149  -0.587328  0.001216  2.252204  0.0
O  O50  1  0.28903789  0.34393064  0.75971760  1  -0.634766  0.001337  1.984621  0.0  -0.603227  0.001592  2.243742  0.0  -0.626457  0.001842  2.231297  0.0  -0.331184  -0.587401  0.001216  2.252074  0.0
O  O51  1  0.92765372  0.80934518  0.08649132  1  -0.658625  -0.001438  1.98181  -0.002  -0.602214  -0.000608  2.208159  -0.001  -0.626207  -0.00032  2.197625  0.0  -0.334521  -0.585098  -0.001015  2.214618  -0.001
O  O52  1  0.07234981  0.19065277  0.91350559  1  -0.658787  -0.001442  1.982018  -0.002  -0.602335  -0.000608  2.208362  -0.001  -0.626327  -0.00032  2.197829  0.0  -0.334575  -0.585225  -0.001015  2.214823  -0.001
