# generated using pymatgen
data_EuH20C30N3O10
_symmetry_space_group_name_H-M   'P 1'
_cell_length_a   9.83717292
_cell_length_b   12.00765883
_cell_length_c   25.34866910
_cell_angle_alpha   89.99998959
_cell_angle_beta   89.99997961
_cell_angle_gamma   93.15261851
_symmetry_Int_Tables_number   1
_chemical_formula_structural   EuH20C30N3O10
_chemical_formula_sum   'Eu4 H80 C120 N12 O40'
_cell_volume   2989.68919789
_cell_formula_units_Z   4
loop_
 _symmetry_equiv_pos_site_id
 _symmetry_equiv_pos_as_xyz
  1  'x, y, z'
loop_
 _atom_site_type_symbol
 _atom_site_label
 _atom_site_symmetry_multiplicity
 _atom_site_fract_x
 _atom_site_fract_y
 _atom_site_fract_z
 _atom_site_occupancy
 _atom_site_pbe_bader_charge
 _atom_site_pbe_bader_spin_density
 _atom_site_pbe_cm5_charge
 _atom_site_pbe_ddec_charge
 _atom_site_pbe_ddec_spin_density
 _atom_site_pbe_ddec_sum_bond_order
 _atom_site_pbe_magmom
Eu  Eu0  1  0.60309252  0.45856476  0.92645923  1  2.241635  0  1.494108  2.233507  0  1.994297  0
Eu  Eu1  1  0.89690812  0.54143406  0.42645820  1  2.241758  0  1.49415  2.233476  0  1.994214  0
Eu  Eu2  1  0.39690779  0.54143358  0.07354148  1  2.241754  0  1.494174  2.233478  0  1.994144  0
Eu  Eu3  1  0.10309229  0.45856596  0.57354133  1  2.2417  0  1.49411  2.233452  0  1.994282  0
H  H4  1  0.72450111  0.19959789  0.85969951  1  0.127739  0  0.110298  0.116995  0  1.041454  0
H  H5  1  0.77549965  0.80040179  0.35969927  1  0.127734  0  0.110276  0.116988  0  1.041496  0
H  H6  1  0.27549930  0.80040212  0.14030041  1  0.127725  0  0.110294  0.116994  0  1.04147  0
H  H7  1  0.22449975  0.19959822  0.64030065  1  0.127727  0  0.110273  0.116981  0  1.0415  0
H  H8  1  0.77936337  0.12520835  0.77112050  1  0.036017  0  0.104238  0.102739  0  0.997604  0
H  H9  1  0.72063747  0.87479137  0.27112026  1  0.036004  0  0.104262  0.102762  0  0.997663  0
H  H10  1  0.22063704  0.87479166  0.22887942  1  0.036018  0  0.104238  0.102745  0  0.997598  0
H  H11  1  0.27936294  0.12520864  0.72887966  1  0.036012  0  0.104269  0.10276  0  0.997671  0
H  H12  1  0.00868082  0.16716476  0.73166247  1  0.073524  0  0.108133  0.111044  0  0.986148  0
H  H13  1  0.49131809  0.83283471  0.23166219  1  0.07351  0  0.108125  0.111034  0  0.986165  0
H  H14  1  0.99131853  0.83283442  0.26833746  1  0.073522  0  0.108111  0.111019  0  0.986199  0
H  H15  1  0.50868130  0.16716530  0.76833773  1  0.07352  0  0.108129  0.111036  0  0.986152  0
H  H16  1  0.18672067  0.27734252  0.78260161  1  0.12445  0  0.105577  0.122226  0  1.047326  0
H  H17  1  0.31328023  0.72265693  0.28260137  1  0.12445  0  0.105611  0.122313  0  1.047259  0
H  H18  1  0.81328071  0.72265666  0.21739870  1  0.124446  0  0.105615  0.122345  0  1.047286  0
H  H19  1  0.68672019  0.27734308  0.71739855  1  0.124446  0  0.105606  0.122299  0  1.047279  0
H  H20  1  0.99004325  0.40938287  0.99086416  1  0.088081  0  0.115912  0.146679  0  1.012565  0
H  H21  1  0.50995739  0.59061676  0.49086397  1  0.088347  0  0.11593  0.146719  0  1.01252  0
H  H22  1  0.00995711  0.59061631  0.00913615  1  0.088348  0  0.115934  0.146724  0  1.012508  0
H  H23  1  0.49004404  0.40938325  0.50913555  1  0.088085  0  0.115915  0.146684  0  1.012563  0
H  H24  1  0.43255325  0.66006416  0.57148833  1  0.096281  0  0.114094  0.117823  0  1.01697  0
H  H25  1  0.06744683  0.33993537  0.07148855  1  0.096384  0  0.114104  0.117835  0  1.016984  0
H  H26  1  0.56744711  0.33993501  0.42851160  1  0.096293  0  0.114092  0.117819  0  1.016964  0
H  H27  1  0.93255358  0.66006464  0.92851177  1  0.096286  0  0.114092  0.117812  0  1.017006  0
H  H28  1  0.62099847  0.80803966  0.55947939  1  0.053476  0  0.100921  0.099602  0  1.027711  0
H  H29  1  0.87900161  0.19196099  0.05947958  1  0.053502  0  0.100904  0.099596  0  1.027714  0
H  H30  1  0.37900093  0.19196035  0.44052053  1  0.052903  0  0.100925  0.099606  0  1.027673  0
H  H31  1  0.12099885  0.80803986  0.94052074  1  0.053475  0  0.100914  0.099601  0  1.027683  0
H  H32  1  0.77300959  0.86041811  0.63511097  1  0.102812  0  0.102183  0.100461  0  1.023114  0
H  H33  1  0.72699042  0.13958250  0.13511118  1  0.102828  0  0.102192  0.100475  0  1.023096  0
H  H34  1  0.22699083  0.13958190  0.36488896  1  0.102818  0  0.102174  0.100461  0  1.023101  0
H  H35  1  0.27300903  0.86041835  0.86488914  1  0.102815  0  0.10218  0.10049  0  1.023073  0
H  H36  1  0.74230175  0.76582931  0.72162597  1  0.071523  0  0.109669  0.119657  0  0.985137  0
H  H37  1  0.75769914  0.23417044  0.22162656  1  0.071509  0  0.109654  0.119643  0  0.985149  0
H  H38  1  0.25769866  0.23417071  0.27837356  1  0.071506  0  0.109653  0.11964  0  0.985166  0
H  H39  1  0.24230127  0.76582958  0.77837375  1  0.071516  0  0.109644  0.119639  0  0.985152  0
H  H40  1  0.28556592  0.42552483  0.71657170  1  0.132095  0  0.116029  0.148395  0  1.008885  0
H  H41  1  0.21443403  0.57447465  0.21657188  1  0.132105  0  0.116037  0.148397  0  1.008909  0
H  H42  1  0.71443348  0.57447518  0.28342782  1  0.132114  0  0.116024  0.148359  0  1.008938  0
H  H43  1  0.78556639  0.42552536  0.78342804  1  0.132116  0  0.11603  0.148399  0  1.008895  0
H  H44  1  0.32308583  0.19127830  0.93180629  1  0.088786  0  0.105677  0.107528  0  1.030279  0
H  H45  1  0.17691493  0.80872108  0.43180645  1  0.08877  0  0.10568  0.107526  0  1.030254  0
H  H46  1  0.67691459  0.80872171  0.06819403  1  0.08877  0  0.105673  0.107513  0  1.030289  0
H  H47  1  0.82308543  0.19127810  0.56819387  1  0.088778  0  0.105676  0.107512  0  1.030293  0
H  H48  1  0.14640019  0.22482067  0.99898813  1  0.079466  0  0.096204  0.094091  0  1.046858  0
H  H49  1  0.35360050  0.77517869  0.49898788  1  0.079466  0  0.096205  0.094122  0  1.046825  0
H  H50  1  0.85360017  0.77517851  0.00101180  1  0.079476  0  0.096205  0.094101  0  1.046859  0
H  H51  1  0.64639890  0.22482132  0.50101165  1  0.079464  0  0.096202  0.094115  0  1.046828  0
H  H52  1  0.07493731  0.07533104  0.06308141  1  0.067538  0  0.101692  0.096633  0  1.011396  0
H  H53  1  0.42506283  0.92466933  0.56308117  1  0.067554  0  0.101703  0.096654  0  1.011363  0
H  H54  1  0.92506310  0.92466897  0.93691891  1  0.067555  0  0.101703  0.096651  0  1.011368  0
H  H55  1  0.57493764  0.07533151  0.43691875  1  0.067541  0  0.10169  0.096629  0  1.011385  0
H  H56  1  0.17919241  0.89204108  0.05944922  1  0.060276  0  0.106557  0.117972  0  1.032077  0
H  H57  1  0.32080767  0.10795846  0.55944907  1  0.06023  0  0.106578  0.117991  0  1.03205  0
H  H58  1  0.82080800  0.10795893  0.94055109  1  0.059911  0  0.106567  0.117967  0  1.032036  0
H  H59  1  0.67919172  0.89204155  0.44055085  1  0.060284  0  0.106566  0.117963  0  1.032075  0
H  H60  1  0.58569540  0.86801469  0.89118872  1  0.11764  0  0.113371  0.149072  0  0.985135  0
H  H61  1  0.91430538  0.13198581  0.39118852  1  0.117618  0  0.113384  0.149145  0  0.985074  0
H  H62  1  0.41430501  0.13198532  0.10881160  1  0.11761  0  0.113405  0.149178  0  0.985036  0
H  H63  1  0.08569503  0.86801420  0.60881141  1  0.117635  0  0.113374  0.149096  0  0.985104  0
H  H64  1  0.24780064  0.37676030  0.86098521  1  0.52253  0  0.31438  0.281462  0  0.993798  0
H  H65  1  0.25220119  0.62323912  0.36098538  1  0.52252  0  0.314413  0.28147  0  0.993821  0
H  H66  1  0.75220073  0.62323888  0.13901432  1  0.522515  0  0.314395  0.281438  0  0.993883  0
H  H67  1  0.74780029  0.37676173  0.63901455  1  0.522529  0  0.314398  0.281478  0  0.993781  0
H  H68  1  0.50865400  0.20641679  0.88771520  1  0.633487  0  0.288757  0.402515  0  0.937074  0
H  H69  1  0.99134561  0.79358121  0.38771532  1  0.633502  0  0.288776  0.402557  0  0.937016  0
H  H70  1  0.49134422  0.79358071  0.11228433  1  0.633506  0  0.288784  0.402567  0  0.937013  0
H  H71  1  0.00865475  0.20641797  0.61228460  1  0.633497  0  0.288766  0.402546  0  0.937033  0
H  H72  1  0.32758217  0.77409437  0.01671128  1  0.548797  0  0.31848  0.288723  0  0.988099  0
H  H73  1  0.17241796  0.22590519  0.51671074  1  0.548829  0  0.318475  0.288701  0  0.988111  0
H  H74  1  0.67241718  0.22590480  0.98328944  1  0.548834  0  0.318486  0.288724  0  0.988098  0
H  H75  1  0.82758245  0.77409482  0.48328919  1  0.548827  0  0.318483  0.288723  0  0.988087  0
H  H76  1  0.61263001  0.62012777  0.77404767  1  0.502411  0  0.332108  0.291999  0  0.91181  0
H  H77  1  0.88736986  0.37987278  0.27404745  1  0.502404  0  0.332114  0.291874  0  0.911954  0
H  H78  1  0.38736944  0.37987308  0.22595225  1  0.502398  0  0.332097  0.291974  0  0.91181  0
H  H79  1  0.11263060  0.62012806  0.72595208  1  0.502441  0  0.332105  0.291988  0  0.911807  0
H  H80  1  0.45325559  0.31091252  0.85492492  1  0.640118  0  0.291302  0.376433  0  0.973132  0
H  H81  1  0.04674523  0.68908689  0.35492511  1  0.640112  0  0.291329  0.376476  0  0.97308  0
H  H82  1  0.54674375  0.68908665  0.14507461  1  0.640172  0  0.291331  0.376495  0  0.973054  0
H  H83  1  0.95325614  0.31091229  0.64507521  1  0.640117  0  0.291339  0.376506  0  0.973034  0
C  C84  1  0.89458067  0.32490082  0.92346576  1  0.771951  0  0.124091  0.388679  0  4.114176  0
C  C85  1  0.60542110  0.67509967  0.42346595  1  0.771966  0  0.124074  0.388596  0  4.114173  0
C  C86  1  0.10542178  0.67509920  0.07653376  1  0.771951  0  0.124064  0.388581  0  4.114173  0
C  C87  1  0.39458033  0.32490034  0.57653437  1  0.771953  0  0.124092  0.388695  0  4.114116  0
C  C88  1  0.92460716  0.27747027  0.87220666  1  -0.014096  0  -0.015187  -0.096401  0  3.958113  0
C  C89  1  0.57539257  0.72252941  0.37220606  1  -0.014084  0  -0.015192  -0.096274  0  3.957971  0
C  C90  1  0.07539223  0.72252974  0.12779366  1  -0.0141  0  -0.015152  -0.096211  0  3.958048  0
C  C91  1  0.42460785  0.27747061  0.62779347  1  -0.01411  0  -0.015228  -0.096484  0  3.95814  0
C  C92  1  0.82549838  0.21460000  0.84277317  1  0.01553  0  -0.078244  -0.091539  0  3.956939  0
C  C93  1  0.67450245  0.78540053  0.34277295  1  0.015533  0  -0.078224  -0.091571  0  3.956878  0
C  C94  1  0.17450209  0.78540085  0.15722635  1  0.015525  0  -0.078247  -0.09158  0  3.956948  0
C  C95  1  0.32549796  0.21459949  0.65722658  1  0.015537  0  -0.078225  -0.091524  0  3.956904  0
C  C96  1  0.85634190  0.17415786  0.79336032  1  -0.043626  0  -0.088975  -0.090202  0  4.004943  0
C  C97  1  0.64365796  0.82584269  0.29336009  1  -0.043629  0  -0.088983  -0.090208  0  4.004983  0
C  C98  1  0.14365750  0.82584215  0.20663960  1  -0.043614  0  -0.088976  -0.090216  0  4.004934  0
C  C99  1  0.35634149  0.17415816  0.70663983  1  -0.043611  0  -0.088974  -0.090174  0  4.004972  0
C  C100  1  0.98647359  0.19708168  0.77120846  1  0.001786  0  -0.080033  -0.046844  0  4.004393  0
C  C101  1  0.51352629  0.80291888  0.27120825  1  0.001785  0  -0.080038  -0.046841  0  4.004387  0
C  C102  1  0.01352682  0.80291834  0.22879186  1  0.001769  0  -0.08001  -0.046804  0  4.004412  0
C  C103  1  0.48647418  0.19708197  0.72879167  1  0.001796  0  -0.080025  -0.046842  0  4.004347  0
C  C104  1  0.08581743  0.25812737  0.79897802  1  -0.086963  0  -0.096265  -0.190994  0  3.956537  0
C  C105  1  0.41418243  0.74187207  0.29897777  1  -0.086971  0  -0.096322  -0.191098  0  3.956531  0
C  C106  1  0.91418196  0.74187264  0.20102269  1  -0.086902  0  -0.096296  -0.191096  0  3.956603  0
C  C107  1  0.58581798  0.25812794  0.70102216  1  -0.086959  0  -0.096317  -0.191092  0  3.956509  0
C  C108  1  0.05602669  0.29771319  0.84992705  1  0.38479  0  0.11615  0.220346  0  3.983267  0
C  C109  1  0.44397419  0.70228707  0.34992679  1  0.384779  0  0.116163  0.220301  0  3.983305  0
C  C110  1  0.94397576  0.70228683  0.15007327  1  0.384729  0  0.116143  0.22022  0  3.983384  0
C  C111  1  0.55602531  0.29771461  0.65007274  1  0.384789  0  0.116183  0.220419  0  3.983218  0
C  C112  1  0.25648647  0.44886947  0.95493215  1  1.633316  0  0.234518  0.606773  0  4.19249  0
C  C113  1  0.24350720  0.55113072  0.45492562  1  1.633242  0  0.234482  0.606745  0  4.192119  0
C  C114  1  0.74350378  0.55113052  0.04507685  1  1.633203  0  0.234511  0.60679  0  4.192137  0
C  C115  1  0.75648915  0.44886928  0.54507036  1  1.633314  0  0.23451  0.606742  0  4.192425  0
C  C116  1  0.13217590  0.39389972  0.92782581  1  0.382674  0  0.125542  0.138661  0  3.930036  0
C  C117  1  0.36782694  0.60610051  0.42782596  1  0.382648  0  0.125531  0.138591  0  3.930089  0
C  C118  1  0.86782649  0.60609946  0.07217333  1  0.382638  0  0.125556  0.138758  0  3.92987  0
C  C119  1  0.63217449  0.39389951  0.57217396  1  0.38265  0  0.125531  0.138641  0  3.930041  0
C  C120  1  0.00579794  0.37764751  0.95133040  1  0.084701  0  -0.098947  -0.292021  0  3.908393  0
C  C121  1  0.49420183  0.62235270  0.45132975  1  0.084708  0  -0.098951  -0.29201  0  3.908325  0
C  C122  1  0.99420039  0.62235167  0.04867031  1  0.084709  0  -0.098995  -0.292119  0  3.908343  0
C  C123  1  0.50579858  0.37764731  0.54866978  1  0.084704  0  -0.098972  -0.292052  0  3.90834  0
C  C124  1  0.37308477  0.54441345  0.65893277  1  0.842814  0  0.134365  0.407592  0  4.101941  0
C  C125  1  0.12691737  0.45558772  0.15893179  1  0.842939  0  0.134384  0.407625  0  4.101928  0
C  C126  1  0.62691570  0.45558739  0.34106715  1  0.842801  0  0.134396  0.407613  0  4.101962  0
C  C127  1  0.87308620  0.54441397  0.84106656  1  0.84276  0  0.13437  0.407578  0  4.101942  0
C  C128  1  0.48171400  0.63099335  0.65233991  1  0.005655  0  -0.01548  -0.091168  0  3.944431  0
C  C129  1  0.01828504  0.36900698  0.15234013  1  0.005751  0  -0.015504  -0.091262  0  3.944361  0
C  C130  1  0.51828647  0.36900750  0.34765962  1  0.005721  0  -0.015503  -0.091253  0  3.944416  0
C  C131  1  0.98171334  0.63099302  0.84765979  1  0.005727  0  -0.01548  -0.091134  0  3.94443  0
C  C132  1  0.50178147  0.68516703  0.60348408  1  -0.01456  0  -0.073919  -0.076084  0  3.943344  0
C  C133  1  0.99821852  0.31483276  0.10348346  1  -0.014669  0  -0.07393  -0.076058  0  3.943344  0
C  C134  1  0.49821895  0.31483299  0.39651584  1  -0.01455  0  -0.07389  -0.076016  0  3.943285  0
C  C135  1  0.00178088  0.68516725  0.89651568  1  -0.014568  0  -0.073906  -0.076058  0  3.943374  0
C  C136  1  0.60545876  0.76662357  0.59737448  1  4.1e-05  0  -0.090216  -0.088617  0  3.987482  0
C  C137  1  0.89454129  0.23337705  0.09737506  1  4.9e-05  0  -0.09015  -0.088541  0  3.987498  0
C  C138  1  0.39454064  0.23337644  0.40262505  1  0.000676  0  -0.090185  -0.088592  0  3.987386  0
C  C139  1  0.10545816  0.76662379  0.90262526  1  7.1e-05  0  -0.090224  -0.088666  0  3.987483  0
C  C140  1  0.69162207  0.79620430  0.64019882  1  -0.088139  0  -0.078425  -0.040602  0  3.98992  0
C  C141  1  0.80837895  0.20379631  0.14019901  1  -0.088127  0  -0.078425  -0.040603  0  3.989967  0
C  C142  1  0.30837834  0.20379571  0.35980071  1  -0.088137  0  -0.078388  -0.040533  0  3.989866  0
C  C143  1  0.19162152  0.79620454  0.85980091  1  -0.088133  0  -0.078368  -0.040531  0  3.989841  0
C  C144  1  0.67507691  0.74374639  0.68856585  1  0.034811  0  -0.092434  -0.186162  0  3.978657  0
C  C145  1  0.82492305  0.25625419  0.18856644  1  0.034803  0  -0.092452  -0.186193  0  3.978695  0
C  C146  1  0.32492249  0.25625362  0.31143367  1  0.0348  0  -0.092478  -0.186252  0  3.978666  0
C  C147  1  0.17507640  0.74374665  0.81143388  1  0.034808  0  -0.092434  -0.186181  0  3.978707  0
C  C148  1  0.56993561  0.66038168  0.69496739  1  0.344155  0  0.113449  0.213137  0  4.022505  0
C  C149  1  0.93006530  0.33961807  0.19496755  1  0.343981  0  0.113432  0.213079  0  4.022572  0
C  C150  1  0.43006576  0.33961750  0.30503254  1  0.344083  0  0.113487  0.213221  0  4.022387  0
C  C151  1  0.06993415  0.66038277  0.80503237  1  0.344084  0  0.113429  0.213073  0  4.022596  0
C  C152  1  0.45326637  0.46695473  0.80220222  1  1.66288  0  0.22702  0.568584  0  4.217513  0
C  C153  1  0.04672819  0.53304136  0.30220322  1  1.662515  0  0.226986  0.568478  0  4.2176  0
C  C154  1  0.54672553  0.53303943  0.19779612  1  1.662525  0  0.226881  0.568313  0  4.217844  0
C  C155  1  0.95326907  0.46695698  0.69779710  1  1.662525  0  0.227002  0.56851  0  4.21757  0
C  C156  1  0.45180387  0.52362703  0.74906373  1  0.416848  0  0.117217  0.129681  0  3.997524  0
C  C157  1  0.04819711  0.47637327  0.24906355  1  0.416888  0  0.117244  0.129714  0  3.997437  0
C  C158  1  0.54819654  0.47637298  0.25093659  1  0.416473  0  0.117242  0.129743  0  3.997518  0
C  C159  1  0.95180336  0.52362758  0.75093638  1  0.416476  0  0.11725  0.129719  0  3.997557  0
C  C160  1  0.36156404  0.49295755  0.70955121  1  -0.058428  0  -0.105106  -0.314338  0  3.95787  0
C  C161  1  0.13843489  0.50704193  0.20955140  1  -0.058514  0  -0.10514  -0.31438  0  3.957941  0
C  C162  1  0.63843428  0.50704163  0.29044871  1  -0.058422  0  -0.105111  -0.314292  0  3.957974  0
C  C163  1  0.86156456  0.49295892  0.79044891  1  -0.058412  0  -0.105139  -0.314387  0  3.957982  0
C  C164  1  0.45865158  0.00065977  0.91809077  1  0.788227  0  0.113249  0.36106  0  4.140172  0
C  C165  1  0.04134811  0.99933879  0.41809054  1  0.788251  0  0.113249  0.361155  0  4.140065  0
C  C166  1  0.54134771  0.99933858  0.08190955  1  0.788241  0  0.113266  0.361212  0  4.140038  0
C  C167  1  0.95865123  0.00066039  0.58190938  1  0.788243  0  0.113236  0.361065  0  4.140106  0
C  C168  1  0.35153127  0.02242834  0.95654171  1  0.038095  0  -0.021805  -0.104375  0  3.96099  0
C  C169  1  0.14846946  0.97757103  0.45654147  1  0.038093  0  -0.021827  -0.104453  0  3.961034  0
C  C170  1  0.64846914  0.97757167  0.04345861  1  0.038095  0  -0.021805  -0.104449  0  3.960983  0
C  C171  1  0.85152988  0.02242814  0.54345845  1  0.038099  0  -0.021801  -0.104389  0  3.96096  0
C  C172  1  0.28994926  0.12569738  0.95935369  1  -0.051804  0  -0.086381  -0.087104  0  3.960852  0
C  C173  1  0.21005045  0.87430199  0.45935345  1  -0.051769  0  -0.086326  -0.086982  0  3.960749  0
C  C174  1  0.71005013  0.87430263  0.04064662  1  -0.051827  0  -0.086355  -0.087012  0  3.960776  0
C  C175  1  0.78994991  0.12569718  0.54064686  1  -0.05182  0  -0.086338  -0.086986  0  3.960715  0
C  C176  1  0.19172438  0.14434071  0.99698921  1  -0.042813  0  -0.094206  -0.090689  0  3.994869  0
C  C177  1  0.30827535  0.85565948  0.49698895  1  -0.042847  0  -0.094248  -0.090815  0  3.994837  0
C  C178  1  0.80827507  0.85566013  0.00301111  1  -0.042764  0  -0.094244  -0.090784  0  3.994861  0
C  C179  1  0.69172507  0.14434054  0.50301097  1  -0.042782  0  -0.094231  -0.09079  0  3.994793  0
C  C180  1  0.15119029  0.05988359  0.03314098  1  -0.019492  0  -0.081015  -0.048118  0  4.008086  0
C  C181  1  0.34880988  0.94011680  0.53314075  1  -0.019483  0  -0.081039  -0.048143  0  4.008043  0
C  C182  1  0.84881018  0.94011726  0.96685934  1  -0.019487  0  -0.081017  -0.048133  0  4.008031  0
C  C183  1  0.65118952  0.05988321  0.46685918  1  -0.019502  0  -0.08105  -0.048159  0  4.008075  0
C  C184  1  0.20822347  0.95750144  0.03129705  1  0.022457  0  -0.090919  -0.174135  0  3.95297  0
C  C185  1  0.29177563  0.04249811  0.53129651  1  0.022527  0  -0.090905  -0.17408  0  3.953018  0
C  C186  1  0.79177491  0.04249857  0.96870366  1  0.022865  0  -0.090905  -0.174039  0  3.952932  0
C  C187  1  0.70822376  0.95750190  0.46870302  1  0.02246  0  -0.090905  -0.174057  0  3.95303  0
C  C188  1  0.30835951  0.93798389  0.99303827  1  0.323049  0  0.112417  0.206167  0  4.015442  0
C  C189  1  0.19164022  0.06201631  0.49303810  1  0.322845  0  0.112386  0.20608  0  4.015474  0
C  C190  1  0.69163994  0.06201696  0.00696205  1  0.322836  0  0.112394  0.206103  0  4.015432  0
C  C191  1  0.80835912  0.93798287  0.50696183  1  0.322842  0  0.11242  0.206127  0  4.015461  0
C  C192  1  0.50954621  0.69567930  0.95821316  1  1.631972  0  0.231711  0.609067  0  4.201427  0
C  C193  1  0.99044740  0.30432116  0.45820780  1  1.632091  0  0.231668  0.609042  0  4.201737  0
C  C194  1  0.49044308  0.30432153  0.04179426  1  1.632153  0  0.231645  0.609035  0  4.201888  0
C  C195  1  0.00954997  0.69567884  0.54178897  1  1.631984  0  0.231697  0.609075  0  4.201568  0
C  C196  1  0.46032630  0.81226915  0.95528125  1  0.415596  0  0.121056  0.136246  0  3.963582  0
C  C197  1  0.03967449  0.18773106  0.45528070  1  0.415647  0  0.121118  0.136314  0  3.963656  0
C  C198  1  0.53967411  0.18773086  0.04471946  1  0.415884  0  0.121082  0.136315  0  3.963734  0
C  C199  1  0.96032593  0.81226895  0.54471883  1  0.415596  0  0.121112  0.136325  0  3.963745  0
C  C200  1  0.50753159  0.89039660  0.91897283  1  0.01178  0  -0.105966  -0.30322  0  3.944838  0
C  C201  1  0.99246815  0.10960389  0.41897222  1  0.011774  0  -0.105954  -0.303349  0  3.944812  0
C  C202  1  0.49246781  0.10960341  0.08102788  1  0.011764  0  -0.105981  -0.303447  0  3.944849  0
C  C203  1  0.00753125  0.89039612  0.58102731  1  0.011792  0  -0.105979  -0.303263  0  3.944834  0
N  N204  1  0.15370540  0.35770461  0.87829342  1  -1.288036  0  -0.365066  -0.240309  0  3.647676  0
N  N205  1  0.34629337  0.64229479  0.37829279  1  -1.288064  0  -0.365096  -0.240267  0  3.647709  0
N  N206  1  0.84629293  0.64229456  0.12170729  1  -1.288023  0  -0.365099  -0.240273  0  3.647634  0
N  N207  1  0.65370501  0.35770521  0.62170674  1  -1.288037  0  -0.365064  -0.240306  0  3.647665  0
N  N208  1  0.55064714  0.60514188  0.74208505  1  -1.285742  0  -0.368684  -0.249624  0  3.663951  0
N  N209  1  0.94935169  0.39485785  0.24208521  1  -1.28564  0  -0.368676  -0.249417  0  3.663959  0
N  N210  1  0.44935220  0.39485730  0.25791487  1  -1.285309  0  -0.368697  -0.249646  0  3.663864  0
N  N211  1  0.05064669  0.60514216  0.75791511  1  -1.28534  0  -0.368662  -0.249557  0  3.66398  0
N  N212  1  0.36489348  0.83619803  0.99137467  1  -1.306771  0  -0.370087  -0.256474  0  3.656881  0
N  N213  1  0.13510625  0.16380216  0.49137450  1  -1.306549  0  -0.370132  -0.256445  0  3.65687  0
N  N214  1  0.63510592  0.16380198  0.00862525  1  -1.306553  0  -0.370108  -0.256467  0  3.656912  0
N  N215  1  0.86489416  0.83619785  0.50862542  1  -1.306579  0  -0.370125  -0.256502  0  3.656928  0
O  O216  1  0.77245373  0.31926075  0.94195432  1  -1.196727  0  -0.383166  -0.628263  0  2.347306  0
O  O217  1  0.72754503  0.68074056  0.44195370  1  -1.196739  0  -0.383142  -0.628224  0  2.347352  0
O  O218  1  0.22754471  0.68074009  0.05804600  1  -1.196708  0  -0.383135  -0.628213  0  2.347365  0
O  O219  1  0.27245442  0.31926029  0.55804583  1  -1.196722  0  -0.383142  -0.628242  0  2.347312  0
O  O220  1  0.24723850  0.46424447  0.00405304  1  -1.160228  0  -0.360164  -0.640851  0  2.304157  0
O  O221  1  0.25276057  0.53575426  0.50405561  1  -1.159953  0  -0.360113  -0.640844  0  2.303324  0
O  O222  1  0.75276079  0.53575388  0.99594294  1  -1.159894  0  -0.360182  -0.640965  0  2.30307  0
O  O223  1  0.74723877  0.46424491  0.49594589  1  -1.160156  0  -0.360195  -0.640883  0  2.303843  0
O  O224  1  0.35805272  0.47092295  0.92518975  1  -1.194973  0  -0.377973  -0.662851  0  2.322382  0
O  O225  1  0.14195419  0.52907729  0.42519073  1  -1.19509  0  -0.377948  -0.662751  0  2.322733  0
O  O226  1  0.64195695  0.52907875  0.07480859  1  -1.195121  0  -0.377899  -0.662722  0  2.323021  0
O  O227  1  0.85804927  0.47092273  0.57480959  1  -1.195021  0  -0.377906  -0.662754  0  2.322592  0
O  O228  1  0.51590373  0.29043673  0.88371262  1  -1.295347  0  -0.665518  -0.910543  0  2.128832  0
O  O229  1  0.98409700  0.70956294  0.38371196  1  -1.295369  0  -0.665546  -0.910615  0  2.128806  0
O  O230  1  0.48409770  0.70956329  0.11628809  1  -1.295432  0  -0.66556  -0.910641  0  2.128795  0
O  O231  1  0.01590341  0.29043707  0.61628796  1  -1.295356  0  -0.66554  -0.91062  0  2.12879  0
O  O232  1  0.54199107  0.50593291  0.83436998  1  -1.177941  0  -0.357139  -0.625218  0  2.299376  0
O  O233  1  0.95801180  0.49406762  0.33436855  1  -1.177735  0  -0.357111  -0.625109  0  2.299575  0
O  O234  1  0.45801239  0.49406711  0.16563192  1  -1.177784  0  -0.357033  -0.62498  0  2.299758  0
O  O235  1  0.04199070  0.50593323  0.66563058  1  -1.177719  0  -0.357156  -0.625198  0  2.299501  0
O  O236  1  0.36940616  0.38419667  0.80883729  1  -1.19519  0  -0.301698  -0.539211  0  2.253845  0
O  O237  1  0.13059685  0.61580444  0.30883788  1  -1.195122  0  -0.301711  -0.53922  0  2.253639  0
O  O238  1  0.63059645  0.61580585  0.19116184  1  -1.195099  0  -0.301713  -0.539256  0  2.253624  0
O  O239  1  0.86940463  0.38419640  0.69116244  1  -1.19517  0  -0.301682  -0.539194  0  2.253734  0
O  O240  1  0.29708421  0.51601797  0.62033706  1  -1.175732  0  -0.390862  -0.602168  0  2.397972  0
O  O241  1  0.20291481  0.48398154  0.12033804  1  -1.175761  0  -0.390854  -0.602184  0  2.398095  0
O  O242  1  0.70291519  0.48398204  0.37966247  1  -1.175726  0  -0.390865  -0.602204  0  2.398093  0
O  O243  1  0.79708250  0.51601763  0.87966346  1  -1.1757  0  -0.390864  -0.602157  0  2.397895  0
O  O244  1  0.57859544  0.66041172  0.92041788  1  -1.161269  0  -0.361666  -0.61183  0  2.213512  0
O  O245  1  0.92140916  0.33958544  0.42041963  1  -1.161577  0  -0.361614  -0.611739  0  2.214108  0
O  O246  1  0.42140978  0.33958413  0.07958007  1  -1.161912  0  -0.361543  -0.611684  0  2.214414  0
O  O247  1  0.07859414  0.66041207  0.57958109  1  -1.161345  0  -0.361662  -0.611802  0  2.213795  0
O  O248  1  0.47554471  0.63914125  0.99904174  1  -1.208414  0  -0.403499  -0.730993  0  2.435777  0
O  O249  1  0.02445619  0.36086144  0.49904315  1  -1.208275  0  -0.403536  -0.731071  0  2.435406  0
O  O250  1  0.52445704  0.36086377  0.00095621  1  -1.208211  0  -0.403592  -0.731135  0  2.435165  0
O  O251  1  0.97554534  0.63914024  0.50095757  1  -1.208361  0  -0.403503  -0.731062  0  2.43571  0
O  O252  1  0.50564507  0.07394650  0.88571076  1  -1.155781  0  -0.321507  -0.500645  0  2.157107  0
O  O253  1  0.99435470  0.92605400  0.38571087  1  -1.155809  0  -0.321506  -0.500667  0  2.157068  0
O  O254  1  0.49435331  0.92605351  0.11428837  1  -1.15581  0  -0.321517  -0.500674  0  2.157076  0
O  O255  1  0.00564571  0.07394601  0.61428905  1  -1.155784  0  -0.32151  -0.500662  0  2.157104  0
