# generated using pymatgen
data_Cu4SiH8(C5N2)4
_symmetry_space_group_name_H-M   'P 1'
_cell_length_a   21.58194037
_cell_length_b   21.64460325
_cell_length_c   22.30224234
_cell_angle_alpha   90.04370830
_cell_angle_beta   90.06101648
_cell_angle_gamma   89.69799972
_symmetry_Int_Tables_number   1
_chemical_formula_structural   Cu4SiH8(C5N2)4
_chemical_formula_sum   'Cu12 Si3 H24 C60 N24'
_cell_volume   10417.94942272
_cell_formula_units_Z   3
loop_
 _symmetry_equiv_pos_site_id
 _symmetry_equiv_pos_as_xyz
  1  'x, y, z'
loop_
 _atom_site_type_symbol
 _atom_site_label
 _atom_site_symmetry_multiplicity
 _atom_site_fract_x
 _atom_site_fract_y
 _atom_site_fract_z
 _atom_site_occupancy
 _atom_site_pbe_bader_charge
 _atom_site_pbe_bader_spin_density
 _atom_site_pbe_cm5_charge
 _atom_site_pbe_ddec_charge
 _atom_site_pbe_ddec_spin_density
 _atom_site_pbe_ddec_sum_bond_order
 _atom_site_pbe_magmom
Cu  Cu0  1  0.24525936  0.75438836  0.15083210  1  0.53841  0  0.491871  0.213913  0  2.099401  0
Cu  Cu1  1  0.13615605  0.75862314  0.24568017  1  0.559188  0  0.492208  0.21284  0  2.096286  0
Cu  Cu2  1  0.24075030  0.86320115  0.24554118  1  0.554221  0  0.492099  0.213145  0  2.096486  0
Cu  Cu3  1  0.24537131  0.24517713  0.85309442  1  0.535596  0  0.491757  0.213834  0  2.099825  0
Cu  Cu4  1  0.13683788  0.24369194  0.75721209  1  0.55319  0  0.492576  0.212937  0  2.099693  0
Cu  Cu5  1  0.23998531  0.13683314  0.75790613  1  0.56053  0  0.49217  0.212864  0  2.097164  0
Cu  Cu6  1  0.75532416  0.75547975  0.85316217  1  0.536459  0  0.491854  0.213633  0  2.10153  0
Cu  Cu7  1  0.86420140  0.76032682  0.75814789  1  0.557317  0  0.492206  0.212825  0  2.096836  0
Cu  Cu8  1  0.75647214  0.86293919  0.75726717  1  0.555043  0  0.49135  0.212336  0  2.095578  0
Cu  Cu9  1  0.76067752  0.23950962  0.13841358  1  0.527452  0  0.491557  0.211852  0  2.102309  0
Cu  Cu10  1  0.86256091  0.24271875  0.24107923  1  0.552583  0  0.492248  0.212805  0  2.095588  0
Cu  Cu11  1  0.75764472  0.13846745  0.24071421  1  0.552005  0  0.491862  0.213178  0  2.096161  0
Si  Si12  1  0.99730494  0.00237652  0.50090662  1  2.88399  0  0.177185  1.082594  0  4.22312  0
Si  Si13  1  0.00184125  0.50153760  0.00112416  1  2.88769  0  0.177272  1.083155  0  4.226344  0
Si  Si14  1  0.49802801  0.99767778  0.00134392  1  2.892732  0  0.177015  1.081074  0  4.230144  0
H  H15  1  0.20187338  0.64341400  0.06847273  1  0.100533  0  0.128168  0.121424  0  0.977668  0
H  H16  1  0.04796426  0.65379716  0.19289987  1  0.110433  0  0.128544  0.122156  0  0.977639  0
H  H17  1  0.34535328  0.95165161  0.19265796  1  0.11462  0  0.128523  0.122411  0  0.976869  0
H  H18  1  0.35646108  0.79777451  0.06847409  1  0.092866  0  0.128352  0.121571  0  0.977777  0
H  H19  1  0.05164981  0.80623658  0.35253756  1  0.113589  0  0.128406  0.12239  0  0.977175  0
H  H20  1  0.19308261  0.94771649  0.35203363  1  0.125252  0  0.128416  0.121848  0  0.977819  0
H  H21  1  0.20243731  0.35659366  0.93562322  1  0.130116  0  0.128106  0.121479  0  0.978382  0
H  H22  1  0.04936857  0.34976286  0.80974244  1  0.127754  0  0.128547  0.121914  0  0.976626  0
H  H23  1  0.34343572  0.04603920  0.81089314  1  0.113734  0  0.128925  0.122909  0  0.976392  0
H  H24  1  0.35605698  0.19915293  0.93571007  1  0.127014  0  0.128267  0.122242  0  0.977385  0
H  H25  1  0.05230835  0.19837541  0.64954220  1  0.107692  0  0.128262  0.12156  0  0.976902  0
H  H26  1  0.19198124  0.05369786  0.65076906  1  0.131796  0  0.128526  0.12222  0  0.977594  0
H  H27  1  0.80129022  0.64551280  0.93594318  1  0.089306  0  0.128296  0.122042  0  0.978129  0
H  H28  1  0.95485443  0.65677324  0.81128921  1  0.109364  0  0.12869  0.122733  0  0.976404  0
H  H29  1  0.64978320  0.95037110  0.80960661  1  0.13202  0  0.128602  0.1223  0  0.976492  0
H  H30  1  0.64314178  0.79788985  0.93540261  1  0.081278  0  0.128248  0.121512  0  0.978339  0
H  H31  1  0.94695601  0.80785071  0.65053516  1  0.119912  0  0.128274  0.121806  0  0.97771  0
H  H32  1  0.80172182  0.94698469  0.64988973  1  0.103357  0  0.128241  0.121598  0  0.978233  0
H  H33  1  0.80868394  0.34675415  0.05403808  1  0.092547  0  0.128239  0.122126  0  0.978266  0
H  H34  1  0.94783106  0.35260740  0.19430308  1  0.147251  0  0.128689  0.122643  0  0.976816  0
H  H35  1  0.64747027  0.05309547  0.19397902  1  0.117603  0  0.128542  0.122715  0  0.976982  0
H  H36  1  0.65267274  0.19155175  0.05369998  1  0.075785  0  0.12833  0.122027  0  0.978004  0
H  H37  1  0.94504596  0.19690720  0.35021631  1  0.101929  0  0.128427  0.122217  0  0.977604  0
H  H38  1  0.80322748  0.05580130  0.34927729  1  0.123779  0  0.12847  0.122049  0  0.977804  0
C  C39  1  0.16990710  0.65357977  0.10467884  1  0.456174  0  0.020086  -0.040421  0  3.924708  0
C  C40  1  0.11098715  0.62842445  0.11596408  1  0.080091  0  -0.025709  0.019664  0  4.177255  0
C  C41  1  0.09105427  0.65888701  0.16844692  1  0.463303  0  0.021133  -0.040176  0  3.921149  0
C  C42  1  0.34043416  0.90854110  0.16829819  1  0.443652  0  0.021168  -0.040421  0  3.922383  0
C  C43  1  0.37100928  0.88862483  0.11586212  1  0.117324  0  -0.02535  0.019997  0  4.176589  0
C  C44  1  0.34609264  0.82969867  0.10465272  1  0.461402  0  0.019828  -0.039984  0  3.92455  0
C  C45  1  0.09167741  0.83519601  0.34463429  1  0.453691  0  0.019989  -0.042646  0  3.926465  0
C  C46  1  0.10831671  0.89105094  0.37267322  1  0.088281  0  -0.02484  0.022545  0  4.17791  0
C  C47  1  0.16415437  0.90764077  0.34441487  1  0.454356  0  0.019882  -0.041528  0  3.923988  0
C  C48  1  0.17065087  0.34725674  0.89906443  1  0.466221  0  0.020089  -0.040002  0  3.926403  0
C  C49  1  0.11199023  0.37349195  0.88742877  1  0.067009  0  -0.025165  0.019877  0  4.178379  0
C  C50  1  0.09219921  0.34370120  0.83462007  1  0.424455  0  0.020863  -0.039906  0  3.921958  0
C  C51  1  0.33892403  0.08910606  0.83546378  1  0.511938  0  0.020493  -0.041628  0  3.92109  0
C  C52  1  0.36970821  0.10823344  0.88800707  1  0.071235  0  -0.025257  0.02111  0  4.17933  0
C  C53  1  0.34537341  0.16759825  0.89938951  1  0.4259  0  0.020073  -0.041327  0  3.926299  0
C  C54  1  0.09199560  0.16855623  0.65762263  1  0.398572  0  0.020489  -0.040276  0  3.924321  0
C  C55  1  0.10813351  0.11239790  0.62958261  1  0.164831  0  -0.025166  0.020467  0  4.17934  0
C  C56  1  0.16356984  0.09446038  0.65823083  1  0.397379  0  0.020364  -0.040551  0  3.924116  0
C  C57  1  0.83308021  0.65596862  0.89976549  1  0.469132  0  0.02  -0.041183  0  3.92639  0
C  C58  1  0.89235098  0.63111541  0.88834575  1  0.057993  0  -0.024776  0.021997  0  4.177925  0
C  C59  1  0.91177609  0.66170125  0.83591740  1  0.457394  0  0.020685  -0.041443  0  3.920666  0
C  C60  1  0.65588644  0.90767469  0.83442671  1  0.423655  0  0.020568  -0.041105  0  3.92235  0
C  C61  1  0.62612862  0.88797820  0.88724016  1  0.118707  0  -0.025472  0.020028  0  4.176519  0
C  C62  1  0.65251809  0.82953255  0.89886825  1  0.472104  0  0.020569  -0.039411  0  3.925479  0
C  C63  1  0.90615614  0.83623848  0.65821839  1  0.405416  0  0.020428  -0.041212  0  3.923581  0
C  C64  1  0.88798430  0.89148536  0.62966653  1  0.178093  0  -0.025301  0.021363  0  4.178483  0
C  C65  1  0.83174858  0.90749209  0.65784316  1  0.420379  0  0.020391  -0.041127  0  3.924611  0
C  C66  1  0.83698634  0.34033342  0.09377651  1  0.432978  0  0.020247  -0.042641  0  3.927526  0
C  C67  1  0.89225936  0.37028260  0.11019593  1  0.120317  0  -0.024956  0.022301  0  4.177449  0
C  C68  1  0.90832865  0.34332067  0.16559928  1  0.413565  0  0.020685  -0.041794  0  3.923345  0
C  C69  1  0.65663298  0.09245684  0.16530240  1  0.402861  0  0.020525  -0.042404  0  3.922434  0
C  C70  1  0.62949572  0.10825472  0.10985350  1  0.164161  0  -0.024992  0.022023  0  4.17689  0
C  C71  1  0.65929622  0.16345948  0.09347082  1  0.46168  0  0.020338  -0.041527  0  3.926115  0
C  C72  1  0.90496557  0.16802029  0.34216739  1  0.454635  0  0.020331  -0.042222  0  3.924763  0
C  C73  1  0.88779531  0.11260851  0.37062399  1  0.076937  0  -0.025106  0.021675  0  4.177901  0
C  C74  1  0.83235440  0.09571841  0.34166939  1  0.447642  0  0.020404  -0.040901  0  3.924053  0
C  C75  1  0.07841689  0.58526571  0.08107283  1  -0.453089  0  -0.029335  0.068531  0  4.157838  0
C  C76  1  0.04938491  0.54920417  0.04956952  1  -0.469065  0  -0.109867  -0.453386  0  3.853651  0
C  C77  1  0.07941961  0.41704182  0.92218521  1  -0.50889  0  -0.02981  0.066955  0  4.158619  0
C  C78  1  0.05027366  0.45346481  0.95348418  1  -0.416534  0  -0.110023  -0.452766  0  3.852808  0
C  C79  1  0.92520913  0.58754328  0.92281804  1  -0.609563  0  -0.029454  0.066031  0  4.160529  0
C  C80  1  0.95412231  0.55074544  0.95390055  1  -0.280817  0  -0.110381  -0.452372  0  3.854229  0
C  C81  1  0.92487466  0.41485635  0.07726486  1  -0.699103  0  -0.029566  0.067124  0  4.159704  0
C  C82  1  0.95365861  0.45246829  0.04741230  1  -0.234834  0  -0.110343  -0.453226  0  3.854622  0
C  C83  1  0.41411648  0.92123260  0.08100131  1  -0.509485  0  -0.029554  0.067077  0  4.159603  0
C  C84  1  0.45021900  0.95027532  0.04962065  1  -0.432274  0  -0.109873  -0.452028  0  3.853569  0
C  C85  1  0.58484835  0.07536660  0.07703810  1  -0.692127  0  -0.02956  0.067222  0  4.159635  0
C  C86  1  0.54726896  0.04598857  0.04752708  1  -0.248799  0  -0.110309  -0.452848  0  3.854187  0
C  C87  1  0.41273717  0.07490164  0.92274912  1  -0.660212  0  -0.029339  0.067473  0  4.160325  0
C  C88  1  0.44888857  0.04543864  0.95410013  1  -0.286213  0  -0.110009  -0.452565  0  3.854835  0
C  C89  1  0.58254038  0.92039263  0.92214171  1  -0.515186  0  -0.029492  0.067013  0  4.158409  0
C  C90  1  0.54613445  0.94930557  0.95368405  1  -0.412107  0  -0.110029  -0.452118  0  3.853757  0
C  C91  1  0.07534926  0.92409265  0.41668895  1  -0.6917  0  -0.029396  0.066607  0  4.158997  0
C  C92  1  0.04578460  0.95388451  0.45367940  1  -0.244804  0  -0.110624  -0.452949  0  3.851246  0
C  C93  1  0.92015933  0.92457932  0.58544699  1  -0.658678  0  -0.029786  0.06663  0  4.16086  0
C  C94  1  0.94919194  0.95432740  0.54831814  1  -0.263473  0  -0.110087  -0.45259  0  3.852516  0
C  C95  1  0.92010904  0.08001403  0.41542733  1  -0.580815  0  -0.029532  0.066355  0  4.159787  0
C  C96  1  0.94912751  0.05057248  0.45309550  1  -0.327501  0  -0.110191  -0.452224  0  3.851674  0
C  C97  1  0.07500175  0.07994262  0.58547073  1  -0.63361  0  -0.029167  0.067577  0  4.160442  0
C  C98  1  0.04542794  0.05051208  0.54840140  1  -0.277655  0  -0.110419  -0.453231  0  3.852831  0
N  N99  1  0.13468575  0.69901547  0.18649460  1  -0.786563  0  -0.334679  -0.140351  0  3.766632  0
N  N100  1  0.18353398  0.69575210  0.14696463  1  -0.774861  0  -0.334665  -0.141621  0  3.764656  0
N  N101  1  0.30394696  0.81603447  0.14695114  1  -0.781183  0  -0.334991  -0.143022  0  3.767632  0
N  N102  1  0.30047169  0.86487134  0.18640743  1  -0.778769  0  -0.334237  -0.139224  0  3.769202  0
N  N103  1  0.17914206  0.86506184  0.30284417  1  -0.82712  0  -0.334635  -0.141194  0  3.77051  0
N  N104  1  0.13422099  0.82015277  0.30297946  1  -0.747385  0  -0.333599  -0.138793  0  3.76876  0
N  N105  1  0.13567229  0.30293517  0.81669906  1  -0.783013  0  -0.334454  -0.139216  0  3.772485  0
N  N106  1  0.18426063  0.30509132  0.85666139  1  -0.766441  0  -0.335289  -0.143085  0  3.770616  0
N  N107  1  0.30332339  0.18225240  0.85708118  1  -0.780203  0  -0.334819  -0.1422  0  3.766652  0
N  N108  1  0.29936299  0.13363970  0.81744974  1  -0.790598  0  -0.334577  -0.13962  0  3.767476  0
N  N109  1  0.17879796  0.13656415  0.70004157  1  -0.761314  0  -0.334609  -0.140532  0  3.771925  0
N  N110  1  0.13444530  0.18249450  0.69966249  1  -0.814806  0  -0.334655  -0.140815  0  3.773787  0
N  N111  1  0.86746220  0.70156611  0.81796767  1  -0.783024  0  -0.334404  -0.139958  0  3.766946  0
N  N112  1  0.81871879  0.69803647  0.85754703  1  -0.776377  0  -0.334921  -0.141619  0  3.767862  0
N  N113  1  0.69476046  0.81595171  0.85647150  1  -0.786576  0  -0.3357  -0.142845  0  3.769538  0
N  N114  1  0.69681057  0.86434648  0.81652042  1  -0.773753  0  -0.333729  -0.139114  0  3.769243  0
N  N115  1  0.81798266  0.86518629  0.69986432  1  -0.815612  0  -0.334105  -0.139956  0  3.767075  0
N  N116  1  0.86411843  0.82103032  0.70010789  1  -0.775564  0  -0.333852  -0.139591  0  3.767382  0
N  N117  1  0.86593651  0.30065384  0.18053643  1  -0.77818  0  -0.334533  -0.140529  0  3.767523  0
N  N118  1  0.82175240  0.29882114  0.13603231  1  -0.758869  0  -0.334408  -0.138775  0  3.770057  0
N  N119  1  0.70090467  0.17890515  0.13577218  1  -0.785836  0  -0.335054  -0.140548  0  3.771179  0
N  N120  1  0.69926535  0.13492454  0.18027710  1  -0.765386  0  -0.333959  -0.139455  0  3.767211  0
N  N121  1  0.81808188  0.13771145  0.29934154  1  -0.820795  0  -0.334762  -0.141619  0  3.769862  0
N  N122  1  0.86309706  0.18252619  0.29963850  1  -0.740628  0  -0.334082  -0.138697  0  3.767375  0
