# generated using pymatgen
data_KCuH24C16(IO3)2
_symmetry_space_group_name_H-M   'P 1'
_cell_length_a   9.27624229
_cell_length_b   9.63915873
_cell_length_c   12.68009280
_cell_angle_alpha   93.12982190
_cell_angle_beta   93.71666629
_cell_angle_gamma   109.81045181
_symmetry_Int_Tables_number   1
_chemical_formula_structural   KCuH24C16(IO3)2
_chemical_formula_sum   'K2 Cu2 H48 C32 I4 O12'
_cell_volume   1060.90429444
_cell_formula_units_Z   2
loop_
 _symmetry_equiv_pos_site_id
 _symmetry_equiv_pos_as_xyz
  1  'x, y, z'
loop_
 _atom_site_type_symbol
 _atom_site_label
 _atom_site_symmetry_multiplicity
 _atom_site_fract_x
 _atom_site_fract_y
 _atom_site_fract_z
 _atom_site_occupancy
 _atom_site_hle17_bader_spin_density
 _atom_site_hle17_ddec_charge
 _atom_site_hle17_ddec_spin_density
 _atom_site_hle17_ddec_sum_bond_order
 _atom_site_hle17_magmom
 _atom_site_hse06_10hf_bader_spin_density
 _atom_site_hse06_10hf_ddec_charge
 _atom_site_hse06_10hf_ddec_spin_density
 _atom_site_hse06_10hf_ddec_sum_bond_order
 _atom_site_hse06_10hf_magmom
 _atom_site_hse06_bader_spin_density
 _atom_site_hse06_ddec_charge
 _atom_site_hse06_ddec_spin_density
 _atom_site_hse06_ddec_sum_bond_order
 _atom_site_hse06_magmom
 _atom_site_pbe_bader_spin_density
 _atom_site_pbe_cm5_charge
 _atom_site_pbe_ddec_charge
 _atom_site_pbe_ddec_spin_density
 _atom_site_pbe_ddec_sum_bond_order
 _atom_site_pbe_magmom
K  K0  1  0.59816139  0.65078201  0.14735341  1  0  0.895103  0  0.521159  0  0  0.817775  0  0.727996  0  0  0.836141  0  0.70525  0  0  0.782874  0.805209  0  0.742959  0
K  K1  1  0.40183168  0.34921581  0.85264568  1  0  0.895103  0  0.521146  0  0  0.817773  0  0.72799  0  0  0.83614  0  0.705242  0  0  0.782862  0.805209  0  0.742956  0
Cu  Cu2  1  0.95925145  0.99820783  0.40239068  1  0  0.251835  0  2.083292  0  0  0.175427  0  2.56852  0  0  0.198469  0  2.505967  0  0  0.141932  0.161336  0  2.611352  0
Cu  Cu3  1  0.04074666  0.00178893  0.59760939  1  0  0.251708  0  2.083189  0  0  0.175431  0  2.568478  0  0  0.198468  0  2.505924  0  0  0.141916  0.161339  0  2.611309  0
H  H4  1  0.27635630  0.31554518  0.43090200  1  0  0.099021  0  1.013744  0  0  0.103479  0  1.089839  0  0  0.106812  0  1.087727  0  0  0.084456  0.100786  0  1.091819  0
H  H5  1  0.72364190  0.68445489  0.56909819  1  0  0.099047  0  1.013731  0  0  0.1035  0  1.089828  0  0  0.106832  0  1.087718  0  0  0.084471  0.100813  0  1.091799  0
H  H6  1  0.31347496  0.08151141  0.46623842  1  0  0.077872  0  0.985882  0  0  0.081776  0  1.06502  0  0  0.086012  0  1.060023  0  0  0.082782  0.078453  0  1.069109  0
H  H7  1  0.68652392  0.91848755  0.53376097  1  0  0.07787  0  0.985919  0  0  0.081787  0  1.065037  0  0  0.086024  0  1.060041  0  0  0.082789  0.078467  0  1.069127  0
H  H8  1  0.55672953  0.03999694  0.42038235  1  0  0.08227  0  0.978535  0  0  0.094148  0  1.042508  0  0  0.096329  0  1.041785  0  0  0.094268  0.092956  0  1.042602  0
H  H9  1  0.44327011  0.96000422  0.57961638  1  0  0.082264  0  0.978533  0  0  0.094151  0  1.042498  0  0  0.096329  0  1.04178  0  0  0.094256  0.09296  0  1.042589  0
H  H10  1  0.75119332  0.22724959  0.33329772  1  0  0.102638  0  1.004792  0  0  0.108475  0  1.076283  0  0  0.111439  0  1.074975  0  0  0.085631  0.106506  0  1.07699  0
H  H11  1  0.24880595  0.77275048  0.66670173  1  0  0.102622  0  1.004761  0  0  0.108463  0  1.076246  0  0  0.11144  0  1.074925  0  0  0.085639  0.106493  0  1.076947  0
H  H12  1  0.84026879  0.35932338  0.20767119  1  0  0.059308  0  0.941151  0  0  0.069179  0  1.01472  0  0  0.070006  0  1.013561  0  0  0.099245  0.070276  0  1.011846  0
H  H13  1  0.15972793  0.64067557  0.79232811  1  0  0.059258  0  0.941184  0  0  0.069114  0  1.014771  0  0  0.06994  0  1.013616  0  0  0.099207  0.07021  0  1.011897  0
H  H14  1  0.94125138  0.48156245  0.32053583  1  0  0.070182  0  0.922939  0  0  0.084763  0  0.98427  0  0  0.084774  0  0.984456  0  0  0.097351  0.081687  0  0.991102  0
H  H15  1  0.05874642  0.51843651  0.67946352  1  0  0.070181  0  0.922905  0  0  0.08476  0  0.98424  0  0  0.084771  0  0.984425  0  0  0.097367  0.081685  0  0.991067  0
H  H16  1  0.95053288  0.69931125  0.21477591  1  0  0.051311  0  0.962813  0  0  0.057447  0  1.043768  0  0  0.058427  0  1.042856  0  0  0.090396  0.058182  0  1.041301  0
H  H17  1  0.04946787  0.30068995  0.78522523  1  0  0.051327  0  0.962788  0  0  0.057484  0  1.043734  0  0  0.058465  0  1.042823  0  0  0.090406  0.058215  0  1.041269  0
H  H18  1  0.05202067  0.58713111  0.16207339  1  0  0.061461  0  0.942679  0  0  0.077292  0  1.004722  0  0  0.077594  0  1.004934  0  0  0.102245  0.076866  0  1.004972  0
H  H19  1  0.94798079  0.41286900  0.83792853  1  0  0.061456  0  0.942664  0  0  0.077289  0  1.004718  0  0  0.077594  0  1.004927  0  0  0.102229  0.076862  0  1.004968  0
H  H20  1  0.01267030  0.66127019  0.98104584  1  0  0.053431  0  0.941908  0  0  0.070417  0  1.005009  0  0  0.070803  0  1.004766  0  0  0.097304  0.07001  0  1.005265  0
H  H21  1  0.98733075  0.33872880  0.01895444  1  0  0.053454  0  0.94192  0  0  0.070428  0  1.005025  0  0  0.070803  0  1.004791  0  0  0.097314  0.070022  0  1.00528  0
H  H22  1  0.92201092  0.78018729  0.03879615  1  0  0.048387  0  0.959306  0  0  0.059146  0  1.032968  0  0  0.060423  0  1.031661  0  0  0.088766  0.057973  0  1.034202  0
H  H23  1  0.07799159  0.21981281  0.96120345  1  0  0.048392  0  0.959308  0  0  0.059151  0  1.032962  0  0  0.060426  0  1.031654  0  0  0.088768  0.05798  0  1.034199  0
H  H24  1  0.84373188  0.69824250  0.84259515  1  0  0.063807  0  0.941318  0  0  0.078441  0  1.007938  0  0  0.0782  0  1.008435  0  0  0.096901  0.078461  0  1.007654  0
H  H25  1  0.15626916  0.30175648  0.15740435  1  0  0.063802  0  0.941336  0  0  0.078426  0  1.007954  0  0  0.078186  0  1.008451  0  0  0.0969  0.078445  0  1.007671  0
H  H26  1  0.76398950  0.51182436  0.87718299  1  0  0.067116  0  0.968904  0  0  0.075348  0  1.041362  0  0  0.07706  0  1.039373  0  0  0.106088  0.073641  0  1.043681  0
H  H27  1  0.23601195  0.48817575  0.12281813  1  0  0.067117  0  0.968917  0  0  0.075341  0  1.041377  0  0  0.077053  0  1.039389  0  0  0.10609  0.073634  0  1.043695  0
H  H28  1  0.65216150  0.79512345  0.81021660  1  0  0.059135  0  0.949173  0  0  0.072894  0  1.014899  0  0  0.07146  0  1.017965  0  0  0.101227  0.073804  0  1.013026  0
H  H29  1  0.34783954  0.20487553  0.18978289  1  0  0.059143  0  0.949189  0  0  0.072902  0  1.0149  0  0  0.071471  0  1.017965  0  0  0.101234  0.073815  0  1.013022  0
H  H30  1  0.72978146  0.87590851  0.94117171  1  0  0.054141  0  0.936658  0  0  0.067198  0  1.004223  0  0  0.068036  0  1.003106  0  0  0.09827  0.066115  0  1.005758  0
H  H31  1  0.27022144  0.12409268  0.05882716  1  0  0.054144  0  0.93663  0  0  0.067198  0  1.004192  0  0  0.068037  0  1.003076  0  0  0.098266  0.066114  0  1.005726  0
H  H32  1  0.45760915  0.87887519  0.87532638  1  0  0.059183  0  0.94467  0  0  0.072157  0  1.013933  0  0  0.072197  0  1.014199  0  0  0.100228  0.071618  0  1.014414  0
H  H33  1  0.54239190  0.12112379  0.12467311  1  0  0.059197  0  0.944701  0  0  0.072156  0  1.013962  0  0  0.072195  0  1.014228  0  0  0.100233  0.071617  0  1.014438  0
H  H34  1  0.39124333  0.68531948  0.89027149  1  0  0.060251  0  0.954713  0  0  0.069522  0  1.027864  0  0  0.070882  0  1.026505  0  0  0.106128  0.068342  0  1.028771  0
H  H35  1  0.60875881  0.31467952  0.10972884  1  0  0.060288  0  0.954688  0  0  0.069551  0  1.027819  0  0  0.07091  0  1.026459  0  0  0.106127  0.068372  0  1.028724  0
H  H36  1  0.24267462  0.71868655  0.02530678  1  0  0.05167  0  0.950991  0  0  0.06106  0  1.025625  0  0  0.062726  0  1.023267  0  0  0.099366  0.059792  0  1.027425  0
H  H37  1  0.75732822  0.28131135  0.97469354  1  0  0.051648  0  0.950992  0  0  0.061056  0  1.025624  0  0  0.062713  0  1.023271  0  0  0.099359  0.059799  0  1.027407  0
H  H38  1  0.30783574  0.91436759  0.01818292  1  0  0.059358  0  0.945087  0  0  0.071363  0  1.013615  0  0  0.072069  0  1.013111  0  0  0.098212  0.070602  0  1.014278  0
H  H39  1  0.69216453  0.08562916  0.98181567  1  0  0.059342  0  0.945015  0  0  0.071343  0  1.013561  0  0  0.072048  0  1.013053  0  0  0.098195  0.070581  0  1.014227  0
H  H40  1  0.43846112  0.93726361  0.20810597  1  0  0.056033  0  0.943149  0  0  0.068935  0  1.011936  0  0  0.06919  0  1.012071  0  0  0.101739  0.068068  0  1.013064  0
H  H41  1  0.56153814  0.06273645  0.79189270  1  0  0.056047  0  0.943142  0  0  0.068948  0  1.011928  0  0  0.069203  0  1.012062  0  0  0.101738  0.068088  0  1.013047  0
H  H42  1  0.23293313  0.86816231  0.19726092  1  0  0.060205  0  0.918351  0  0  0.075073  0  0.982442  0  0  0.074928  0  0.982976  0  0  0.10092  0.074378  0  0.983161  0
H  H43  1  0.76706644  0.13183555  0.80273768  1  0  0.060221  0  0.918423  0  0  0.075097  0  0.98249  0  0  0.074953  0  0.983025  0  0  0.100931  0.074404  0  0.983212  0
H  H44  1  0.27297570  0.75882819  0.36553595  1  0  0.059736  0  0.961441  0  0  0.073569  0  1.02849  0  0  0.073354  0  1.029494  0  0  0.088703  0.073805  0  1.027599  0
H  H45  1  0.72702356  0.24117188  0.63446272  1  0  0.059874  0  0.961508  0  0  0.073712  0  1.028523  0  0  0.073509  0  1.029518  0  0  0.08877  0.073944  0  1.027634  0
H  H46  1  0.47547173  0.80286366  0.35767738  1  0  0.053701  0  0.941807  0  0  0.066543  0  1.010976  0  0  0.066617  0  1.010786  0  0  0.102164  0.066443  0  1.011009  0
H  H47  1  0.52452832  0.19713863  0.64232219  1  0  0.053709  0  0.941843  0  0  0.06655  0  1.011002  0  0  0.066623  0  1.010815  0  0  0.102161  0.06645  0  1.011032  0
H  H48  1  0.34951104  0.57554483  0.45357427  1  0  0.066755  0  0.957235  0  0  0.077203  0  1.026121  0  0  0.075672  0  1.029576  0  0  0.103225  0.077969  0  1.024731  0
H  H49  1  0.65049008  0.42445746  0.54642535  1  0  0.06676  0  0.957197  0  0  0.077228  0  1.026054  0  0  0.075697  0  1.029511  0  0  0.10322  0.077997  0  1.024655  0
H  H50  1  0.23950280  0.48743199  0.33201622  1  0  0.060633  0  0.919558  0  0  0.074798  0  0.983595  0  0  0.075277  0  0.982778  0  0  0.103957  0.074592  0  0.984668  0
H  H51  1  0.76049903  0.51256921  0.66798417  1  0  0.060613  0  0.919575  0  0  0.074799  0  0.983588  0  0  0.075279  0  0.982768  0  0  0.10394  0.074562  0  0.984695  0
C  C52  1  0.49033061  0.40512664  0.35854287  1  0  0.168704  0  3.791549  0  0  0.15803  0  4.053273  0  0  0.166614  0  4.06701  0  0  0.068973  0.151883  0  4.043131  0
C  C53  1  0.50966797  0.59487454  0.64145738  1  0  0.168681  0  3.791436  0  0  0.158005  0  4.05319  0  0  0.166589  0  4.066927  0  0  0.068955  0.151861  0  4.043046  0
C  C54  1  0.38033865  0.29780935  0.40796433  1  0  -0.188005  0  3.783895  0  0  -0.209337  0  4.036545  0  0  -0.212415  0  4.055335  0  0  -0.116319  -0.206328  0  4.023432  0
C  C55  1  0.61966101  0.70219184  0.59203597  1  0  -0.188036  0  3.783853  0  0  -0.209373  0  4.036547  0  0  -0.21245  0  4.055341  0  0  -0.116313  -0.206365  0  4.023443  0
C  C56  1  0.40251600  0.16493934  0.42903660  1  0  -0.077939  0  3.813479  0  0  -0.089531  0  4.06449  0  0  -0.090921  0  4.084685  0  0  -0.109315  -0.089254  0  4.051664  0
C  C57  1  0.59748257  0.83506183  0.57096287  1  0  -0.07783  0  3.813552  0  0  -0.089435  0  4.064562  0  0  -0.090826  0  4.084754  0  0  -0.109258  -0.089163  0  4.051745  0
C  C58  1  0.53596577  0.14122968  0.40264017  1  0  -0.08194  0  3.820082  0  0  -0.096035  0  4.068632  0  0  -0.097701  0  4.091416  0  0  -0.109275  -0.095252  0  4.053449  0
C  C59  1  0.46403457  0.85877039  0.59735854  1  0  -0.082043  0  3.820128  0  0  -0.096139  0  4.068676  0  0  -0.09781  0  4.091474  0  0  -0.109303  -0.095357  0  4.053501  0
C  C60  1  0.64766330  0.24840521  0.35322971  1  0  -0.195308  0  3.803748  0  0  -0.214854  0  4.055659  0  0  -0.218164  0  4.075688  0  0  -0.118905  -0.212666  0  4.043557  0
C  C61  1  0.35233636  0.75159598  0.64677059  1  0  -0.195145  0  3.803611  0  0  -0.214684  0  4.055514  0  0  -0.218004  0  4.075533  0  0  -0.118862  -0.212497  0  4.043413  0
C  C62  1  0.62491780  0.37935671  0.32969142  1  0  0.16583  0  3.794053  0  0  0.154584  0  4.055676  0  0  0.162604  0  4.070108  0  0  0.067328  0.149081  0  4.045796  0
C  C63  1  0.37508116  0.62064556  0.67030810  1  0  0.165768  0  3.793934  0  0  0.154517  0  4.055583  0  0  0.162537  0  4.070017  0  0  0.067273  0.149014  0  4.045708  0
C  C64  1  0.86378984  0.46979971  0.24835546  1  0  0.064564  0  3.626867  0  0  0.005744  0  3.893763  0  0  0.012739  0  3.898533  0  0  -0.072528  0.000313  0  3.890288  0
C  C65  1  0.13620875  0.53020148  0.75164637  1  0  0.064655  0  3.626786  0  0  0.005869  0  3.893648  0  0  0.01286  0  3.89843  0  0  -0.072497  0.000438  0  3.89017  0
C  C66  1  0.93665953  0.58905745  0.17658673  1  0  0.042565  0  3.661532  0  0  -0.014011  0  3.929449  0  0  -0.008163  0  3.935473  0  0  -0.086366  -0.017847  0  3.924215  0
C  C67  1  0.06333935  0.41094151  0.82341267  1  0  0.042535  0  3.661516  0  0  -0.014096  0  3.92951  0  0  -0.008241  0  3.935516  0  0  -0.086383  -0.017926  0  3.924272  0
C  C68  1  0.90154941  0.66687639  0.00352027  1  0  0.044131  0  3.671674  0  0  -0.014472  0  3.941179  0  0  -0.008761  0  3.947535  0  0  -0.087663  -0.01821  0  3.937037  0
C  C69  1  0.09845203  0.33312371  0.99648007  1  0  0.044086  0  3.671727  0  0  -0.014499  0  3.941202  0  0  -0.008777  0  3.947553  0  0  -0.087655  -0.018236  0  3.937057  0
C  C70  1  0.78994686  0.62825716  0.90524383  1  0  0.042192  0  3.645575  0  0  -0.014795  0  3.914991  0  0  -0.008662  0  3.920373  0  0  -0.083407  -0.018962  0  3.911604  0
C  C71  1  0.21005419  0.37174183  0.09475645  1  0  0.042222  0  3.645591  0  0  -0.014731  0  3.914972  0  0  -0.008596  0  3.920344  0  0  -0.083389  -0.018894  0  3.91158  0
C  C72  1  0.63687032  0.78462060  0.89529854  1  0  0.048768  0  3.661437  0  0  -0.008098  0  3.928527  0  0  -0.001914  0  3.935116  0  0  -0.080124  -0.012293  0  3.924072  0
C  C73  1  0.36313220  0.21537949  0.10470106  1  0  0.0488  0  3.661471  0  0  -0.008047  0  3.92852  0  0  -0.001868  0  3.935113  0  0  -0.080109  -0.012247  0  3.924067  0
C  C74  1  0.48183244  0.79143036  0.91793834  1  0  0.04892  0  3.65972  0  0  -0.00924  0  3.929942  0  0  -0.003469  0  3.935999  0  0  -0.079645  -0.012944  0  3.925601  0
C  C75  1  0.51816860  0.20856862  0.08206115  1  0  0.048754  0  3.65988  0  0  -0.009379  0  3.930063  0  0  -0.003603  0  3.936118  0  0  -0.079704  -0.013084  0  3.92572  0
C  C76  1  0.33312617  0.82376268  0.05599611  1  0  0.052784  0  3.663944  0  0  -0.005378  0  3.935042  0  0  0.000711  0  3.940252  0  0  -0.078997  -0.009349  0  3.931327  0
C  C77  1  0.66687448  0.17623518  0.94400253  1  0  0.052858  0  3.663805  0  0  -0.005356  0  3.934965  0  0  0.000753  0  3.940154  0  0  -0.078998  -0.009325  0  3.931236  0
C  C78  1  0.33577415  0.84396131  0.17499385  1  0  0.055395  0  3.659931  0  0  -0.003969  0  3.929067  0  0  0.002065  0  3.935794  0  0  -0.075806  -0.007372  0  3.924351  0
C  C79  1  0.66422727  0.15603877  0.82500491  1  0  0.055303  0  3.660077  0  0  -0.004033  0  3.929178  0  0  0.001997  0  3.935905  0  0  -0.075808  -0.007442  0  3.924475  0
C  C80  1  0.36103089  0.72178550  0.33053917  1  0  0.049963  0  3.663826  0  0  -0.010881  0  3.933929  0  0  -0.004671  0  3.94034  0  0  -0.081254  -0.014657  0  3.928026  0
C  C81  1  0.63897055  0.27821459  0.66946038  1  0  0.049766  0  3.663941  0  0  -0.011076  0  3.934064  0  0  -0.004877  0  3.940475  0  0  -0.081342  -0.01485  0  3.928153  0
C  C82  1  0.34778527  0.57215946  0.36661543  1  0  0.067898  0  3.62003  0  0  0.00923  0  3.886104  0  0  0.016131  0  3.891982  0  0  -0.068939  0.0039  0  3.882431  0
C  C83  1  0.65221587  0.42784284  0.63338498  1  0  0.067931  0  3.6199  0  0  0.009258  0  3.885952  0  0  0.01616  0  3.891835  0  0  -0.068906  0.003946  0  3.882277  0
I  I84  1  0.88370352  0.01321960  0.20879730  1  0  -0.57862  0  1.111505  0  0  -0.517922  0  1.46147  0  0  -0.534644  0  1.426681  0  0  -0.293447  -0.503826  0  1.481739  0
I  I85  1  0.11629260  0.98678378  0.79120450  1  0  -0.578574  0  1.111431  0  0  -0.517929  0  1.461449  0  0  -0.534647  0  1.426662  0  0  -0.293455  -0.503831  0  1.481716  0
I  I86  1  0.99261197  0.22985092  0.52873439  1  0  -0.393621  0  1.512001  0  0  -0.325434  0  1.911931  0  0  -0.342122  0  1.872187  0  0  -0.190919  -0.3156  0  1.956254  0
I  I87  1  0.00739016  0.77014807  0.47126515  1  0  -0.393623  0  1.512002  0  0  -0.325429  0  1.911916  0  0  -0.342111  0  1.872167  0  0  -0.190925  -0.315589  0  1.956234  0
O  O88  1  0.47736127  0.53695321  0.33236710  1  0  -0.307053  0  2.366391  0  0  -0.236696  0  2.608282  0  0  -0.253584  0  2.610849  0  0  -0.240241  -0.224673  0  2.606175  0
O  O89  1  0.52263800  0.46304687  0.66763314  1  0  -0.307054  0  2.366376  0  0  -0.236725  0  2.608284  0  0  -0.253623  0  2.610859  0  0  -0.240246  -0.224699  0  2.606161  0
O  O90  1  0.72300378  0.48783419  0.27649396  1  0  -0.315714  0  2.398065  0  0  -0.245746  0  2.642497  0  0  -0.263078  0  2.645729  0  0  -0.242182  -0.233257  0  2.639404  0
O  O91  1  0.27699550  0.51216589  0.72350628  1  0  -0.31577  0  2.397946  0  0  -0.2458  0  2.642371  0  0  -0.263127  0  2.645603  0  0  -0.242191  -0.233307  0  2.639279  0
O  O92  1  0.84028234  0.56080228  0.07882282  1  0  -0.344183  0  2.267458  0  0  -0.274009  0  2.523697  0  0  -0.289652  0  2.52514  0  0  -0.284864  -0.26345  0  2.522698  0
O  O93  1  0.15971801  0.43919780  0.92117668  1  0  -0.344161  0  2.267443  0  0  -0.273993  0  2.523694  0  0  -0.289638  0  2.525135  0  0  -0.284863  -0.263435  0  2.522696  0
O  O94  1  0.64441425  0.64431223  0.92377180  1  0  -0.360067  0  2.23455  0  0  -0.291008  0  2.487023  0  0  -0.306263  0  2.487253  0  0  -0.303156  -0.279818  0  2.485956  0
O  O95  1  0.35558828  0.35568788  0.07622938  1  0  -0.360082  0  2.234585  0  0  -0.29106  0  2.487068  0  0  -0.306317  0  2.487305  0  0  -0.303182  -0.279871  0  2.486003  0
O  O96  1  0.47946306  0.82011130  0.02967458  1  0  -0.346995  0  2.290368  0  0  -0.275363  0  2.545094  0  0  -0.291424  0  2.547119  0  0  -0.304378  -0.264375  0  2.54389  0
O  O97  1  0.52053876  0.17988989  0.97032503  1  0  -0.346944  0  2.290324  0  0  -0.275299  0  2.545023  0  0  -0.291364  0  2.547041  0  0  -0.304334  -0.264311  0  2.543824  0
O  O98  1  0.33904331  0.71001550  0.21691763  1  0  -0.346779  0  2.306107  0  0  -0.274241  0  2.559921  0  0  -0.290159  0  2.561762  0  0  -0.282933  -0.262934  0  2.557894  0
O  O99  1  0.66095812  0.28998458  0.78308113  1  0  -0.346716  0  2.306124  0  0  -0.274199  0  2.559943  0  0  -0.29012  0  2.561789  0  0  -0.282908  -0.262891  0  2.557917  0
