# generated using pymatgen
data_Cu2SiH12C12(NF)6
_symmetry_space_group_name_H-M   'P 1'
_cell_length_a   10.59481401
_cell_length_b   10.59485403
_cell_length_c   10.59487641
_cell_angle_alpha   68.10420594
_cell_angle_beta   75.27569374
_cell_angle_gamma   111.89559375
_symmetry_Int_Tables_number   1
_chemical_formula_structural   Cu2SiH12C12(NF)6
_chemical_formula_sum   'Cu4 Si2 H24 C24 N12 F12'
_cell_volume   910.84386724
_cell_formula_units_Z   2
loop_
 _symmetry_equiv_pos_site_id
 _symmetry_equiv_pos_as_xyz
  1  'x, y, z'
loop_
 _atom_site_type_symbol
 _atom_site_label
 _atom_site_symmetry_multiplicity
 _atom_site_fract_x
 _atom_site_fract_y
 _atom_site_fract_z
 _atom_site_occupancy
 _atom_site_pbe_bader_spin_density
 _atom_site_pbe_cm5_charge
 _atom_site_pbe_ddec_charge
 _atom_site_pbe_ddec_spin_density
 _atom_site_pbe_ddec_sum_bond_order
 _atom_site_pbe_magmom
Cu  Cu0  1  0.29721845  0.09443683  0.20278121  1  0  0.61864  0.422363  0  2.245286  0
Cu  Cu1  1  0.79721940  0.50000110  0.29721732  1  0  0.618572  0.422542  0  2.245157  0
Cu  Cu2  1  0.70277943  0.90555922  0.79722036  1  0  0.618473  0.422185  0  2.24487  0
Cu  Cu3  1  0.20278760  0.50000141  0.70278621  1  0  0.618375  0.422191  0  2.24499  0
Si  Si4  1  0.99999787  0.00000002  0.99999852  1  0  0.257784  1.689083  0  3.980601  0
Si  Si5  1  0.50000169  0.00000153  0.49999891  1  0  0.257762  1.68904  0  3.980604  0
H  H6  1  0.29048581  0.02005606  0.96021144  1  0  0.117014  0.112059  0  1.056485  0
H  H7  1  0.03978990  0.74930100  0.98026670  1  0  0.117003  0.112155  0  1.056466  0
H  H8  1  0.48026622  0.25070234  0.53978769  1  0  0.117011  0.112169  0  1.056455  0
H  H9  1  0.01973547  0.97994736  0.72956010  1  0  0.116996  0.112198  0  1.056402  0
H  H10  1  0.46021064  0.97994856  0.79049232  1  0  0.117056  0.112163  0  1.056544  0
H  H11  1  0.27043594  0.25070167  0.70950886  1  0  0.117036  0.112151  0  1.056559  0
H  H12  1  0.20950920  0.74929978  0.77043547  1  0  0.117043  0.112181  0  1.056542  0
H  H13  1  0.22956820  0.02005390  0.51973336  1  0  0.116998  0.112136  0  1.056407  0
H  H14  1  0.70950748  0.97994562  0.03978816  1  0  0.11706  0.112242  0  1.056452  0
H  H15  1  0.96020910  0.25070227  0.01973437  1  0  0.117034  0.112147  0  1.056494  0
H  H16  1  0.51973623  0.74930017  0.46020875  1  0  0.117031  0.112161  0  1.056515  0
H  H17  1  0.98026470  0.02005356  0.27043330  1  0  0.117001  0.11203  0  1.056521  0
H  H18  1  0.53978835  0.02005356  0.20951181  1  0  0.116995  0.11212  0  1.056429  0
H  H19  1  0.72956879  0.74930247  0.29048552  1  0  0.117023  0.112209  0  1.056411  0
H  H20  1  0.79048866  0.25070098  0.22956611  1  0  0.117014  0.112157  0  1.05648  0
H  H21  1  0.77043767  0.97994651  0.48026457  1  0  0.117044  0.112154  0  1.056546  0
H  H22  1  0.30048084  0.34880007  0.95167979  1  0  0.115394  0.103198  0  1.051555  0
H  H23  1  0.04832461  0.74783893  0.30048456  1  0  0.115369  0.103331  0  1.051511  0
H  H24  1  0.80048514  0.25216332  0.54832330  1  0  0.115374  0.103377  0  1.051446  0
H  H25  1  0.69951019  0.65118924  0.04832286  1  0  0.115411  0.103418  0  1.051471  0
H  H26  1  0.45167751  0.65118977  0.80048751  1  0  0.115409  0.103274  0  1.05164  0
H  H27  1  0.95168010  0.25216536  0.69951696  1  0  0.115424  0.103448  0  1.051502  0
H  H28  1  0.19951730  0.74783690  0.45167925  1  0  0.115456  0.103509  0  1.051492  0
H  H29  1  0.54831922  0.34880075  0.19951762  1  0  0.115403  0.103346  0  1.051374  0
C  C30  1  0.38388968  0.01106179  0.97896047  1  0  0.040542  0.034818  0  3.884192  0
C  C31  1  0.02104033  0.63715177  0.99002332  1  0  0.040565  0.034862  0  3.884004  0
C  C32  1  0.49002344  0.36284872  0.52103899  1  0  0.040556  0.034836  0  3.884163  0
C  C33  1  0.00997480  0.98893809  0.62717564  1  0  0.040622  0.034801  0  3.884234  0
C  C34  1  0.47896270  0.98893812  0.88388407  1  0  0.040589  0.034771  0  3.884357  0
C  C35  1  0.37282415  0.36284961  0.61611381  1  0  0.040578  0.034805  0  3.884417  0
C  C36  1  0.11611565  0.63715123  0.87282155  1  0  0.040565  0.034747  0  3.884375  0
C  C37  1  0.12717067  0.01106004  0.50997806  1  0  0.040538  0.034832  0  3.884103  0
C  C38  1  0.61611507  0.98893688  0.02103594  1  0  0.040568  0.034699  0  3.884271  0
C  C39  1  0.97896326  0.36285098  0.00997362  1  0  0.040589  0.034795  0  3.884336  0
C  C40  1  0.50997442  0.63715072  0.47896361  1  0  0.040579  0.034802  0  3.88439  0
C  C41  1  0.99002077  0.01105972  0.37282902  1  0  0.040533  0.034876  0  3.884188  0
C  C42  1  0.52103976  0.01106083  0.11610931  1  0  0.04053  0.034902  0  3.884034  0
C  C43  1  0.62717486  0.63715083  0.38388725  1  0  0.040543  0.03474  0  3.884192  0
C  C44  1  0.88388909  0.36284970  0.12717384  1  0  0.040525  0.034876  0  3.884222  0
C  C45  1  0.87282147  0.98893760  0.49002613  1  0  0.040593  0.034733  0  3.884374  0
C  C46  1  0.38995577  0.41723668  0.97271870  1  0  0.045536  0.036067  0  3.898176  0
C  C47  1  0.02728629  0.63732998  0.38995586  1  0  0.045565  0.036068  0  3.898146  0
C  C48  1  0.88995704  0.36267250  0.52728596  1  0  0.045548  0.036042  0  3.898159  0
C  C49  1  0.61004553  0.58275895  0.02728741  1  0  0.045568  0.036051  0  3.89841  0
C  C50  1  0.47271186  0.58275854  0.88995359  1  0  0.04558  0.036066  0  3.898533  0
C  C51  1  0.97271614  0.36266854  0.61004872  1  0  0.045582  0.036094  0  3.898345  0
C  C52  1  0.11004995  0.63733360  0.47271554  1  0  0.045578  0.036094  0  3.898415  0
C  C53  1  0.52728031  0.41723745  0.11004244  1  0  0.045492  0.036063  0  3.898128  0
N  N54  1  0.41661744  0.33323559  0.08338029  1  0  -0.341182  -0.168495  0  3.592208  0
N  N55  1  0.91661955  0.50000039  0.41661919  1  0  -0.341224  -0.168662  0  3.59213  0
N  N56  1  0.58337474  0.66675076  0.91662386  1  0  -0.341286  -0.168638  0  3.592561  0
N  N57  1  0.08337718  0.50000148  0.58337578  1  0  -0.341262  -0.168613  0  3.592535  0
N  N58  1  0.40343579  0.02304069  0.09656304  1  0  -0.362176  -0.19783  0  3.679818  0
N  N59  1  0.90343741  0.49999928  0.11960672  1  0  -0.362214  -0.197895  0  3.679742  0
N  N60  1  0.61960646  0.50000047  0.40343611  1  0  -0.362243  -0.197863  0  3.679782  0
N  N61  1  0.88040680  0.97696020  0.61959167  1  0  -0.362253  -0.197799  0  3.67982  0
N  N62  1  0.59655175  0.97696085  0.90344630  1  0  -0.362268  -0.197788  0  3.679809  0
N  N63  1  0.38040974  0.50000049  0.59655304  1  0  -0.362226  -0.197645  0  3.679994  0
N  N64  1  0.09655240  0.50000045  0.88040973  1  0  -0.362237  -0.19768  0  3.679981  0
N  N65  1  0.11960369  0.02303955  0.38039499  1  0  -0.362169  -0.197808  0  3.679821  0
F  F66  1  0.14252409  0.11285812  0.02966717  1  0  -0.217085  -0.533917  0  1.200212  0
F  F67  1  0.97033162  0.82780612  0.14252522  1  0  -0.217079  -0.535146  0  1.201418  0
F  F68  1  0.64252633  0.17219537  0.47033260  1  0  -0.217096  -0.535154  0  1.201384  0
F  F69  1  0.85747378  0.88714190  0.97033136  1  0  -0.21711  -0.53509  0  1.201342  0
F  F70  1  0.52966899  0.88714373  0.64252405  1  0  -0.217097  -0.533918  0  1.200203  0
F  F71  1  0.02966625  0.17219352  0.85747433  1  0  -0.217094  -0.535131  0  1.201398  0
F  F72  1  0.35747610  0.82780788  0.52966690  1  0  -0.217082  -0.535169  0  1.201472  0
F  F73  1  0.47033344  0.11286085  0.35747443  1  0  -0.217094  -0.535056  0  1.201328  0
F  F74  1  0.13184488  0.00000075  0.86815477  1  0  -0.199792  -0.499708  0  1.192151  0
F  F75  1  0.36815441  0.00000003  0.63184445  1  0  -0.199795  -0.499703  0  1.192131  0
F  F76  1  0.86815299  0.99999833  0.13184375  1  0  -0.199801  -0.49973  0  1.19219  0
F  F77  1  0.63184668  0.00000368  0.36815441  1  0  -0.1998  -0.499743  0  1.192203  0
