# generated using pymatgen
data_CuH28C40(NO2)4
_symmetry_space_group_name_H-M   'P 1'
_cell_length_a   8.00139573
_cell_length_b   8.99694216
_cell_length_c   12.31326417
_cell_angle_alpha   111.67568365
_cell_angle_beta   95.12152146
_cell_angle_gamma   96.34366543
_symmetry_Int_Tables_number   1
_chemical_formula_structural   CuH28C40(NO2)4
_chemical_formula_sum   'Cu1 H28 C40 N4 O8'
_cell_volume   810.52604736
_cell_formula_units_Z   1
loop_
 _symmetry_equiv_pos_site_id
 _symmetry_equiv_pos_as_xyz
  1  'x, y, z'
loop_
 _atom_site_type_symbol
 _atom_site_label
 _atom_site_symmetry_multiplicity
 _atom_site_fract_x
 _atom_site_fract_y
 _atom_site_fract_z
 _atom_site_occupancy
 _atom_site_pbe_cm5_charge
 _atom_site_pbe_ddec_charge
 _atom_site_pbe_ddec_spin_density
 _atom_site_pbe_ddec_sum_bond_order
 _atom_site_pbe_magmom
Cu  Cu0  1  0.99999901  0.99999960  0.99999941  1  0.754043  0.774706  -0.717757  2.182487  -0.556
H  H1  1  0.97938585  0.70133345  0.17732715  1  0.293155  0.353762  8.2e-05  0.999867  0.0
H  H2  1  0.02061733  0.29866853  0.82267395  1  0.293186  0.353778  8.2e-05  0.999836  0.0
H  H3  1  0.93187737  0.19904754  0.34348999  1  0.101658  0.103521  -2.1e-05  1.041455  0.0
H  H4  1  0.06812352  0.80095566  0.65651376  1  0.101664  0.103531  -2.1e-05  1.041462  0.0
H  H5  1  0.87991342  0.27047254  0.55197168  1  0.100647  0.105238  -1e-06  1.039029  0.0
H  H6  1  0.12008768  0.72953187  0.44803322  1  0.100662  0.105258  -1e-06  1.03906  0.0
H  H7  1  0.72406923  0.06166056  0.60930236  1  0.098508  0.094467  3.6e-05  1.015412  0.0
H  H8  1  0.27592582  0.93833786  0.39069650  1  0.098507  0.094409  3.6e-05  1.015426  0.0
H  H9  1  0.61872640  0.78583744  0.45758334  1  0.095483  0.097532  -6.6e-05  1.040974  0.0
H  H10  1  0.38126926  0.21416462  0.54241411  1  0.095516  0.09757  -6.6e-05  1.04096  0.0
H  H11  1  0.72249508  0.27446007  0.11538410  1  0.101208  0.105046  7.6e-05  1.034259  0.0
H  H12  1  0.27750558  0.72554196  0.88461363  1  0.101212  0.105031  7.6e-05  1.034231  0.0
H  H13  1  0.41841893  0.23240470  0.02702882  1  0.097986  0.097992  7.8e-05  1.023664  0.0
H  H14  1  0.58158028  0.76759612  0.97297012  1  0.098004  0.097974  7.8e-05  1.023731  0.0
H  H15  1  0.25927956  0.46590643  0.07941737  1  0.101667  0.107124  -2.3e-05  1.005309  0.0
H  H16  1  0.74071674  0.53409196  0.92058319  1  0.101681  0.107128  -2.3e-05  1.005332  0.0
H  H17  1  0.40412604  0.73883351  0.21412442  1  0.097212  0.096552  -2e-06  1.027995  0.0
H  H18  1  0.59587067  0.26116730  0.78587682  1  0.097215  0.096534  -2e-06  1.028015  0.0
H  H19  1  0.81352135  0.58158380  0.54852821  1  0.115101  0.130831  -2e-05  1.000219  0.0
H  H20  1  0.18648100  0.41841335  0.45147071  1  0.115122  0.13083  -2e-05  1.000224  0.0
H  H21  1  0.30810849  0.64330708  0.63736293  1  0.110051  0.120364  -2.6e-05  1.037797  0.0
H  H22  1  0.69189366  0.35668885  0.36263647  1  0.110066  0.120439  -2.6e-05  1.037886  0.0
H  H23  1  0.87097587  0.68972092  0.75911685  1  0.13823  0.115132  -8.7e-05  1.050133  -0.001
H  H24  1  0.12902210  0.31027989  0.24088364  1  0.138237  0.115133  -8.7e-05  1.050073  -0.001
H  H25  1  0.65333901  0.10957591  0.92940934  1  0.121941  0.117704  -0.000299  1.026429  -0.001
H  H26  1  0.34665854  0.89042249  0.07058885  1  0.121951  0.117768  -0.000299  1.026387  -0.001
H  H27  1  0.44051453  0.91366313  0.72349043  1  0.121249  0.121685  -0.000546  1.054769  -0.001
H  H28  1  0.55948575  0.08632918  0.27650787  1  0.12124  0.121678  -0.000546  1.054794  -0.001
C  C29  1  0.72573367  0.83156182  0.31720982  1  -0.004179  0.045225  -0.001592  3.966804  -0.002
C  C30  1  0.27426575  0.16844021  0.68278865  1  -0.004218  0.045194  -0.001592  3.966865  -0.002
C  C31  1  0.81555745  0.95037533  0.28580862  1  -0.020612  -0.093575  -0.006454  3.960258  -0.007
C  C32  1  0.18444282  0.04962424  0.71419247  1  -0.020575  -0.093466  -0.006454  3.960196  -0.007
C  C33  1  0.86829169  0.10784684  0.37079294  1  -0.088397  -0.101823  -0.001997  3.979112  -0.002
C  C34  1  0.13170794  0.89215638  0.62920831  1  -0.088428  -0.101915  -0.001998  3.979269  -0.002
C  C35  1  0.83775975  0.14817486  0.48699531  1  -0.09163  -0.08163  0.000814  3.995051  0.001
C  C36  1  0.16223904  0.85183079  0.51300574  1  -0.091606  -0.081635  0.000814  3.995147  0.001
C  C37  1  0.74959957  0.03126622  0.51868654  1  -0.084121  -0.055044  -0.002223  3.990181  -0.002
C  C38  1  0.25039775  0.96873825  0.48131167  1  -0.084125  -0.054923  -0.002224  3.990184  -0.002
C  C39  1  0.69221610  0.87596381  0.43404236  1  -0.090948  -0.130248  -0.000551  3.965557  -0.001
C  C40  1  0.30778228  0.12403943  0.56595801  1  -0.090986  -0.130349  -0.000551  3.965729  -0.001
C  C41  1  0.64931351  0.66556125  0.23161317  1  -0.006042  0.046719  -2.5e-05  3.971195  0.0
C  C42  1  0.35068550  0.33443834  0.76838624  1  -0.006043  0.046704  -2.5e-05  3.971202  0.0
C  C43  1  0.73755523  0.53210325  0.20275721  1  -0.019162  -0.09957  -5.3e-05  3.983775  0.0
C  C44  1  0.26244565  0.46789998  0.79724167  1  -0.01915  -0.099611  -5.3e-05  3.98382  0.0
C  C45  1  0.65289477  0.37655374  0.13140321  1  -0.090856  -0.110632  4.2e-05  3.99463  0.0
C  C46  1  0.34710590  0.62344829  0.86859371  1  -0.090908  -0.110638  4.2e-05  3.994608  0.0
C  C47  1  0.48274547  0.35305329  0.08440561  1  -0.095373  -0.08634  3.4e-05  4.024193  0.0
C  C48  1  0.51725499  0.64694751  0.91559421  1  -0.095355  -0.086258  3.4e-05  4.024189  0.0
C  C49  1  0.39331881  0.48391296  0.11382835  1  -0.086468  -0.061774  1.7e-05  3.992242  0.0
C  C50  1  0.60667749  0.51608543  0.88617220  1  -0.086543  -0.061926  1.7e-05  3.992467  0.0
C  C51  1  0.47561935  0.63774543  0.18833664  1  -0.089134  -0.124875  -1e-06  3.959794  0.0
C  C52  1  0.52437736  0.36225539  0.81166298  1  -0.089067  -0.124698  -1e-06  3.959868  0.0
C  C53  1  0.86047791  0.91783264  0.16467128  1  0.209342  0.571329  0.00152  4.183592  0.003
C  C54  1  0.13952298  0.08217057  0.83533085  1  0.209381  0.571319  0.001519  4.183556  0.003
C  C55  1  0.91943406  0.54518723  0.25101407  1  0.233527  0.588755  1e-06  4.131054  0.0
C  C56  1  0.08056830  0.45480991  0.74898648  1  0.233551  0.588773  0.0  4.130905  0.0
C  C57  1  0.56852240  0.62885193  0.60413192  1  0.097317  0.160211  -0.000622  4.005203  -0.001
C  C58  1  0.43147892  0.37113916  0.39586692  1  0.097293  0.160243  -0.000622  4.005344  -0.001
C  C59  1  0.67640174  0.54546928  0.52808725  1  -0.079491  -0.142188  -2e-06  3.962436  0.0
C  C60  1  0.32360001  0.45452423  0.47191227  1  -0.079552  -0.142272  -2e-06  3.962416  0.0
C  C61  1  0.39247225  0.58337136  0.57635713  1  -0.083612  -0.145672  -0.00017  3.972819  0.0
C  C62  1  0.60752866  0.41661731  0.42363941  1  -0.083658  -0.145849  -0.00017  3.972979  0.0
C  C63  1  0.78605506  0.77994084  0.77919835  1  0.151375  0.107556  0.002003  3.859689  0.0
C  C64  1  0.21394584  0.22005510  0.22080098  1  0.15139  0.107619  0.002004  3.85971  0.0
C  C65  1  0.66667022  0.99336281  0.86416516  1  0.002256  -0.028634  -0.00083  3.980553  -0.001
C  C66  1  0.33333214  0.00663432  0.13583539  1  0.002247  -0.028743  -0.00083  3.98057  -0.001
C  C67  1  0.56016708  0.89785247  0.76291542  1  0.00753  -0.086072  -0.002296  3.89352  -0.002
C  C68  1  0.43983152  0.10214469  0.23708574  1  0.007545  -0.085983  -0.002296  3.893675  -0.002
N  N69  1  0.63718477  0.76344343  0.70981698  1  -0.222134  0.013545  -0.001457  3.792844  -0.002
N  N70  1  0.36281613  0.23655251  0.29018234  1  -0.222137  0.01341  -0.001457  3.793247  -0.002
N  N71  1  0.80628090  0.91853351  0.87308665  1  -0.379931  -0.29269  -0.050015  3.66952  -0.065
N  N72  1  0.19372041  0.08146485  0.12691336  1  -0.379942  -0.292682  -0.050017  3.669517  -0.065
O  O73  1  0.84648887  0.02998494  0.12483052  1  -0.315628  -0.522407  -0.076309  2.302649  -0.107
O  O74  1  0.15351306  0.97001705  0.87517133  1  -0.315646  -0.522395  -0.076307  2.302559  -0.107
O  O75  1  0.91779224  0.78930697  0.10772581  1  -0.308151  -0.544433  -9.9e-05  2.233466  -0.002
O  O76  1  0.08221136  0.21069745  0.89227436  1  -0.308161  -0.544421  -9.9e-05  2.233492  -0.002
O  O77  1  0.03443898  0.64401840  0.22914580  1  -0.325011  -0.47873  6.7e-05  2.302711  0.0
O  O78  1  0.96556190  0.35598482  0.77085470  1  -0.325041  -0.478746  6.7e-05  2.302702  0.0
O  O79  1  0.96092482  0.46307599  0.30758330  1  -0.291558  -0.501229  -0.000102  2.150757  0.0
O  O80  1  0.03907313  0.53692483  0.69241476  1  -0.291581  -0.501244  -0.000102  2.150534  0.0
