# generated using pymatgen
data_NdPH15C21NO11
_symmetry_space_group_name_H-M   'P 1'
_cell_length_a   11.79357368
_cell_length_b   14.59596990
_cell_length_c   17.67660366
_cell_angle_alpha   89.99996505
_cell_angle_beta   89.99985777
_cell_angle_gamma   91.99844672
_symmetry_Int_Tables_number   1
_chemical_formula_structural   NdPH15C21NO11
_chemical_formula_sum   'Nd4 P4 H60 C84 N4 O44'
_cell_volume   3040.97589875
_cell_formula_units_Z   4
loop_
 _symmetry_equiv_pos_site_id
 _symmetry_equiv_pos_as_xyz
  1  'x, y, z'
loop_
 _atom_site_type_symbol
 _atom_site_label
 _atom_site_symmetry_multiplicity
 _atom_site_fract_x
 _atom_site_fract_y
 _atom_site_fract_z
 _atom_site_occupancy
 _atom_site_pbe_bader_charge
 _atom_site_pbe_bader_spin_density
 _atom_site_pbe_cm5_charge
 _atom_site_pbe_ddec_charge
 _atom_site_pbe_ddec_spin_density
 _atom_site_pbe_ddec_sum_bond_order
 _atom_site_pbe_magmom
Nd  Nd0  1  0.07151186  0.59217791  0.92779624  1  2.252444  0  1.525816  2.115614  0  2.175214  0
Nd  Nd1  1  0.42849688  0.90782382  0.42779710  1  2.2526  0  1.525824  2.115582  0  2.175201  0
Nd  Nd2  1  0.92849554  0.40782230  0.07220305  1  2.252585  0  1.525813  2.115608  0  2.175145  0
Nd  Nd3  1  0.57150390  0.09218048  0.57220275  1  2.252579  0  1.525785  2.115622  0  2.175089  0
P  P4  1  0.33415045  0.75306581  0.91548309  1  2.78023  0  0.281681  0.879665  0  4.794037  0
P  P5  1  0.16585410  0.74693591  0.41548447  1  2.780232  0  0.28154  0.879399  0  4.794199  0
P  P6  1  0.66585348  0.24693233  0.08451732  1  2.780213  0  0.28163  0.879515  0  4.794397  0
P  P7  1  0.83414753  0.25306839  0.58451764  1  2.780112  0  0.281665  0.879595  0  4.794264  0
H  H8  1  0.11083380  0.13561196  0.17395071  1  0.651183  0  0.307959  0.355532  0  0.972522  0
H  H9  1  0.38915887  0.36438248  0.67395541  1  0.651088  0  0.307971  0.355607  0  0.972437  0
H  H10  1  0.88915641  0.86438203  0.82604574  1  0.651114  0  0.307972  0.355623  0  0.97244  0
H  H11  1  0.61082901  0.63561699  0.32604896  1  0.651127  0  0.307954  0.355542  0  0.972509  0
H  H12  1  0.17776235  0.48250094  0.77419710  1  0.662215  0  0.303631  0.415534  0  0.906215  0
H  H13  1  0.32223775  0.01749823  0.27419437  1  0.662197  0  0.303658  0.415686  0  0.906048  0
H  H14  1  0.82223406  0.51749992  0.22580332  1  0.662225  0  0.303594  0.415489  0  0.906286  0
H  H15  1  0.67776194  0.98249990  0.72580491  1  0.662187  0  0.303654  0.415601  0  0.906128  0
H  H16  1  0.23275209  0.48272767  0.85563974  1  0.626645  0  0.316485  0.406577  0  0.899629  0
H  H17  1  0.26725027  0.01727214  0.35563879  1  0.626697  0  0.316461  0.406602  0  0.899586  0
H  H18  1  0.76724858  0.51727389  0.14435955  1  0.626646  0  0.316529  0.406668  0  0.899487  0
H  H19  1  0.73275032  0.98272737  0.64436162  1  0.626671  0  0.316503  0.406655  0  0.899528  0
H  H20  1  0.56898930  0.79971108  0.86132033  1  0.091621  0  0.101021  0.10555  0  1.037431  0
H  H21  1  0.93101374  0.70028659  0.36131960  1  0.091519  0  0.101019  0.105555  0  1.037434  0
H  H22  1  0.43101633  0.20028707  0.13868065  1  0.091576  0  0.10101  0.105545  0  1.03744  0
H  H23  1  0.06898765  0.29971155  0.63867969  1  0.091644  0  0.101043  0.105575  0  1.037428  0
H  H24  1  0.75244384  0.73104514  0.89318209  1  0.112772  0  0.107949  0.112904  0  1.014896  0
H  H25  1  0.74755916  0.76895456  0.39318445  1  0.11281  0  0.10793  0.112873  0  1.014911  0
H  H26  1  0.24756097  0.26895370  0.10681776  1  0.112803  0  0.107919  0.112874  0  1.014961  0
H  H27  1  0.25244151  0.23104700  0.60681483  1  0.112808  0  0.107926  0.11287  0  1.014938  0
H  H28  1  0.58481062  0.54760681  0.05043328  1  0.108366  0  0.107686  0.109251  0  1.009318  0
H  H29  1  0.91519550  0.95239662  0.55043223  1  0.108425  0  0.107685  0.109238  0  1.009348  0
H  H30  1  0.41519350  0.45239614  0.94956714  1  0.108441  0  0.107682  0.109217  0  1.009364  0
H  H31  1  0.08480607  0.04760632  0.44956592  1  0.108363  0  0.107698  0.109208  0  1.009367  0
H  H32  1  0.39863823  0.61482310  0.01918872  1  0.107809  0  0.114703  0.11645  0  0.990342  0
H  H33  1  0.10136791  0.88518170  0.51918484  1  0.107733  0  0.11473  0.116489  0  0.990347  0
H  H34  1  0.60136493  0.38517710  0.98081508  1  0.107786  0  0.114718  0.116474  0  0.990377  0
H  H35  1  0.89863366  0.11482123  0.48081331  1  0.107756  0  0.114707  0.116476  0  0.990358  0
H  H36  1  0.46656965  0.84100976  0.03781097  1  0.117395  0  0.106876  0.108188  0  1.007232  0
H  H37  1  0.03343041  0.65899296  0.53781410  1  0.117212  0  0.10686  0.108179  0  1.007271  0
H  H38  1  0.53342845  0.15899111  0.96218775  1  0.11735  0  0.106863  0.108162  0  1.007257  0
H  H39  1  0.96656777  0.34100997  0.46218575  1  0.117289  0  0.10685  0.108156  0  1.007202  0
H  H40  1  0.41819173  0.96107366  0.13154788  1  0.0821  0  0.110218  0.112802  0  1.002298  0
H  H41  1  0.08180194  0.53892621  0.63155042  1  0.081879  0  0.110174  0.112748  0  1.002311  0
H  H42  1  0.58180206  0.03892514  0.86845141  1  0.081909  0  0.110184  0.11277  0  1.002274  0
H  H43  1  0.91818776  0.46107668  0.36844943  1  0.082072  0  0.110216  0.112799  0  1.002321  0
H  H44  1  0.09032951  0.98483811  0.02830942  1  0.141356  0  0.11294  0.116319  0  1.000686  0
H  H45  1  0.40966598  0.51515500  0.52831030  1  0.141497  0  0.112924  0.116372  0  1.000654  0
H  H46  1  0.90966748  0.01515590  0.97168873  1  0.141406  0  0.112897  0.11634  0  1.000685  0
H  H47  1  0.59032441  0.48484379  0.47169238  1  0.141222  0  0.112856  0.116208  0  1.000707  0
H  H48  1  0.13579320  0.86420362  0.93502035  1  0.119919  0  0.117148  0.126311  0  1.00249  0
H  H49  1  0.36420503  0.63578985  0.43502259  1  0.117041  0  0.117164  0.12637  0  1.002448  0
H  H50  1  0.86420642  0.13579246  0.06497610  1  0.117279  0  0.11716  0.126374  0  1.002455  0
H  H51  1  0.63578952  0.36420690  0.56497952  1  0.120209  0  0.117124  0.126325  0  1.002486  0
H  H52  1  0.28921757  0.66517847  0.77563672  1  0.107132  0  0.110909  0.113866  0  1.017335  0
H  H53  1  0.21078658  0.83482132  0.27563911  1  0.107089  0  0.110903  0.113864  0  1.017345  0
H  H54  1  0.71078809  0.33482037  0.22436087  1  0.107111  0  0.110892  0.113809  0  1.017399  0
H  H55  1  0.78921584  0.16518162  0.72436131  1  0.107137  0  0.110915  0.11386  0  1.017363  0
H  H56  1  0.33206568  0.71140111  0.64129582  1  0.086383  0  0.105794  0.109938  0  1.021523  0
H  H57  1  0.16793900  0.78859947  0.14129830  1  0.086308  0  0.105811  0.109951  0  1.021563  0
H  H58  1  0.66794090  0.28859978  0.35870233  1  0.086368  0  0.105786  0.109938  0  1.021539  0
H  H59  1  0.83206419  0.21140141  0.85870268  1  0.086392  0  0.105806  0.10995  0  1.021555  0
H  H60  1  0.44039304  0.98057870  0.71698384  1  0.124726  0  0.114253  0.113344  0  1.038179  0
H  H61  1  0.05960618  0.51941975  0.21698607  1  0.124707  0  0.114242  0.113304  0  1.038222  0
H  H62  1  0.55960668  0.01942012  0.28301770  1  0.124706  0  0.114279  0.113326  0  1.038256  0
H  H63  1  0.94039611  0.48057976  0.78301434  1  0.124697  0  0.114246  0.113324  0  1.038262  0
H  H64  1  0.40035987  0.93577243  0.85022724  1  0.076203  0  0.105075  0.100338  0  1.006371  0
H  H65  1  0.09964403  0.56422798  0.35022939  1  0.076014  0  0.105094  0.100346  0  1.006379  0
H  H66  1  0.59964158  0.06422708  0.14977600  1  0.07626  0  0.1051  0.10039  0  1.006335  0
H  H67  1  0.90035842  0.43577565  0.64977103  1  0.076122  0  0.105082  0.100369  0  1.006384  0
C  C68  1  0.47208680  0.71211737  0.93915496  1  -0.636605  0  -0.022715  -0.150512  0  4.006689  0
C  C69  1  0.02791509  0.78788365  0.43915428  1  -0.636579  0  -0.022698  -0.150451  0  4.006703  0
C  C70  1  0.52791799  0.28788078  0.06084715  1  -0.636517  0  -0.022658  -0.150438  0  4.006816  0
C  C71  1  0.97208399  0.21212065  0.56084444  1  -0.636347  0  -0.022664  -0.15046  0  4.006763  0
C  C72  1  0.57149903  0.74543799  0.90359657  1  -0.023297  0  -0.082119  -0.083366  0  3.984611  0
C  C73  1  0.92850391  0.75456101  0.40359863  1  -0.023163  0  -0.082157  -0.083454  0  3.984613  0
C  C74  1  0.42850578  0.25456084  0.09640385  1  -0.023287  0  -0.082045  -0.083309  0  3.9846  0
C  C75  1  0.07149671  0.24543918  0.59640178  1  -0.023321  0  -0.082147  -0.083422  0  3.984742  0
C  C76  1  0.67471972  0.70713561  0.92112361  1  -0.009876  0  -0.075374  -0.071575  0  3.926628  0
C  C77  1  0.82528148  0.79286406  0.42112583  1  -0.009829  0  -0.075343  -0.071515  0  3.926377  0
C  C78  1  0.32528427  0.29286391  0.07887624  1  -0.009833  0  -0.075398  -0.071604  0  3.926624  0
C  C79  1  0.17471659  0.20713612  0.57887458  1  -0.00982  0  -0.07534  -0.0715  0  3.926663  0
C  C80  1  0.67963261  0.63563477  0.97374233  1  -0.028779  0  -0.008126  -0.025408  0  3.930157  0
C  C81  1  0.82037271  0.86436693  0.47374396  1  -0.028795  0  -0.008152  -0.025379  0  3.929987  0
C  C82  1  0.32037135  0.36436407  0.02625752  1  -0.028743  0  -0.008149  -0.025423  0  3.930161  0
C  C83  1  0.17963061  0.13563738  0.52625645  1  -0.028805  0  -0.00815  -0.025521  0  3.930149  0
C  C84  1  0.58028598  0.60362809  0.00998998  1  -0.045574  0  -0.078135  -0.088621  0  3.960338  0
C  C85  1  0.91972026  0.89637469  0.50998782  1  -0.045641  0  -0.078136  -0.088665  0  3.960409  0
C  C86  1  0.41971978  0.39637349  0.99001270  1  -0.045767  0  -0.078172  -0.08866  0  3.96031  0
C  C87  1  0.08028218  0.10362894  0.49000976  1  -0.045701  0  -0.078185  -0.088527  0  3.960313  0
C  C88  1  0.47666136  0.64141603  0.99284006  1  -0.048518  0  -0.073661  -0.070631  0  3.96908  0
C  C89  1  0.02334382  0.85858770  0.49283935  1  -0.0486  0  -0.073652  -0.070588  0  3.969072  0
C  C90  1  0.52334265  0.35858418  0.00716262  1  -0.048556  0  -0.073666  -0.070583  0  3.969118  0
C  C91  1  0.97665783  0.14141730  0.50715937  1  -0.048638  0  -0.073643  -0.070646  0  3.969084  0
C  C92  1  0.79071598  0.59133286  0.98836044  1  1.606375  0  0.237726  0.649085  0  4.152088  0
C  C93  1  0.70928577  0.90866538  0.48835997  1  1.606457  0  0.237489  0.648648  0  4.152191  0
C  C94  1  0.20928713  0.40866596  0.01164110  1  1.606457  0  0.237552  0.648804  0  4.152078  0
C  C95  1  0.29071228  0.09133412  0.51163762  1  1.606427  0  0.237605  0.648959  0  4.152289  0
C  C96  1  0.30499645  0.84558585  0.97990667  1  -0.635147  0  -0.01351  -0.136525  0  3.970377  0
C  C97  1  0.19500523  0.65441375  0.47991031  1  -0.634781  0  -0.01351  -0.136401  0  3.970334  0
C  C98  1  0.69500419  0.15441502  0.02008978  1  -0.634834  0  -0.013535  -0.136492  0  3.970414  0
C  C99  1  0.80499022  0.34558436  0.52009124  1  -0.635018  0  -0.01347  -0.136442  0  3.97033  0
C  C100  1  0.38447707  0.87290404  0.03525567  1  -0.070339  0  -0.076233  -0.079008  0  3.990418  0
C  C101  1  0.11552118  0.62709525  0.53525755  1  -0.070248  0  -0.076223  -0.079081  0  3.990443  0
C  C102  1  0.61552008  0.12709409  0.96474418  1  -0.070397  0  -0.07617  -0.07896  0  3.990389  0
C  C103  1  0.88447351  0.37290493  0.46474173  1  -0.0703  0  -0.076187  -0.078864  0  3.990379  0
C  C104  1  0.35782017  0.93995208  0.08772956  1  -0.030565  0  -0.076263  -0.084303  0  3.956705  0
C  C105  1  0.14217276  0.56004646  0.58773199  1  -0.030629  0  -0.076229  -0.084189  0  3.956739  0
C  C106  1  0.64217351  0.06004397  0.91226972  1  -0.030619  0  -0.076293  -0.084307  0  3.956765  0
C  C107  1  0.85781863  0.43995645  0.41226956  1  -0.030429  0  -0.076349  -0.084543  0  3.956844  0
C  C108  1  0.25185286  0.98031558  0.08523425  1  -0.02105  0  -0.011149  -0.044087  0  3.981314  0
C  C109  1  0.24814003  0.51968159  0.58523596  1  -0.020904  0  -0.011141  -0.044036  0  3.981561  0
C  C110  1  0.74814259  0.01968254  0.91476334  1  -0.02096  0  -0.011168  -0.044101  0  3.98142  0
C  C111  1  0.75184779  0.48031651  0.41476332  1  -0.021725  0  -0.011109  -0.044019  0  3.981256  0
C  C112  1  0.17262794  0.95331601  0.02950812  1  -0.058572  0  -0.069869  -0.077171  0  3.923693  0
C  C113  1  0.32736668  0.54667641  0.52951081  1  -0.058714  0  -0.069699  -0.077123  0  3.923782  0
C  C114  1  0.82736821  0.04667800  0.97048947  1  -0.058551  0  -0.069713  -0.077095  0  3.923849  0
C  C115  1  0.67262364  0.45332032  0.47049130  1  -0.058199  0  -0.069725  -0.076927  0  3.923642  0
C  C116  1  0.19873306  0.88621160  0.97701875  1  0.063229  0  -0.061169  -0.049907  0  3.925314  0
C  C117  1  0.30126763  0.61378389  0.47702336  1  0.065999  0  -0.061308  -0.050104  0  3.925437  0
C  C118  1  0.80126653  0.11378379  0.02297771  1  0.065728  0  -0.061276  -0.050088  0  3.925471  0
C  C119  1  0.69872960  0.38621629  0.52298101  1  0.062791  0  -0.061289  -0.050146  0  3.925423  0
C  C120  1  0.22630415  0.05148754  0.14273367  1  1.52203  0  0.240404  0.586898  0  4.113411  0
C  C121  1  0.27368780  0.44850761  0.64273512  1  1.522104  0  0.240273  0.586647  0  4.113891  0
C  C122  1  0.77368346  0.94850507  0.85726222  1  1.522197  0  0.240332  0.586832  0  4.11387  0
C  C123  1  0.72630272  0.55149460  0.35726359  1  1.522467  0  0.240256  0.586767  0  4.113677  0
C  C124  1  0.34545351  0.79707882  0.82078785  1  -0.606312  0  -0.018297  -0.148588  0  4.006177  0
C  C125  1  0.15454882  0.70292229  0.32078813  1  -0.606313  0  -0.018301  -0.1485  0  4.006083  0
C  C126  1  0.65454878  0.20292069  0.17921257  1  -0.606149  0  -0.018272  -0.148563  0  4.006219  0
C  C127  1  0.84545442  0.29707996  0.67921172  1  -0.606342  0  -0.018368  -0.148684  0  4.006434  0
C  C128  1  0.32343351  0.73376107  0.76221498  1  -0.059061  0  -0.071515  -0.066449  0  3.949928  0
C  C129  1  0.17657324  0.76623874  0.26221463  1  -0.059151  0  -0.071481  -0.066439  0  3.949969  0
C  C130  1  0.67657218  0.26623846  0.23778600  1  -0.059106  0  -0.0715  -0.06635  0  3.949881  0
C  C131  1  0.82343003  0.23376420  0.73778522  1  -0.059022  0  -0.071513  -0.066387  0  3.949869  0
C  C132  1  0.34690067  0.75913792  0.68794672  1  0.051953  0  -0.072491  -0.074927  0  3.929315  0
C  C133  1  0.15310460  0.74086057  0.18794756  1  0.052037  0  -0.072523  -0.074891  0  3.92952  0
C  C134  1  0.65310655  0.24085749  0.31205369  1  0.051977  0  -0.072467  -0.074926  0  3.929361  0
C  C135  1  0.84690031  0.25914101  0.81205286  1  0.051607  0  -0.072489  -0.074908  0  3.929374  0
C  C136  1  0.39209337  0.84715984  0.67182592  1  -0.079995  0  -0.00282  -0.016931  0  3.931584  0
C  C137  1  0.10790868  0.65284140  0.17182687  1  -0.080235  0  -0.002887  -0.017168  0  3.931879  0
C  C138  1  0.60790640  0.15284035  0.32817506  1  -0.080375  0  -0.00288  -0.017039  0  3.931768  0
C  C139  1  0.89209541  0.34716086  0.82817297  1  -0.079799  0  -0.002849  -0.017091  0  3.931824  0
C  C140  1  0.40912873  0.91135178  0.72997507  1  -0.002994  0  -0.068317  -0.073485  0  3.915587  0
C  C141  1  0.09087552  0.58864599  0.22997552  1  -0.002714  0  -0.068231  -0.073231  0  3.915507  0
C  C142  1  0.59087513  0.08864431  0.27002704  1  -0.002676  0  -0.06831  -0.073364  0  3.915609  0
C  C143  1  0.90912598  0.41135489  0.77002320  1  -0.002743  0  -0.068296  -0.073307  0  3.915553  0
C  C144  1  0.38606931  0.88628333  0.80462292  1  -0.060213  0  -0.076767  -0.075544  0  3.991821  0
C  C145  1  0.11393557  0.61371643  0.30462332  1  -0.060045  0  -0.07681  -0.075688  0  3.991768  0
C  C146  1  0.61393467  0.11371619  0.19538032  1  -0.060299  0  -0.076796  -0.075651  0  3.991871  0
C  C147  1  0.88606685  0.38628651  0.69537540  1  -0.060282  0  -0.076725  -0.075618  0  3.991873  0
C  C148  1  0.42117793  0.86971310  0.59172962  1  1.578963  0  0.220148  0.62135  0  4.174624  0
C  C149  1  0.07882509  0.63028341  0.09173346  1  1.578919  0  0.220188  0.621429  0  4.174523  0
C  C150  1  0.57882426  0.13028367  0.40826853  1  1.578921  0  0.220118  0.621408  0  4.174608  0
C  C151  1  0.92117885  0.36971473  0.90826865  1  1.578879  0  0.220152  0.62132  0  4.174652  0
N  N152  1  0.97415745  0.72048147  0.81413901  1  0.861509  0  0.089768  0.72919  0  4.424047  0
N  N153  1  0.52584246  0.77951829  0.31414399  1  0.86198  0  0.089708  0.729187  0  4.424102  0
N  N154  1  0.02584302  0.27951461  0.18585575  1  0.861584  0  0.089638  0.7291  0  4.424193  0
N  N155  1  0.47415744  0.22048533  0.68586038  1  0.861538  0  0.089625  0.729066  0  4.424389  0
O  O156  1  0.24768840  0.67468215  0.91932442  1  -1.438887  0  -0.447628  -0.750284  0  2.362033  0
O  O157  1  0.25231603  0.82531683  0.41932675  1  -1.438877  0  -0.447465  -0.750095  0  2.36205  0
O  O158  1  0.75231294  0.32531462  0.08067543  1  -1.43889  0  -0.44759  -0.750204  0  2.362039  0
O  O159  1  0.74768631  0.17468405  0.58067650  1  -1.438761  0  -0.447604  -0.750226  0  2.362002  0
O  O160  1  0.78921747  0.52099811  0.03144813  1  -1.215271  0  -0.382916  -0.669441  0  2.279499  0
O  O161  1  0.71078276  0.97900462  0.53145364  1  -1.21528  0  -0.382803  -0.669233  0  2.279136  0
O  O162  1  0.21078572  0.47900277  0.96854889  1  -1.215163  0  -0.382854  -0.669318  0  2.27923  0
O  O163  1  0.28921645  0.02100310  0.46854847  1  -1.215109  0  -0.382836  -0.66934  0  2.279606  0
O  O164  1  0.87780011  0.62622764  0.95597292  1  -1.196691  0  -0.394341  -0.663226  0  2.312689  0
O  O165  1  0.62220963  0.87377683  0.45597374  1  -1.196725  0  -0.394193  -0.662943  0  2.312921  0
O  O166  1  0.12220655  0.37377531  0.04402693  1  -1.196732  0  -0.394216  -0.663032  0  2.312817  0
O  O167  1  0.37779796  0.12622819  0.54402554  1  -1.196728  0  -0.394299  -0.66316  0  2.312741  0
O  O168  1  0.12347123  0.08480113  0.13585007  1  -1.153478  0  -0.323177  -0.469029  0  2.312274  0
O  O169  1  0.37652240  0.41519267  0.63585363  1  -1.15325  0  -0.323222  -0.469151  0  2.312325  0
O  O170  1  0.87652144  0.91519081  0.86414808  1  -1.153294  0  -0.323217  -0.469181  0  2.312162  0
O  O171  1  0.62346633  0.58480680  0.36414961  1  -1.153473  0  -0.323121  -0.469008  0  2.311981  0
O  O172  1  0.29560247  0.07720047  0.19176508  1  -1.174663  0  -0.293765  -0.522203  0  2.169061  0
O  O173  1  0.20439021  0.42279601  0.69176270  1  -1.174874  0  -0.293701  -0.521993  0  2.169335  0
O  O174  1  0.70439219  0.92279902  0.80823873  1  -1.17494  0  -0.293674  -0.522034  0  2.169772  0
O  O175  1  0.79559687  0.57720482  0.30823714  1  -1.174712  0  -0.293672  -0.52206  0  2.169496  0
O  O176  1  0.46220547  0.95013700  0.57491186  1  -1.225268  0  -0.437952  -0.765769  0  2.429494  0
O  O177  1  0.03779442  0.54986500  0.07491637  1  -1.225215  0  -0.43794  -0.765747  0  2.429683  0
O  O178  1  0.53779700  0.04986731  0.42509082  1  -1.225255  0  -0.43794  -0.765798  0  2.42976  0
O  O179  1  0.96220710  0.45013657  0.92508461  1  -1.225247  0  -0.437925  -0.765732  0  2.429502  0
O  O180  1  0.40283175  0.80985371  0.54104062  1  -1.172588  0  -0.365676  -0.59633  0  2.20492  0
O  O181  1  0.09717839  0.69014698  0.04104213  1  -1.172436  0  -0.365728  -0.596385  0  2.20457  0
O  O182  1  0.59717843  0.19015268  0.45895867  1  -1.172526  0  -0.365638  -0.596348  0  2.204623  0
O  O183  1  0.90282395  0.30985391  0.95895828  1  -1.172463  0  -0.365692  -0.59628  0  2.204819  0
O  O184  1  0.98201270  0.63556643  0.79851272  1  -0.574529  0  -0.226399  -0.508952  0  1.976806  0
O  O185  1  0.51799148  0.86443267  0.29851654  1  -0.574515  0  -0.226359  -0.508955  0  1.976833  0
O  O186  1  0.01798943  0.36442897  0.20148430  1  -0.574376  0  -0.226311  -0.508934  0  1.976951  0
O  O187  1  0.48201264  0.13557028  0.70148783  1  -0.574445  0  -0.226321  -0.508913  0  1.976847  0
O  O188  1  0.02794210  0.75166111  0.87167403  1  -0.555828  0  -0.21642  -0.498772  0  2.019377  0
O  O189  1  0.47206174  0.74833997  0.37167999  1  -0.555941  0  -0.216419  -0.498776  0  2.019458  0
O  O190  1  0.97206268  0.24833704  0.12831960  1  -0.555882  0  -0.216407  -0.498756  0  2.019406  0
O  O191  1  0.52793646  0.25166365  0.62832269  1  -0.555922  0  -0.216415  -0.498725  0  2.019558  0
O  O192  1  0.91424296  0.77146422  0.77458337  1  -0.532964  0  -0.165541  -0.399441  0  1.925598  0
O  O193  1  0.58575190  0.72853281  0.27458658  1  -0.533345  0  -0.165508  -0.399398  0  1.925647  0
O  O194  1  0.08575318  0.22852979  0.22541195  1  -0.533088  0  -0.165505  -0.399378  0  1.925637  0
O  O195  1  0.41424792  0.27146875  0.72541609  1  -0.532972  0  -0.165475  -0.399391  0  1.925706  0
O  O196  1  0.18396291  0.51735824  0.82211749  1  -1.275659  0  -0.625805  -0.844251  0  2.014944  0
O  O197  1  0.31604451  0.98264289  0.32211624  1  -1.275756  0  -0.625827  -0.844448  0  2.014636  0
O  O198  1  0.81603943  0.48264264  0.17788236  1  -1.275723  0  -0.625825  -0.844314  0  2.014906  0
O  O199  1  0.68395950  0.01735731  0.67788305  1  -1.275703  0  -0.62587  -0.844441  0  2.014757  0
