# generated using pymatgen
data_ZnH9C15N2O4F3
_symmetry_space_group_name_H-M   'P 1'
_cell_length_a   8.91376807
_cell_length_b   10.51058896
_cell_length_c   16.38903729
_cell_angle_alpha   89.99928911
_cell_angle_beta   90.00035467
_cell_angle_gamma   106.39451917
_symmetry_Int_Tables_number   1
_chemical_formula_structural   ZnH9C15N2O4F3
_chemical_formula_sum   'Zn4 H36 C60 N8 O16 F12'
_cell_volume   1473.04095388
_cell_formula_units_Z   4
loop_
 _symmetry_equiv_pos_site_id
 _symmetry_equiv_pos_as_xyz
  1  'x, y, z'
loop_
 _atom_site_type_symbol
 _atom_site_label
 _atom_site_symmetry_multiplicity
 _atom_site_fract_x
 _atom_site_fract_y
 _atom_site_fract_z
 _atom_site_occupancy
 _atom_site_hle17_bader_spin_density
 _atom_site_hle17_ddec_charge
 _atom_site_hle17_ddec_spin_density
 _atom_site_hle17_ddec_sum_bond_order
 _atom_site_hle17_magmom
 _atom_site_hse06_10hf_bader_spin_density
 _atom_site_hse06_10hf_ddec_charge
 _atom_site_hse06_10hf_ddec_spin_density
 _atom_site_hse06_10hf_ddec_sum_bond_order
 _atom_site_hse06_10hf_magmom
 _atom_site_hse06_bader_spin_density
 _atom_site_hse06_ddec_charge
 _atom_site_hse06_ddec_spin_density
 _atom_site_hse06_ddec_sum_bond_order
 _atom_site_hse06_magmom
 _atom_site_pbe_bader_spin_density
 _atom_site_pbe_cm5_charge
 _atom_site_pbe_ddec_charge
 _atom_site_pbe_ddec_spin_density
 _atom_site_pbe_ddec_sum_bond_order
 _atom_site_pbe_magmom
Zn  Zn0  1  0.19131060  0.41023035  0.17094344  1  0  1.058295  0  1.829021  0  0  0.875003  0  2.302112  0  0  0.923754  0  2.243206  0  0  0.700585  0.840843  0  2.343252  0
Zn  Zn1  1  0.69130960  0.41023222  0.32905546  1  0  1.058262  0  1.829097  0  0  0.874963  0  2.302223  0  0  0.923698  0  2.24331  0  0  0.700502  0.840785  0  2.343328  0
Zn  Zn2  1  0.80868821  0.58976887  0.82905441  1  0  1.058308  0  1.828984  0  0  0.874966  0  2.302102  0  0  0.923719  0  2.243198  0  0  0.70057  0.840806  0  2.343219  0
Zn  Zn3  1  0.30869369  0.58976700  0.67094423  1  0  1.058264  0  1.82909  0  0  0.874977  0  2.302211  0  0  0.923717  0  2.243294  0  0  0.700513  0.84081  0  2.343318  0
H  H4  1  0.88314282  0.77024419  0.22662612  1  0  0.106306  0  0.950625  0  0  0.114895  0  1.012423  0  0  0.118572  0  1.009606  0  0  0.103742  0.112155  0  1.014526  0
H  H5  1  0.38313975  0.77025340  0.27337360  1  0  0.106224  0  0.950681  0  0  0.114715  0  1.012655  0  0  0.118487  0  1.009679  0  0  0.103712  0.112068  0  1.01461  0
H  H6  1  0.11685857  0.22975602  0.77337356  1  0  0.106288  0  0.950635  0  0  0.114879  0  1.012428  0  0  0.118554  0  1.009617  0  0  0.103734  0.112137  0  1.014538  0
H  H7  1  0.61685985  0.22974483  0.72662669  1  0  0.106302  0  0.950624  0  0  0.114769  0  1.012625  0  0  0.118543  0  1.009649  0  0  0.103755  0.112122  0  1.01457  0
H  H8  1  0.47032122  0.12993390  0.99320077  1  0  0.10557  0  0.940526  0  0  0.113996  0  1.002484  0  0  0.117589  0  1.000303  0  0  0.107225  0.111671  0  1.003626  0
H  H9  1  0.97032463  0.12993658  0.50680207  1  0  0.105613  0  0.940498  0  0  0.114113  0  1.002339  0  0  0.117638  0  1.000263  0  0  0.10725  0.111715  0  1.003582  0
H  H10  1  0.52968296  0.87007127  0.00680014  1  0  0.105579  0  0.940475  0  0  0.113993  0  1.002448  0  0  0.117587  0  1.000264  0  0  0.10723  0.111643  0  1.003624  0
H  H11  1  0.02967754  0.87006263  0.49320188  1  0  0.105586  0  0.940529  0  0  0.11408  0  1.00238  0  0  0.117605  0  1.000302  0  0  0.107203  0.111685  0  1.00362  0
H  H12  1  0.35587316  0.45715702  0.87292863  1  0  0.131886  0  0.93293  0  0  0.139934  0  0.993425  0  0  0.143652  0  0.991925  0  0  0.116711  0.137159  0  0.994654  0
H  H13  1  0.85587084  0.45715855  0.62707000  1  0  0.1319  0  0.932871  0  0  0.139941  0  0.993372  0  0  0.143668  0  0.991858  0  0  0.116727  0.137171  0  0.994592  0
H  H14  1  0.64412274  0.54284023  0.12706861  1  0  0.131897  0  0.932875  0  0  0.139893  0  0.993418  0  0  0.143611  0  0.991919  0  0  0.116739  0.137118  0  0.994646  0
H  H15  1  0.14412415  0.54284267  0.37293151  1  0  0.131896  0  0.932887  0  0  0.139904  0  0.993415  0  0  0.143628  0  0.991906  0  0  0.116718  0.137133  0  0.994632  0
H  H16  1  0.23274549  0.77051356  0.99183959  1  0  0.102858  0  0.994552  0  0  0.107761  0  1.066811  0  0  0.111155  0  1.06494  0  0  0.099048  0.105533  0  1.067652  0
H  H17  1  0.73274534  0.77051226  0.50815857  1  0  0.102915  0  0.994524  0  0  0.107784  0  1.066831  0  0  0.1112  0  1.064915  0  0  0.099061  0.105576  0  1.067632  0
H  H18  1  0.76725208  0.22948865  0.00815765  1  0  0.102887  0  0.994484  0  0  0.107773  0  1.066765  0  0  0.111163  0  1.0649  0  0  0.099065  0.105545  0  1.067606  0
H  H19  1  0.26725729  0.22948497  0.49183989  1  0  0.102794  0  0.994591  0  0  0.107683  0  1.06689  0  0  0.111101  0  1.064966  0  0  0.099031  0.105476  0  1.067686  0
H  H20  1  0.48156684  0.27032317  0.86785851  1  0  0.108957  0  0.932566  0  0  0.117397  0  0.993476  0  0  0.120626  0  0.99121  0  0  0.11058  0.115345  0  0.99445  0
H  H21  1  0.98156857  0.27032658  0.63214202  1  0  0.10897  0  0.932576  0  0  0.117462  0  0.993394  0  0  0.120626  0  0.991241  0  0  0.110571  0.11533  0  0.994498  0
H  H22  1  0.51843310  0.72967605  0.13213995  1  0  0.108956  0  0.932591  0  0  0.117392  0  0.993506  0  0  0.120618  0  0.991243  0  0  0.110589  0.115339  0  0.994484  0
H  H23  1  0.01842979  0.72967463  0.36786132  1  0  0.109007  0  0.932568  0  0  0.117522  0  0.993353  0  0  0.120671  0  0.991218  0  0  0.110605  0.115395  0  0.994452  0
H  H24  1  0.20501546  0.58194682  0.95143646  1  0  0.107982  0  0.946168  0  0  0.117579  0  1.00908  0  0  0.120868  0  1.004871  0  0  0.125175  0.114962  0  1.012669  0
H  H25  1  0.70501428  0.58194778  0.54856189  1  0  0.107957  0  0.946183  0  0  0.117513  0  1.009202  0  0  0.120812  0  1.004978  0  0  0.125153  0.114904  0  1.012784  0
H  H26  1  0.79497742  0.41805143  0.04856078  1  0  0.107869  0  0.946265  0  0  0.117528  0  1.009132  0  0  0.120821  0  1.004918  0  0  0.125116  0.114901  0  1.012744  0
H  H27  1  0.29498487  0.41805244  0.45143779  1  0  0.107942  0  0.946226  0  0  0.117516  0  1.009208  0  0  0.120813  0  1.004986  0  0  0.125136  0.114903  0  1.012788  0
H  H28  1  0.97147178  0.97094583  0.13961730  1  0  0.097527  0  0.952026  0  0  0.104223  0  1.018204  0  0  0.107853  0  1.015784  0  0  0.097606  0.101361  0  1.020256  0
H  H29  1  0.47147155  0.97095049  0.36038355  1  0  0.097533  0  0.952126  0  0  0.104167  0  1.018408  0  0  0.107842  0  1.015899  0  0  0.09761  0.101355  0  1.020377  0
H  H30  1  0.02853028  0.02905636  0.86038421  1  0  0.097531  0  0.952004  0  0  0.104225  0  1.018186  0  0  0.107855  0  1.015765  0  0  0.097614  0.101364  0  1.020234  0
H  H31  1  0.52853366  0.02904773  0.63961613  1  0  0.097516  0  0.952142  0  0  0.104148  0  1.018424  0  0  0.107823  0  1.015913  0  0  0.097584  0.10134  0  1.020393  0
H  H32  1  0.14348845  0.96828068  0.01948319  1  0  0.087866  0  0.962843  0  0  0.098902  0  1.023496  0  0  0.100789  0  1.023501  0  0  0.097989  0.097594  0  1.023373  0
H  H33  1  0.64348973  0.96828080  0.48051598  1  0  0.087875  0  0.962809  0  0  0.098903  0  1.023483  0  0  0.100804  0  1.023456  0  0  0.097999  0.097604  0  1.023332  0
H  H34  1  0.85650867  0.03172352  0.98051527  1  0  0.087922  0  0.962914  0  0  0.098937  0  1.023575  0  0  0.100828  0  1.023568  0  0  0.098016  0.09763  0  1.02345  0
H  H35  1  0.35651659  0.03171741  0.51948309  1  0  0.087875  0  0.962881  0  0  0.098905  0  1.023541  0  0  0.100807  0  1.023515  0  0  0.098027  0.097606  0  1.023391  0
H  H36  1  0.33769905  0.18312771  0.11897510  1  0  0.093742  0  0.931769  0  0  0.100448  0  0.994819  0  0  0.103214  0  0.992245  0  0  0.121754  0.098268  0  0.996815  0
H  H37  1  0.83770237  0.18313061  0.38102549  1  0  0.093705  0  0.931789  0  0  0.100498  0  0.994725  0  0  0.103178  0  0.992297  0  0  0.121776  0.098234  0  0.996854  0
H  H38  1  0.66229786  0.81687252  0.88102337  1  0  0.09371  0  0.931741  0  0  0.100421  0  0.994809  0  0  0.103188  0  0.992232  0  0  0.121744  0.098244  0  0.9968  0
H  H39  1  0.16230060  0.81686761  0.61897724  1  0  0.093712  0  0.931759  0  0  0.100512  0  0.994679  0  0  0.103195  0  0.992246  0  0  0.121745  0.098248  0  0.996811  0
C  C40  1  0.00886210  0.65708506  0.16090801  1  0  -0.151749  0  3.692647  0  0  -0.133176  0  3.927979  0  0  -0.144622  0  3.952151  0  0  -0.016847  -0.1244  0  3.91048  0
C  C41  1  0.50885980  0.65709270  0.33908953  1  0  -0.151987  0  3.692948  0  0  -0.133262  0  3.928098  0  0  -0.144727  0  3.952304  0  0  -0.016917  -0.124507  0  3.910627  0
C  C42  1  0.99113962  0.34291614  0.83909045  1  0  -0.151776  0  3.692628  0  0  -0.133132  0  3.927859  0  0  -0.144572  0  3.952033  0  0  -0.016887  -0.124357  0  3.91036  0
C  C43  1  0.49114126  0.34290652  0.66090893  1  0  -0.152104  0  3.693025  0  0  -0.133292  0  3.928055  0  0  -0.144753  0  3.952261  0  0  -0.016902  -0.124538  0  3.910593  0
C  C44  1  0.10789187  0.65705424  0.09309882  1  0  0.207114  0  3.781351  0  0  0.202048  0  4.023399  0  0  0.208127  0  4.048549  0  0  0.094846  0.197882  0  4.005584  0
C  C45  1  0.60788894  0.65705769  0.40689844  1  0  0.207365  0  3.781095  0  0  0.20226  0  4.023122  0  0  0.208322  0  4.048294  0  0  0.094967  0.198092  0  4.00531  0
C  C46  1  0.89210985  0.34294696  0.90690025  1  0  0.20709  0  3.781405  0  0  0.202045  0  4.023375  0  0  0.2081  0  4.04855  0  0  0.094904  0.197881  0  4.005558  0
C  C47  1  0.39211224  0.34293855  0.59310002  1  0  0.207309  0  3.781101  0  0  0.202192  0  4.023101  0  0  0.208244  0  4.048288  0  0  0.094901  0.198016  0  4.005306  0
C  C48  1  0.28385676  0.41576715  0.99811663  1  0  0.183491  0  3.803988  0  0  0.184335  0  4.044149  0  0  0.186748  0  4.068292  0  0  0.113185  0.182754  0  4.02855  0
C  C49  1  0.78386272  0.41577091  0.50188087  1  0  0.183432  0  3.804097  0  0  0.184269  0  4.044274  0  0  0.186701  0  4.068382  0  0  0.113106  0.182703  0  4.028644  0
C  C50  1  0.71613723  0.58423110  0.00188122  1  0  0.183375  0  3.804084  0  0  0.184174  0  4.044255  0  0  0.186591  0  4.068402  0  0  0.113098  0.182604  0  4.028641  0
C  C51  1  0.21614157  0.58423128  0.49811942  1  0  0.18359  0  3.803869  0  0  0.184381  0  4.044101  0  0  0.186813  0  4.068208  0  0  0.11319  0.182819  0  4.028465  0
C  C52  1  0.96090650  0.77139723  0.17530413  1  0  -0.058458  0  3.748738  0  0  -0.086587  0  4.005492  0  0  -0.085194  0  4.026126  0  0  -0.085678  -0.088176  0  3.991277  0
C  C53  1  0.46090125  0.77140155  0.32469462  1  0  -0.058517  0  3.748867  0  0  -0.086774  0  4.005746  0  0  -0.085296  0  4.026203  0  0  -0.08583  -0.088286  0  3.991376  0
C  C54  1  0.03909668  0.22860496  0.82469616  1  0  -0.058492  0  3.748631  0  0  -0.086639  0  4.005367  0  0  -0.085245  0  4.026  0  0  -0.085695  -0.08823  0  3.991156  0
C  C55  1  0.53909914  0.22859569  0.67530567  1  0  -0.058543  0  3.748913  0  0  -0.086813  0  4.005771  0  0  -0.085335  0  4.026227  0  0  -0.085868  -0.088312  0  3.991388  0
C  C56  1  0.41832562  0.21191101  0.99264510  1  0  -0.099623  0  3.694481  0  0  -0.117789  0  3.957134  0  0  -0.123301  0  3.976497  0  0  -0.073548  -0.114289  0  3.944377  0
C  C57  1  0.91832858  0.21191567  0.50735630  1  0  -0.099712  0  3.69426  0  0  -0.117832  0  3.956906  0  0  -0.123366  0  3.976311  0  0  -0.073596  -0.114346  0  3.944174  0
C  C58  1  0.58167756  0.78809118  0.00735458  1  0  -0.099658  0  3.694462  0  0  -0.117798  0  3.957117  0  0  -0.123309  0  3.976479  0  0  -0.073567  -0.114278  0  3.94438  0
C  C59  1  0.08167202  0.78808553  0.49264704  1  0  -0.099637  0  3.694401  0  0  -0.117761  0  3.95703  0  0  -0.123294  0  3.97643  0  0  -0.07356  -0.114278  0  3.9443  0
C  C60  1  0.94347837  0.54027815  0.21636295  1  0  0.671413  0  3.866488  0  0  0.618208  0  4.15963  0  0  0.654402  0  4.151382  0  0  0.217089  0.593317  0  4.164066  0
C  C61  1  0.44346730  0.54028322  0.28363758  1  0  0.671316  0  3.866646  0  0  0.618056  0  4.159795  0  0  0.654238  0  4.151576  0  0  0.217011  0.593154  0  4.164266  0
C  C62  1  0.05652335  0.45972306  0.78363551  1  0  0.671498  0  3.866286  0  0  0.618245  0  4.159459  0  0  0.65444  0  4.151205  0  0  0.217124  0.59335  0  4.163901  0
C  C63  1  0.55653388  0.45971302  0.71636332  1  0  0.671492  0  3.866446  0  0  0.618194  0  4.159602  0  0  0.654374  0  4.151377  0  0  0.217084  0.593279  0  4.164096  0
C  C64  1  0.15964033  0.21200644  0.29880648  1  0  0.513387  0  4.017936  0  0  0.466171  0  4.31166  0  0  0.496742  0  4.305041  0  0  0.199499  0.445182  0  4.316405  0
C  C65  1  0.65963148  0.21200268  0.20118596  1  0  0.513072  0  4.019155  0  0  0.465813  0  4.312923  0  0  0.496572  0  4.306012  0  0  0.199347  0.444916  0  4.317418  0
C  C66  1  0.84036182  0.78800271  0.70119869  1  0  0.513253  0  4.018208  0  0  0.465993  0  4.311979  0  0  0.49662  0  4.30528  0  0  0.199409  0.444933  0  4.316697  0
C  C67  1  0.34036106  0.78799457  0.79881372  1  0  0.513295  0  4.018705  0  0  0.465979  0  4.312582  0  0  0.496734  0  4.305673  0  0  0.19947  0.445085  0  4.317036  0
C  C68  1  0.35447492  0.39321255  0.92552258  1  0  -0.114591  0  3.64286  0  0  -0.134542  0  3.890255  0  0  -0.140333  0  3.912253  0  0  -0.065423  -0.131142  0  3.875905  0
C  C69  1  0.85447422  0.39321403  0.57447473  1  0  -0.114553  0  3.642794  0  0  -0.134504  0  3.890197  0  0  -0.140272  0  3.912157  0  0  -0.065448  -0.131089  0  3.875817  0
C  C70  1  0.64552289  0.60678370  0.07447466  1  0  -0.11447  0  3.642741  0  0  -0.134349  0  3.890111  0  0  -0.140139  0  3.912105  0  0  -0.065406  -0.130958  0  3.875766  0
C  C71  1  0.14552526  0.60678718  0.42552618  1  0  -0.114607  0  3.642811  0  0  -0.134511  0  3.890243  0  0  -0.140277  0  3.912197  0  0  -0.06548  -0.131094  0  3.875859  0
C  C72  1  0.15486640  0.77024535  0.04308697  1  0  -0.151595  0  3.703135  0  0  -0.170361  0  3.951183  0  0  -0.176834  0  3.973808  0  0  -0.093521  -0.165805  0  3.935033  0
C  C73  1  0.65486677  0.77024689  0.45691077  1  0  -0.151651  0  3.703132  0  0  -0.170347  0  3.951117  0  0  -0.176862  0  3.973805  0  0  -0.093496  -0.165835  0  3.935017  0
C  C74  1  0.84513342  0.22975685  0.95691149  1  0  -0.151523  0  3.703145  0  0  -0.170274  0  3.951162  0  0  -0.17674  0  3.973792  0  0  -0.093518  -0.165718  0  3.935011  0
C  C75  1  0.34513698  0.22975033  0.54308830  1  0  -0.151525  0  3.702817  0  0  -0.170248  0  3.950807  0  0  -0.176759  0  3.973503  0  0  -0.093463  -0.165729  0  3.934701  0
C  C76  1  0.42376558  0.28946774  0.92322889  1  0  0.003997  0  3.679401  0  0  -0.017592  0  3.937209  0  0  -0.014714  0  3.955327  0  0  -0.061972  -0.019551  0  3.925221  0
C  C77  1  0.92377329  0.28947412  0.57677313  1  0  0.003946  0  3.679162  0  0  -0.017611  0  3.936919  0  0  -0.014771  0  3.955101  0  0  -0.061958  -0.019594  0  3.924995  0
C  C78  1  0.57623357  0.71053248  0.07677140  1  0  0.00398  0  3.679335  0  0  -0.017617  0  3.937117  0  0  -0.014737  0  3.955236  0  0  -0.061959  -0.019576  0  3.925133  0
C  C79  1  0.07622922  0.71052609  0.42323082  1  0  0.003878  0  3.679389  0  0  -0.017697  0  3.93713  0  0  -0.014845  0  3.955314  0  0  -0.061982  -0.019683  0  3.925207  0
C  C80  1  0.21178406  0.52379596  0.00616947  1  0  0.109752  0  3.615184  0  0  0.070659  0  3.866277  0  0  0.083089  0  3.876691  0  0  0.087872  0.06103  0  3.860753  0
C  C81  1  0.71178273  0.52379784  0.49382677  1  0  0.109817  0  3.615368  0  0  0.070639  0  3.866628  0  0  0.083077  0  3.877007  0  0  0.087867  0.061028  0  3.861075  0
C  C82  1  0.78821218  0.47620228  0.99382839  1  0  0.109888  0  3.615137  0  0  0.070711  0  3.866291  0  0  0.083131  0  3.876697  0  0  0.087917  0.061083  0  3.860763  0
C  C83  1  0.28821754  0.47620237  0.50617292  1  0  0.109779  0  3.615448  0  0  0.070625  0  3.866688  0  0  0.083064  0  3.877069  0  0  0.087881  0.061022  0  3.861124  0
C  C84  1  0.00830944  0.88298837  0.12573054  1  0  -0.062794  0  3.749597  0  0  -0.08153  0  4.0103  0  0  -0.085847  0  4.032266  0  0  -0.089358  -0.076946  0  3.994468  0
C  C85  1  0.50830699  0.88299439  0.37426947  1  0  -0.062678  0  3.749545  0  0  -0.081421  0  4.010275  0  0  -0.085697  0  4.032148  0  0  -0.089247  -0.076811  0  3.994368  0
C  C86  1  0.99169374  0.11701382  0.87427036  1  0  -0.062689  0  3.749484  0  0  -0.081422  0  4.010188  0  0  -0.085739  0  4.032152  0  0  -0.089325  -0.076836  0  3.994351  0
C  C87  1  0.49169742  0.11700482  0.62572899  1  0  -0.062768  0  3.749601  0  0  -0.081502  0  4.010324  0  0  -0.085781  0  4.032203  0  0  -0.089262  -0.076904  0  3.99442  0
C  C88  1  0.10520224  0.88176726  0.05897511  1  0  -0.035358  0  3.748806  0  0  -0.049548  0  3.995345  0  0  -0.048833  0  4.016928  0  0  -0.085312  -0.050252  0  3.980398  0
C  C89  1  0.60520331  0.88176810  0.44102340  1  0  -0.035368  0  3.748866  0  0  -0.049514  0  3.995287  0  0  -0.04886  0  4.016976  0  0  -0.085335  -0.050271  0  3.980425  0
C  C90  1  0.89479724  0.11823395  0.94102396  1  0  -0.035533  0  3.748992  0  0  -0.049708  0  3.995527  0  0  -0.048998  0  4.017121  0  0  -0.085367  -0.050413  0  3.980572  0
C  C91  1  0.39480122  0.11822814  0.55897628  1  0  -0.035306  0  3.748716  0  0  -0.049455  0  3.99514  0  0  -0.0488  0  4.016824  0  0  -0.085364  -0.050213  0  3.980288  0
C  C92  1  0.34554641  0.24073626  0.06311742  1  0  0.166232  0  3.668498  0  0  0.13394  0  3.920885  0  0  0.141549  0  3.937478  0  0  0.065881  0.129124  0  3.90987  0
C  C93  1  0.84555182  0.24074014  0.43688273  1  0  0.166453  0  3.668501  0  0  0.134054  0  3.920985  0  0  0.141671  0  3.937566  0  0  0.065869  0.129243  0  3.909945  0
C  C94  1  0.65444937  0.75926396  0.93688165  1  0  0.166292  0  3.668504  0  0  0.133923  0  3.920898  0  0  0.141534  0  3.937495  0  0  0.065833  0.129101  0  3.909876  0
C  C95  1  0.15445326  0.75926105  0.56311817  1  0  0.16637  0  3.668469  0  0  0.13401  0  3.920922  0  0  0.141626  0  3.937504  0  0  0.065914  0.129201  0  3.909887  0
C  C96  1  0.15314129  0.06621495  0.32159362  1  0  0.661591  0  3.636224  0  0  0.595772  0  3.970057  0  0  0.622754  0  3.943671  0  0  0.295966  0.575852  0  3.990072  0
C  C97  1  0.65313077  0.06620367  0.17841033  1  0  0.661696  0  3.636252  0  0  0.595573  0  3.970702  0  0  0.622833  0  3.943751  0  0  0.295995  0.576164  0  3.989809  0
C  C98  1  0.84685986  0.93379122  0.67841094  1  0  0.66137  0  3.636949  0  0  0.595723  0  3.970585  0  0  0.622636  0  3.944289  0  0  0.295975  0.576061  0  3.990201  0
C  C99  1  0.34686626  0.93379358  0.82158935  1  0  0.661605  0  3.636344  0  0  0.595527  0  3.970763  0  0  0.622788  0  3.943814  0  0  0.295951  0.576181  0  3.989763  0
N  N100  1  0.16354800  0.54732054  0.07740532  1  0  -0.346954  0  3.289999  0  0  -0.277455  0  3.561029  0  0  -0.296224  0  3.574925  0  0  -0.313103  -0.265275  0  3.552034  0
N  N101  1  0.66355030  0.54732568  0.42259117  1  0  -0.347004  0  3.290017  0  0  -0.277496  0  3.561142  0  0  -0.296242  0  3.575005  0  0  -0.313115  -0.265305  0  3.552115  0
N  N102  1  0.83645194  0.45267868  0.92259314  1  0  -0.346946  0  3.290017  0  0  -0.277471  0  3.56113  0  0  -0.296215  0  3.575011  0  0  -0.313094  -0.26529  0  3.552126  0
N  N103  1  0.33645233  0.45267155  0.57740729  1  0  -0.346941  0  3.290041  0  0  -0.277444  0  3.561158  0  0  -0.296189  0  3.575026  0  0  -0.313076  -0.265257  0  3.55214  0
N  N104  1  0.28097645  0.34081813  0.06572780  1  0  -0.357373  0  3.258841  0  0  -0.281344  0  3.521573  0  0  -0.299074  0  3.536307  0  0  -0.314628  -0.269549  0  3.512067  0
N  N105  1  0.78098264  0.34082106  0.43427012  1  0  -0.357526  0  3.258933  0  0  -0.281426  0  3.521653  0  0  -0.299134  0  3.536344  0  0  -0.314596  -0.269601  0  3.512088  0
N  N106  1  0.71901721  0.65917912  0.93427005  1  0  -0.357463  0  3.258912  0  0  -0.281293  0  3.521522  0  0  -0.299035  0  3.536267  0  0  -0.314565  -0.269493  0  3.511999  0
N  N107  1  0.21902278  0.65918113  0.56573079  1  0  -0.357529  0  3.258801  0  0  -0.281466  0  3.521578  0  0  -0.299175  0  3.536269  0  0  -0.314642  -0.269646  0  3.512019  0
O  O108  1  0.15571460  0.22887219  0.22185680  1  0  -0.589575  0  2.099857  0  0  -0.535421  0  2.367544  0  0  -0.562135  0  2.352726  0  0  -0.320226  -0.516813  0  2.377769  0
O  O109  1  0.65571132  0.22886902  0.27815014  1  0  -0.589565  0  2.099562  0  0  -0.535455  0  2.367321  0  0  -0.562193  0  2.35236  0  0  -0.320176  -0.516848  0  2.377445  0
O  O110  1  0.84428476  0.77113200  0.77814777  1  0  -0.589497  0  2.099706  0  0  -0.535347  0  2.367417  0  0  -0.562074  0  2.352572  0  0  -0.320198  -0.516751  0  2.377687  0
O  O111  1  0.34428828  0.77112921  0.72185015  1  0  -0.589593  0  2.099437  0  0  -0.535474  0  2.367235  0  0  -0.562211  0  2.352273  0  0  -0.320199  -0.516875  0  2.377355  0
O  O112  1  0.16349440  0.28998925  0.35603101  1  0  -0.547287  0  1.999151  0  0  -0.523226  0  2.231128  0  0  -0.544349  0  2.225102  0  0  -0.308143  -0.508274  0  2.235442  0
O  O113  1  0.66347005  0.28996473  0.14397973  1  0  -0.547008  0  2.000503  0  0  -0.522919  0  2.232508  0  0  -0.544124  0  2.226401  0  0  -0.308055  -0.508053  0  2.236778  0
O  O114  1  0.83651447  0.71001988  0.64397355  1  0  -0.54718  0  1.999283  0  0  -0.523113  0  2.231306  0  0  -0.544256  0  2.225256  0  0  -0.308094  -0.508166  0  2.235651  0
O  O115  1  0.33651185  0.71002760  0.85601995  1  0  -0.547158  0  2.000246  0  0  -0.523061  0  2.232329  0  0  -0.544267  0  2.226222  0  0  -0.308126  -0.5082  0  2.236587  0
O  O116  1  0.98750247  0.43577973  0.21472821  1  0  -0.618699  0  2.074238  0  0  -0.551114  0  2.343162  0  0  -0.578828  0  2.327712  0  0  -0.312197  -0.531562  0  2.353321  0
O  O117  1  0.48750104  0.43578673  0.28526904  1  0  -0.618663  0  2.074162  0  0  -0.551036  0  2.34308  0  0  -0.578748  0  2.327635  0  0  -0.312159  -0.53149  0  2.353261  0
O  O118  1  0.01249455  0.56421752  0.78526659  1  0  -0.618673  0  2.074164  0  0  -0.551058  0  2.34309  0  0  -0.578774  0  2.32764  0  0  -0.312178  -0.531507  0  2.353257  0
O  O119  1  0.51249868  0.56420852  0.71473186  1  0  -0.618691  0  2.074078  0  0  -0.551055  0  2.343  0  0  -0.578767  0  2.327553  0  0  -0.312203  -0.531512  0  2.353209  0
O  O120  1  0.83755913  0.55454582  0.26560417  1  0  -0.637612  0  2.089044  0  0  -0.568785  0  2.369866  0  0  -0.598047  0  2.354932  0  0  -0.317484  -0.547329  0  2.378598  0
O  O121  1  0.33755318  0.55454780  0.23439833  1  0  -0.637494  0  2.089243  0  0  -0.568655  0  2.370111  0  0  -0.597969  0  2.355244  0  0  -0.317427  -0.547235  0  2.378868  0
O  O122  1  0.16244226  0.44545439  0.73439551  1  0  -0.637707  0  2.089072  0  0  -0.568881  0  2.369931  0  0  -0.598134  0  2.354974  0  0  -0.317527  -0.547425  0  2.378672  0
O  O123  1  0.66245091  0.44545042  0.76559891  1  0  -0.637558  0  2.08923  0  0  -0.568696  0  2.3701  0  0  -0.598026  0  2.355267  0  0  -0.317445  -0.54727  0  2.378857  0
F  F124  1  0.22637096  0.00724343  0.26693000  1  0  -0.231833  0  1.188548  0  0  -0.198594  0  1.359666  0  0  -0.208104  0  1.345051  0  0  -0.09709  -0.191681  0  1.370021  0
F  F125  1  0.72632580  0.00721737  0.23308321  1  0  -0.231766  0  1.188686  0  0  -0.198434  0  1.359809  0  0  -0.208037  0  1.345216  0  0  -0.097042  -0.19167  0  1.370096  0
F  F126  1  0.77365695  0.99277556  0.73308066  1  0  -0.231721  0  1.188802  0  0  -0.198508  0  1.359876  0  0  -0.208007  0  1.345282  0  0  -0.097055  -0.191673  0  1.370136  0
F  F127  1  0.27366898  0.99277988  0.76691647  1  0  -0.231765  0  1.188699  0  0  -0.19843  0  1.359803  0  0  -0.208031  0  1.345209  0  0  -0.097039  -0.191684  0  1.37007  0
F  F128  1  0.00040437  0.98963329  0.32736794  1  0  -0.261884  0  1.144265  0  0  -0.218213  0  1.301597  0  0  -0.228836  0  1.287828  0  0  -0.105629  -0.210335  0  1.311263  0
F  F129  1  0.50039549  0.98962707  0.17260862  1  0  -0.261905  0  1.144092  0  0  -0.217921  0  1.301429  0  0  -0.228883  0  1.28771  0  0  -0.105639  -0.210398  0  1.311032  0
F  F130  1  0.99959690  0.01036990  0.67261710  1  0  -0.261844  0  1.144316  0  0  -0.21826  0  1.301646  0  0  -0.228867  0  1.287899  0  0  -0.105652  -0.210405  0  1.311185  0
F  F131  1  0.49959975  0.01036820  0.82739045  1  0  -0.261891  0  1.14417  0  0  -0.217939  0  1.301524  0  0  -0.228892  0  1.287794  0  0  -0.105635  -0.210437  0  1.311106  0
F  F132  1  0.21989811  0.05801845  0.39579153  1  0  -0.252567  0  1.208143  0  0  -0.215965  0  1.388495  0  0  -0.226149  0  1.373457  0  0  -0.094533  -0.208596  0  1.399247  0
F  F133  1  0.71993062  0.05802427  0.10422369  1  0  -0.252648  0  1.208233  0  0  -0.216128  0  1.388784  0  0  -0.226228  0  1.373561  0  0  -0.094544  -0.208735  0  1.39927  0
F  F134  1  0.78007090  0.94197887  0.60422157  1  0  -0.252522  0  1.208356  0  0  -0.215956  0  1.388654  0  0  -0.226123  0  1.37364  0  0  -0.094525  -0.208658  0  1.399318  0
F  F135  1  0.28006819  0.94197496  0.89577599  1  0  -0.252613  0  1.208206  0  0  -0.216091  0  1.388747  0  0  -0.226197  0  1.373526  0  0  -0.094528  -0.208717  0  1.39921  0
