# generated using pymatgen
data_CdH24C28(N2O)6
_symmetry_space_group_name_H-M   'P 1'
_cell_length_a   7.71253596
_cell_length_b   8.74352675
_cell_length_c   12.20757949
_cell_angle_alpha   112.91604003
_cell_angle_beta   91.66389658
_cell_angle_gamma   100.06941837
_symmetry_Int_Tables_number   1
_chemical_formula_structural   CdH24C28(N2O)6
_chemical_formula_sum   'Cd1 H24 C28 N12 O6'
_cell_volume   742.27161803
_cell_formula_units_Z   1
loop_
 _symmetry_equiv_pos_site_id
 _symmetry_equiv_pos_as_xyz
  1  'x, y, z'
loop_
 _atom_site_type_symbol
 _atom_site_label
 _atom_site_symmetry_multiplicity
 _atom_site_fract_x
 _atom_site_fract_y
 _atom_site_fract_z
 _atom_site_occupancy
 _atom_site_hle17_bader_spin_density
 _atom_site_hle17_ddec_charge
 _atom_site_hle17_ddec_spin_density
 _atom_site_hle17_ddec_sum_bond_order
 _atom_site_hle17_magmom
 _atom_site_hse06_10hf_bader_spin_density
 _atom_site_hse06_10hf_ddec_charge
 _atom_site_hse06_10hf_ddec_spin_density
 _atom_site_hse06_10hf_ddec_sum_bond_order
 _atom_site_hse06_10hf_magmom
 _atom_site_hse06_bader_spin_density
 _atom_site_hse06_ddec_charge
 _atom_site_hse06_ddec_spin_density
 _atom_site_hse06_ddec_sum_bond_order
 _atom_site_hse06_magmom
 _atom_site_pbe_bader_spin_density
 _atom_site_pbe_cm5_charge
 _atom_site_pbe_ddec_charge
 _atom_site_pbe_ddec_spin_density
 _atom_site_pbe_ddec_sum_bond_order
 _atom_site_pbe_magmom
Cd  Cd0  1  0.00000848  0.50000423  0.49999154  1  0  1.160686  0  1.70082  0  0  0.978312  0  2.150146  0  0  1.032622  0  2.095788  0  0  0.770811  0.939902  0  2.187131  0
H  H1  1  0.34744524  0.44477318  0.55271688  1  0  0.40126  0  0.91343  0  0  0.360506  0  0.993491  0  0  0.372278  0  0.976709  0  0  0.28359  0.352217  0  1.005273  0
H  H2  1  0.65256486  0.55523152  0.44728571  1  0  0.401261  0  0.913416  0  0  0.360523  0  0.993461  0  0  0.372292  0  0.976681  0  0  0.283596  0.352232  0  1.005248  0
H  H3  1  0.31603441  0.63015672  0.63485055  1  0  0.401669  0  0.908265  0  0  0.370002  0  0.974137  0  0  0.381667  0  0.95691  0  0  0.278283  0.361701  0  0.986358  0
H  H4  1  0.68396224  0.36984531  0.36514768  1  0  0.40152  0  0.908451  0  0  0.369905  0  0.97425  0  0  0.38156  0  0.957023  0  0  0.278241  0.361607  0  0.986474  0
H  H5  1  0.40179924  0.03368282  0.71607227  1  0  0.322578  0  0.863107  0  0  0.309488  0  0.915234  0  0  0.316389  0  0.91018  0  0  0.330802  0.304537  0  0.918948  0
H  H6  1  0.59820600  0.96631044  0.28392539  1  0  0.322549  0  0.86321  0  0  0.309398  0  0.91536  0  0  0.316301  0  0.910313  0  0  0.330769  0.304448  0  0.919072  0
H  H7  1  0.67168798  0.32515520  0.13364506  1  0  0.287109  0  0.910568  0  0  0.267235  0  0.972262  0  0  0.274296  0  0.967233  0  0  0.321342  0.262226  0  0.975972  0
H  H8  1  0.32829170  0.67482133  0.86635713  1  0  0.287259  0  0.910508  0  0  0.267361  0  0.972193  0  0  0.274425  0  0.967161  0  0  0.321393  0.262354  0  0.975898  0
H  H9  1  0.68388178  0.01628613  0.01477484  1  0  0.081071  0  0.986747  0  0  0.089739  0  1.054072  0  0  0.093008  0  1.051393  0  0  0.097534  0.087359  0  1.0561  0
H  H10  1  0.31611789  0.98369822  0.98521447  1  0  0.08115  0  0.986679  0  0  0.089754  0  1.05407  0  0  0.093019  0  1.051396  0  0  0.097536  0.087384  0  1.056093  0
H  H11  1  0.21959211  0.16884665  0.17852861  1  0  0.1118  0  0.935619  0  0  0.121749  0  0.992925  0  0  0.12609  0  0.989403  0  0  0.109964  0.118536  0  0.995645  0
H  H12  1  0.78040993  0.83114912  0.82145902  1  0  0.111707  0  0.935776  0  0  0.12166  0  0.993086  0  0  0.125997  0  0.989563  0  0  0.109918  0.118454  0  0.995799  0
H  H13  1  0.93125389  0.61239674  0.25559224  1  0  0.082432  0  0.959377  0  0  0.083406  0  1.035038  0  0  0.087538  0  1.030161  0  0  0.112154  0.080335  0  1.038604  0
H  H14  1  0.06876073  0.38762953  0.74440418  1  0  0.082576  0  0.959369  0  0  0.083504  0  1.035075  0  0  0.087635  0  1.030205  0  0  0.112196  0.080433  0  1.038636  0
H  H15  1  0.02080185  0.87095526  0.21644147  1  0  0.106608  0  0.949099  0  0  0.116872  0  1.00738  0  0  0.119387  0  1.008106  0  0  0.106881  0.115057  0  1.007039  0
H  H16  1  0.97921420  0.12907228  0.78356271  1  0  0.106622  0  0.949085  0  0  0.116968  0  1.007257  0  0  0.119488  0  1.007978  0  0  0.10692  0.115141  0  1.006948  0
H  H17  1  0.21863495  0.12796041  0.37268760  1  0  0.117342  0  0.932262  0  0  0.128556  0  0.990563  0  0  0.131894  0  0.987374  0  0  0.116339  0.12609  0  0.992861  0
H  H18  1  0.78138416  0.87206337  0.62731971  1  0  0.117319  0  0.932377  0  0  0.128606  0  0.990595  0  0  0.131951  0  0.987392  0  0  0.116377  0.12614  0  0.992896  0
H  H19  1  0.23484581  0.83138353  0.58406846  1  0  0.0715  0  0.98887  0  0  0.079326  0  1.057653  0  0  0.082083  0  1.054604  0  0  0.115452  0.077335  0  1.059762  0
H  H20  1  0.76516667  0.16862626  0.41593152  1  0  0.071556  0  0.988962  0  0  0.079308  0  1.057778  0  0  0.08206  0  1.054736  0  0  0.115483  0.077315  0  1.05989  0
H  H21  1  0.81532593  0.57852271  0.91955543  1  0  0.104273  0  0.939172  0  0  0.113223  0  1.001849  0  0  0.115131  0  1.000682  0  0  0.118458  0.111868  0  1.002655  0
H  H22  1  0.18466893  0.42146536  0.08045609  1  0  0.104333  0  0.939327  0  0  0.113272  0  1.002041  0  0  0.115176  0  1.000896  0  0  0.118481  0.111912  0  1.002827  0
H  H23  1  0.46028497  0.15340499  0.94542006  1  0  0.09734  0  0.986585  0  0  0.108434  0  1.051353  0  0  0.111057  0  1.048584  0  0  0.117428  0.106468  0  1.053362  0
H  H24  1  0.53969476  0.84657787  0.05457898  1  0  0.097185  0  0.986395  0  0  0.10827  0  1.051227  0  0  0.110874  0  1.04848  0  0  0.117326  0.106308  0  1.053241  0
C  C25  1  0.88590454  0.20438252  0.22657868  1  0  0.636725  0  3.924996  0  0  0.584775  0  4.225848  0  0  0.618807  0  4.217952  0  0  0.203286  0.561793  0  4.230291  0
C  C26  1  0.11409108  0.79560053  0.77340442  1  0  0.636492  0  3.924888  0  0  0.584492  0  4.225785  0  0  0.618521  0  4.217891  0  0  0.203263  0.561513  0  4.230211  0
C  C27  1  0.94475284  0.10015180  0.10881594  1  0  -0.062672  0  3.754698  0  0  -0.042008  0  3.990098  0  0  -0.048254  0  4.012077  0  0  -0.019097  -0.037946  0  3.975265  0
C  C28  1  0.05523046  0.89982858  0.89117267  1  0  -0.062798  0  3.754644  0  0  -0.042102  0  3.990054  0  0  -0.048346  0  4.012031  0  0  -0.01909  -0.038022  0  3.975182  0
C  C29  1  0.82208248  0.00671932  0.00772546  1  0  -0.079796  0  3.768715  0  0  -0.104825  0  4.021001  0  0  -0.105899  0  4.042115  0  0  -0.0892  -0.103993  0  4.006673  0
C  C30  1  0.17791228  0.99325992  0.99226230  1  0  -0.080055  0  3.768574  0  0  -0.105073  0  4.020923  0  0  -0.106146  0  4.042038  0  0  -0.089366  -0.104259  0  4.006598  0
C  C31  1  0.12441111  0.09362327  0.10008056  1  0  -0.070367  0  3.730897  0  0  -0.090122  0  3.976417  0  0  -0.090696  0  3.99531  0  0  -0.081178  -0.089569  0  3.963613  0
C  C32  1  0.87557428  0.90636093  0.89990752  1  0  -0.070326  0  3.731143  0  0  -0.090136  0  3.976717  0  0  -0.090706  0  3.995606  0  0  -0.081244  -0.089593  0  3.963906  0
C  C33  1  0.02014219  0.72316280  0.32195570  1  0  0.136273  0  3.68801  0  0  0.100861  0  3.949905  0  0  0.109611  0  3.965488  0  0  0.048477  0.09533  0  3.939167  0
C  C34  1  0.97987813  0.27685973  0.67804228  1  0  0.136197  0  3.687701  0  0  0.100818  0  3.949633  0  0  0.109565  0  3.965214  0  0  0.04858  0.095289  0  3.938888  0
C  C35  1  0.07073436  0.86938677  0.30032971  1  0  -0.117322  0  3.728045  0  0  -0.130043  0  3.987501  0  0  -0.137688  0  4.009178  0  0  -0.084613  -0.125279  0  3.972913  0
C  C36  1  0.92929032  0.13063834  0.69967155  1  0  -0.117429  0  3.727709  0  0  -0.130238  0  3.987249  0  0  -0.137884  0  4.008924  0  0  -0.084671  -0.125474  0  3.972656  0
C  C37  1  0.18247810  0.01089971  0.38626860  1  0  -0.030037  0  3.662028  0  0  -0.062416  0  3.916444  0  0  -0.057626  0  3.932501  0  0  -0.06247  -0.064952  0  3.905241  0
C  C38  1  0.81754171  0.98912029  0.61372866  1  0  -0.029838  0  3.661967  0  0  -0.062263  0  3.916413  0  0  -0.057472  0  3.932473  0  0  -0.062432  -0.064813  0  3.90522  0
C  C39  1  0.24488272  0.00050396  0.49204255  1  0  -0.056394  0  3.810711  0  0  -0.032477  0  4.050425  0  0  -0.039547  0  4.074033  0  0  -0.005226  -0.028643  0  4.035307  0
C  C40  1  0.75512857  0.99950583  0.50795166  1  0  -0.056558  0  3.810913  0  0  -0.032731  0  4.050711  0  0  -0.039804  0  4.074318  0  0  -0.005256  -0.028867  0  4.035534  0
C  C41  1  0.18979646  0.84765395  0.50468664  1  0  0.104345  0  3.691228  0  0  0.062988  0  3.94235  0  0  0.070282  0  3.960659  0  0  0.045908  0.058016  0  3.930674  0
C  C42  1  0.81021816  0.15235966  0.49531036  1  0  0.104171  0  3.691415  0  0  0.063026  0  3.94238  0  0  0.070337  0  3.960661  0  0  0.045759  0.058046  0  3.930703  0
C  C43  1  0.35880891  0.14146850  0.58886659  1  0  0.296982  0  3.800877  0  0  0.257277  0  4.080548  0  0  0.269925  0  4.097741  0  0  0.216258  0.249294  0  4.068368  0
C  C44  1  0.64120141  0.85854379  0.41113812  1  0  0.297064  0  3.801264  0  0  0.257328  0  4.080944  0  0  0.269984  0  4.09814  0  0  0.216194  0.249348  0  4.068758  0
C  C45  1  0.51964930  0.29446259  0.76124230  1  0  0.338007  0  3.799379  0  0  0.308347  0  4.07309  0  0  0.322067  0  4.088412  0  0  0.225491  0.299231  0  4.062608  0
C  C46  1  0.48034457  0.70553307  0.23876639  1  0  0.338255  0  3.798765  0  0  0.308417  0  4.072602  0  0  0.322149  0  4.087921  0  0  0.225533  0.299297  0  4.062134  0
C  C47  1  0.60446723  0.34375677  0.87991026  1  0  -0.127461  0  3.879495  0  0  -0.110333  0  4.132004  0  0  -0.119568  0  4.157435  0  0  -0.032343  -0.10433  0  4.114686  0
C  C48  1  0.39551316  0.65622356  0.12009628  1  0  -0.127407  0  3.879502  0  0  -0.110155  0  4.131939  0  0  -0.119402  0  4.157384  0  0  -0.032257  -0.10416  0  4.114633  0
C  C49  1  0.74238687  0.48400139  0.94716534  1  0  0.022861  0  3.702263  0  0  -0.019777  0  3.984776  0  0  -0.013582  0  3.999054  0  0  0.022056  -0.023599  0  3.974809  0
C  C50  1  0.25759582  0.51597770  0.05284337  1  0  0.022569  0  3.703086  0  0  -0.020117  0  3.985647  0  0  -0.013924  0  3.999928  0  0  0.021881  -0.023912  0  3.975658  0
C  C51  1  0.56061260  0.26344583  0.95701804  1  0  0.006542  0  3.686696  0  0  -0.048857  0  3.950932  0  0  -0.041648  0  3.967053  0  0  0.017469  -0.053105  0  3.939631  0
C  C52  1  0.43936668  0.73654208  0.04299222  1  0  0.006789  0  3.686548  0  0  -0.048685  0  3.950818  0  0  -0.041457  0  3.966955  0  0  0.017528  -0.05294  0  3.939529  0
N  N53  1  0.07856696  0.71357534  0.42343293  1  0  -0.324797  0  3.24222  0  0  -0.249739  0  3.508807  0  0  -0.2695  0  3.527365  0  0  -0.323459  -0.236255  0  3.495765  0
N  N54  1  0.92144742  0.28644334  0.57656300  1  0  -0.324707  0  3.241918  0  0  -0.249732  0  3.508528  0  0  -0.269493  0  3.527079  0  0  -0.323545  -0.236248  0  3.495483  0
N  N55  1  0.42169213  0.13550599  0.69331839  1  0  -0.403792  0  3.346028  0  0  -0.344167  0  3.577788  0  0  -0.362169  0  3.589216  0  0  -0.36974  -0.331985  0  3.569753  0
N  N56  1  0.57831598  0.86450247  0.30669421  1  0  -0.403975  0  3.346115  0  0  -0.344117  0  3.577808  0  0  -0.362143  0  3.589252  0  0  -0.369683  -0.331937  0  3.569776  0
N  N57  1  0.41688042  0.29657683  0.59387113  1  0  -0.276744  0  3.036377  0  0  -0.232014  0  3.310292  0  0  -0.244168  0  3.324834  0  0  -0.210027  -0.223771  0  3.300288  0
N  N58  1  0.58312803  0.70343923  0.40613622  1  0  -0.27665  0  3.03642  0  0  -0.231984  0  3.310417  0  0  -0.24414  0  3.324957  0  0  -0.20998  -0.223749  0  3.300425  0
N  N59  1  0.51735572  0.39309517  0.70142561  1  0  -0.266453  0  2.846291  0  0  -0.255236  0  3.122408  0  0  -0.264179  0  3.135773  0  0  -0.229525  -0.249262  0  3.113391  0
N  N60  1  0.48264610  0.60690816  0.29858950  1  0  -0.266611  0  2.846327  0  0  -0.255323  0  3.122477  0  0  -0.264262  0  3.135838  0  0  -0.229596  -0.249346  0  3.113465  0
N  N61  1  0.66652883  0.35421466  0.05990754  1  0  -0.150287  0  3.548172  0  0  -0.084564  0  3.792572  0  0  -0.098166  0  3.813424  0  0  -0.280146  -0.075501  0  3.778341  0
N  N62  1  0.33344652  0.64577320  0.94010425  1  0  -0.150505  0  3.548125  0  0  -0.084693  0  3.792479  0  0  -0.0983  0  3.813319  0  0  -0.280032  -0.075633  0  3.778251  0
N  N63  1  0.77980001  0.48884973  0.05638642  1  0  -0.219593  0  2.916982  0  0  -0.207114  0  3.197351  0  0  -0.213407  0  3.21276  0  0  -0.234761  -0.202707  0  3.186785  0
N  N64  1  0.22017239  0.51112417  0.94363042  1  0  -0.21945  0  2.917129  0  0  -0.206991  0  3.197484  0  0  -0.213283  0  3.212894  0  0  -0.234777  -0.202583  0  3.186904  0
O  O65  1  0.71955489  0.20478352  0.23168996  1  0  -0.666323  0  1.918794  0  0  -0.610682  0  2.134891  0  0  -0.633126  0  2.121152  0  0  -0.33804  -0.594936  0  2.143833  0
O  O66  1  0.28044480  0.79519450  0.76829841  1  0  -0.666293  0  1.918727  0  0  -0.610616  0  2.134844  0  0  -0.633056  0  2.121116  0  0  -0.338055  -0.594882  0  2.143799  0
O  O67  1  0.00624899  0.28279096  0.31322648  1  0  -0.63071  0  2.019296  0  0  -0.567186  0  2.270351  0  0  -0.59535  0  2.259528  0  0  -0.319759  -0.547445  0  2.27695  0
O  O68  1  0.99374063  0.71720721  0.68675740  1  0  -0.630516  0  2.01927  0  0  -0.566917  0  2.270237  0  0  -0.595099  0  2.259462  0  0  -0.319682  -0.547178  0  2.276831  0
O  O69  1  0.29955902  0.54373732  0.55121599  1  0  -0.8241  0  1.916885  0  0  -0.76016  0  2.118161  0  0  -0.783019  0  2.082627  0  0  -0.592861  -0.74384  0  2.142694  0
O  O70  1  0.70045274  0.45626867  0.44878045  1  0  -0.824006  0  1.917159  0  0  -0.760113  0  2.118326  0  0  -0.782957  0  2.082853  0  0  -0.592843  -0.743799  0  2.142852  0
