# generated using pymatgen
data_CoH32C44(N5O3)2
_symmetry_space_group_name_H-M   'P 1'
_cell_length_a   8.28499367
_cell_length_b   10.78249193
_cell_length_c   11.75241173
_cell_angle_alpha   113.47338899
_cell_angle_beta   96.12757258
_cell_angle_gamma   102.79507568
_symmetry_Int_Tables_number   1
_chemical_formula_structural   CoH32C44(N5O3)2
_chemical_formula_sum   'Co1 H32 C44 N10 O6'
_cell_volume   916.50431094
_cell_formula_units_Z   1
loop_
 _symmetry_equiv_pos_site_id
 _symmetry_equiv_pos_as_xyz
  1  'x, y, z'
loop_
 _atom_site_type_symbol
 _atom_site_label
 _atom_site_symmetry_multiplicity
 _atom_site_fract_x
 _atom_site_fract_y
 _atom_site_fract_z
 _atom_site_occupancy
 _atom_site_hle17_ddec_charge
 _atom_site_hle17_ddec_spin_density
 _atom_site_hle17_ddec_sum_bond_order
 _atom_site_hle17_magmom
 _atom_site_hse06_10hf_ddec_charge
 _atom_site_hse06_10hf_ddec_spin_density
 _atom_site_hse06_10hf_ddec_sum_bond_order
 _atom_site_hse06_10hf_magmom
 _atom_site_hse06_ddec_charge
 _atom_site_hse06_ddec_spin_density
 _atom_site_hse06_ddec_sum_bond_order
 _atom_site_hse06_magmom
 _atom_site_pbe_cm5_charge
 _atom_site_pbe_ddec_charge
 _atom_site_pbe_ddec_spin_density
 _atom_site_pbe_ddec_sum_bond_order
 _atom_site_pbe_magmom
Co  Co0  1  0.99999630  0.99999413  0.99999795  1  0.605269  1.141935  2.399185  1.034  0.568445  1.0564  2.821086  0.983  0.628853  1.054761  2.760141  0.989  0.668261  0.53505  1.046566  2.857619  0.962
H  H1  1  0.34906669  0.15005307  0.01636845  1  0.094189  -8.4e-05  0.976217  0.0  0.097175  -0.000161  1.049107  0.0  0.099798  -0.000131  1.044997  0.0  0.12055  0.094756  -0.000166  1.05297  0.0
H  H2  1  0.65092789  0.84994316  0.98363096  1  0.094159  -8.5e-05  0.976159  0.0  0.097174  -0.000161  1.04905  0.0  0.099791  -0.000131  1.044946  0.0  0.120542  0.094755  -0.000166  1.05291  0.0
H  H3  1  0.50974528  0.39510481  0.07115660  1  0.122132  -0.000357  0.942159  0.0  0.130762  -5.1e-05  0.999736  0.0  0.1336  -6.3e-05  0.999466  0.0  0.113688  0.128756  -2.7e-05  0.999949  0.0
H  H4  1  0.49024930  0.60489152  0.92884965  1  0.122039  -0.000356  0.942194  0.0  0.130684  -5.1e-05  0.99977  0.0  0.13352  -6.3e-05  0.999505  0.0  0.11364  0.128678  -2.7e-05  0.999984  0.0
H  H5  1  0.36416616  0.58833639  0.14704584  1  0.109132  6e-05  0.959115  0.0  0.116459  -6.7e-05  1.025832  0.0  0.119397  -3.1e-05  1.02337  0.0  0.110388  0.114057  -0.000104  1.028125  0.0
H  H6  1  0.63582894  0.41165789  0.85296227  1  0.109064  5.9e-05  0.959125  0.0  0.116398  -6.7e-05  1.025845  0.0  0.119335  -3.1e-05  1.023385  0.0  0.110372  0.113995  -0.000104  1.02814  0.0
H  H7  1  0.91674848  0.26936691  0.10733742  1  0.089792  -0.000122  0.980837  0.0  0.089363  -0.000186  1.059462  0.0  0.091666  -0.000143  1.056406  0.0  0.121947  0.08753  -0.000194  1.061967  0.0
H  H8  1  0.08324626  0.73062628  0.89266858  1  0.089904  -0.00012  0.980731  0.0  0.089388  -0.000186  1.059464  0.0  0.091691  -0.000143  1.056406  0.0  0.12196  0.087552  -0.000194  1.061964  0.0
H  H9  1  0.09980470  0.65393907  0.19437104  1  0.078719  -3.7e-05  0.958229  0.0  0.087455  1.7e-05  1.026035  0.0  0.09027  1.4e-05  1.02251  0.0  0.110861  0.085356  9e-06  1.028605  0.0
H  H10  1  0.90019420  0.34605193  0.80562599  1  0.078726  -3.5e-05  0.958286  0.0  0.087475  1.7e-05  1.026099  0.0  0.090287  1.4e-05  1.02258  0.0  0.110859  0.085377  9e-06  1.028674  0.0
H  H11  1  0.82857626  0.68684624  0.13705926  1  0.090164  -0.000102  0.991859  0.0  0.09857  -6e-05  1.059209  0.0  0.099821  -5.1e-05  1.061519  0.0  0.095308  0.097779  -7.4e-05  1.057545  0.0
H  H12  1  0.17142412  0.31316364  0.86293950  1  0.090171  -0.000102  0.99187  0.0  0.098637  -6e-05  1.059161  0.0  0.099862  -5.1e-05  1.061499  0.0  0.095321  0.097848  -7.4e-05  1.057499  0.0
H  H13  1  0.62776389  0.82891540  0.20717539  1  0.087098  -5.7e-05  0.972996  0.0  0.094407  -5e-05  1.040247  0.0  0.095948  -3.5e-05  1.041254  0.0  0.095312  0.093141  -6.8e-05  1.039695  0.0
H  H14  1  0.37223701  0.17109248  0.79282950  1  0.087073  -5.7e-05  0.972943  0.0  0.094402  -5e-05  1.040157  0.0  0.095934  -3.5e-05  1.041175  0.0  0.095314  0.093141  -6.8e-05  1.039608  0.0
H  H15  1  0.50887770  0.84102966  0.39474432  1  0.104544  -2.6e-05  0.950697  0.0  0.110862  -0.0  1.017379  0.0  0.114682  -1e-06  1.01474  0.0  0.101285  0.108005  1e-06  1.019481  0.0
H  H16  1  0.49112595  0.15897191  0.60525684  1  0.104534  -2.7e-05  0.950646  0.0  0.110864  -0.0  1.017321  0.0  0.114673  -1e-06  1.014695  0.0  0.101291  0.108006  1e-06  1.01942  0.0
H  H17  1  0.88530836  0.48301106  0.42621989  1  0.09552  -7e-06  0.970159  0.0  0.102854  -3e-06  1.038939  0.0  0.105719  -1e-06  1.038127  0.0  0.099922  0.100629  -5e-06  1.039924  0.0
H  H18  1  0.11469477  0.51699250  0.57377428  1  0.095569  -7e-06  0.970146  0.0  0.102892  -3e-06  1.038914  0.0  0.105761  -1e-06  1.038101  0.0  0.099951  0.100662  -5e-06  1.039903  0.0
H  H19  1  0.78091951  0.50462217  0.62149660  1  0.084946  -2e-05  0.968838  0.0  0.094943  -2.7e-05  1.031701  0.0  0.096755  -1.5e-05  1.031756  0.0  0.09633  0.093694  -3.3e-05  1.031421  0.0
H  H20  1  0.21909077  0.49538463  0.37850012  1  0.084927  -2.1e-05  0.9688  0.0  0.094933  -2.7e-05  1.031647  0.0  0.096748  -1.5e-05  1.031701  0.0  0.096323  0.09371  -3.3e-05  1.031344  0.0
H  H21  1  0.57999661  0.64361922  0.69214261  1  0.089284  -4.5e-05  0.97828  0.0  0.100273  -2.8e-05  1.04239  0.0  0.101584  -1.9e-05  1.044042  0.0  0.098478  0.09924  -4.2e-05  1.041587  0.0
H  H22  1  0.42001977  0.35638772  0.30786059  1  0.089198  -4.8e-05  0.978304  0.0  0.1002  -2.8e-05  1.042409  0.0  0.10151  -1.9e-05  1.044061  0.0  0.098492  0.099168  -4.2e-05  1.041603  0.0
H  H23  1  0.48570952  0.82416399  0.76452536  1  0.067636  -3.7e-05  0.942626  0.0  0.076309  -6.8e-05  1.011004  0.0  0.079067  -6.1e-05  1.007864  0.0  0.109256  0.074224  -7.1e-05  1.013375  0.0
H  H24  1  0.51427633  0.17582794  0.23547186  1  0.067612  -3.8e-05  0.942778  0.0  0.076319  -6.8e-05  1.011119  0.0  0.079078  -6.1e-05  1.00797  0.0  0.109259  0.074232  -7.1e-05  1.01349  0.0
H  H25  1  0.86240413  0.98995150  0.75711154  1  0.09  -7.3e-05  1.013331  0.0  0.087717  -5e-05  1.090753  0.0  0.09138  -4.6e-05  1.085341  0.0  0.115005  0.084773  -3.3e-05  1.094968  0.0
H  H26  1  0.13759708  0.01005004  0.24288856  1  0.089975  -7.3e-05  1.013323  0.0  0.087698  -5e-05  1.090732  0.0  0.091363  -4.6e-05  1.085315  0.0  0.114984  0.084751  -3.3e-05  1.094948  0.0
H  H27  1  0.92943472  0.92475121  0.54432241  1  0.104563  -0.000232  0.954204  0.0  0.11549  -6.3e-05  1.010536  0.0  0.117548  -6.5e-05  1.011768  0.0  0.109472  0.114078  -4.7e-05  1.009809  0.0
H  H28  1  0.07057160  0.07526196  0.45568222  1  0.104684  -0.000234  0.95424  0.0  0.115578  -6.3e-05  1.010569  0.0  0.117633  -6.5e-05  1.0118  0.0  0.109495  0.114166  -4.7e-05  1.009842  0.0
H  H29  1  0.18997221  0.84166404  0.50329453  1  0.111224  1e-05  0.922363  0.0  0.120237  -6e-05  0.981766  0.0  0.123881  -2.9e-05  0.978032  0.0  0.115369  0.117627  -8.6e-05  0.984466  0.0
H  H30  1  0.81002888  0.15834794  0.49670331  1  0.111161  1.1e-05  0.922243  0.0  0.12014  -6e-05  0.981716  0.0  0.123786  -2.9e-05  0.97798  0.0  0.115327  0.117528  -8.6e-05  0.984417  0.0
H  H31  1  0.28955269  0.90638118  0.89366338  1  0.091825  -0.000155  0.998166  0.0  0.090685  -0.000162  1.077469  0.0  0.093933  -0.000132  1.07297  0.0  0.118018  0.088027  -0.000158  1.081138  0.0
H  H32  1  0.71043835  0.09360444  0.10632858  1  0.091799  -0.000155  0.998124  0.0  0.090653  -0.000162  1.077458  0.0  0.093899  -0.000132  1.072963  0.0  0.118016  0.087991  -0.000158  1.081134  0.0
C  C33  1  0.28872639  0.23397945  0.04835430  1  0.120123  -0.013491  3.625065  -0.009  0.087955  -0.004736  3.88264  -0.003  0.098865  -0.003972  3.896629  -0.003  0.048019  0.080301  -0.005786  3.874126  -0.004
C  C34  1  0.71127742  0.76601900  0.95164832  1  0.120198  -0.013469  3.624879  -0.009  0.087945  -0.004739  3.882568  -0.003  0.098861  -0.003973  3.896558  -0.003  0.047981  0.080292  -0.005787  3.874054  -0.004
C  C35  1  0.37841435  0.37289822  0.08048678  1  -0.102681  0.003771  3.706343  0.005  -0.111463  0.00046  3.954065  0.001  -0.118743  0.000674  3.972304  0.001  -0.07491  -0.106735  0.000459  3.942225  0.001
C  C36  1  0.62158181  0.62709926  0.91952511  1  -0.102575  0.003761  3.706109  0.005  -0.111341  0.000461  3.95385  0.001  -0.118621  0.000674  3.972086  0.001  -0.074827  -0.106615  0.000459  3.942011  0.001
C  C37  1  0.29832458  0.47863173  0.12228030  1  -0.038781  -0.013364  3.655097  -0.009  -0.065925  -0.004723  3.898137  -0.003  -0.058948  -0.003543  3.912139  -0.002  -0.058299  -0.070944  -0.006476  3.889375  -0.004
C  C38  1  0.70167295  0.52136254  0.87772631  1  -0.03875  -0.01334  3.654874  -0.009  -0.065886  -0.004725  3.897908  -0.003  -0.058905  -0.003543  3.911907  -0.002  -0.058288  -0.070901  -0.006478  3.889149  -0.004
C  C39  1  0.13051560  0.44157608  0.13523727  1  -0.000738  0.003042  3.795563  0.005  0.021837  0.000282  4.029767  0.001  0.014665  0.000527  4.050777  0.001  -0.002857  0.026362  0.000243  4.015871  0.001
C  C40  1  0.86948386  0.55842034  0.86477195  1  -0.000712  0.003032  3.79552  0.005  0.021861  0.000283  4.029741  0.001  0.014692  0.000527  4.050744  0.001  -0.002839  0.026379  0.000243  4.01585  0.001
C  C41  1  0.04782075  0.29909376  0.09933111  1  0.096316  -0.015524  3.611902  -0.01  0.056899  -0.006075  3.86882  -0.004  0.068223  -0.004846  3.884183  -0.003  0.05607  0.048645  -0.006679  3.86031  -0.004
C  C42  1  0.95217571  0.70089732  0.90067257  1  0.096279  -0.015515  3.611845  -0.01  0.056957  -0.006078  3.868705  -0.004  0.068266  -0.004846  3.884092  -0.003  0.056051  0.048711  -0.00668  3.860195  -0.004
C  C43  1  0.04410294  0.54914335  0.19064048  1  0.115405  -0.003286  3.683534  -0.002  0.083751  -0.000563  3.935508  0.0  0.093187  -0.000731  3.948459  -0.001  0.079055  0.077673  -0.000395  3.926663  0.0
C  C44  1  0.95589129  0.45085188  0.80936195  1  0.115357  -0.003264  3.683306  -0.002  0.083639  -0.000563  3.935385  0.0  0.093078  -0.000729  3.948332  -0.001  0.078964  0.077562  -0.000395  3.926542  0.0
C  C45  1  0.82078249  0.61493171  0.28249384  1  0.164659  -0.000895  3.830396  -0.001  0.166548  -0.000223  4.075087  0.0  0.170693  -0.000217  4.098606  0.0  0.090494  0.163523  -0.000198  4.059533  0.0
C  C46  1  0.17922060  0.38506453  0.71750113  1  0.16447  -0.000868  3.830324  -0.001  0.16652  -0.00022  4.074842  0.0  0.170674  -0.00022  4.098363  0.0  0.090499  0.163485  -0.000198  4.059287  0.0
C  C47  1  0.77863634  0.69334013  0.22056029  1  -0.165856  0.000557  3.750158  0.001  -0.184679  6.1e-05  3.996228  0.0  -0.190435  9.4e-05  4.021374  0.0  -0.100627  -0.181163  6.1e-05  3.979798  0.0
C  C48  1  0.22136400  0.30666239  0.77943584  1  -0.165851  0.000543  3.750208  0.001  -0.184787  5.9e-05  3.996243  0.0  -0.190521  9.5e-05  4.021397  0.0  -0.100681  -0.181274  6.1e-05  3.979829  0.0
C  C49  1  0.66564599  0.77382512  0.26081026  1  -0.06587  -0.000419  3.815821  0.0  -0.077428  -0.0001  4.070753  0.0  -0.079841  -9.5e-05  4.096126  0.0  -0.098685  -0.075608  -0.000107  4.053729  0.0
C  C50  1  0.33436414  0.22618489  0.73919099  1  -0.065856  -0.000405  3.815641  0.0  -0.077402  -0.0001  4.070579  0.0  -0.079806  -9.5e-05  4.095947  0.0  -0.09867  -0.075589  -0.000107  4.053569  0.0
C  C51  1  0.59806917  0.78021094  0.36492989  1  -0.109724  0.000459  3.73683  0.001  -0.135613  5.1e-05  3.994075  0.0  -0.139153  7.9e-05  4.015044  0.0  -0.091656  -0.133266  5.7e-05  3.979817  0.0
C  C52  1  0.40193326  0.21979058  0.63506775  1  -0.109645  0.000452  3.736801  0.001  -0.13555  5.2e-05  3.994032  0.0  -0.139083  7.9e-05  4.015002  0.0  -0.091633  -0.133198  5.7e-05  3.979773  0.0
C  C53  1  0.64259711  0.70610492  0.43363276  1  -0.006643  1.4e-05  3.750947  0.0  0.00693  1.8e-05  3.975622  0.0  0.005852  1.8e-05  3.999989  0.0  -0.004879  0.008048  -9e-06  3.958715  0.0
C  C54  1  0.35741439  0.29390195  0.56636834  1  -0.006692  2.2e-05  3.750951  0.0  0.006888  1.6e-05  3.975633  0.0  0.005821  1.9e-05  4.000007  0.0  -0.004901  0.007999  -9e-06  3.958714  0.0
C  C55  1  0.75499424  0.62158362  0.39221649  1  -0.01247  0.000166  3.766545  0.0  0.001507  2.5e-05  3.990292  0.0  -0.000137  3.3e-05  4.014993  0.0  -0.00841  0.002601  2.7e-05  3.973611  0.0
C  C56  1  0.24500489  0.37841890  0.60778040  1  -0.012231  0.000157  3.76622  0.0  0.001644  2.5e-05  3.990018  0.0  -3.9e-05  3.3e-05  4.01478  0.0  -0.008401  0.002769  2.8e-05  3.973298  0.0
C  C57  1  0.80371564  0.54985933  0.46156246  1  -0.103901  0.000201  3.740097  0.0  -0.128887  3.1e-05  3.995431  0.0  -0.132493  5.9e-05  4.017356  0.0  -0.092025  -0.126381  1e-05  3.980559  0.0
C  C58  1  0.19629358  0.45014434  0.53843562  1  -0.103962  0.00021  3.740154  0.0  -0.128928  3e-05  3.995534  0.0  -0.132526  6e-05  4.017472  0.0  -0.092012  -0.126435  1e-05  3.980673  0.0
C  C59  1  0.74579386  0.56288118  0.57044931  1  -0.052226  -6e-05  3.788951  0.0  -0.067752  -3.8e-05  4.047207  0.0  -0.068976  -3.8e-05  4.070242  0.0  -0.095681  -0.066124  -3.6e-05  4.030615  0.0
C  C60  1  0.25421835  0.43712778  0.42955088  1  -0.052252  -6.8e-05  3.789071  0.0  -0.067769  -3.7e-05  4.047326  0.0  -0.068996  -4e-05  4.070364  0.0  -0.095681  -0.066164  -3.6e-05  4.030729  0.0
C  C61  1  0.63393464  0.64376234  0.61170258  1  -0.137932  0.000244  3.723578  0.0  -0.160489  1.5e-05  3.975036  0.0  -0.165035  4.3e-05  3.999119  0.0  -0.090682  -0.157788  -0.0  3.958836  0.0
C  C62  1  0.36607199  0.35624450  0.38829898  1  -0.137714  0.00026  3.723416  0.0  -0.160306  1.4e-05  3.974916  0.0  -0.164855  4.5e-05  3.999012  0.0  -0.0907  -0.157607  0.0  3.958716  0.0
C  C63  1  0.57879368  0.71333516  0.54449956  1  0.165338  -0.000382  3.808879  0.0  0.16815  -0.000116  4.052934  0.0  0.171633  -0.000137  4.076273  0.0  0.094517  0.165837  -0.000115  4.036962  0.0
C  C64  1  0.42122144  0.28666438  0.45549921  1  0.165068  -0.000403  3.809137  0.0  0.167919  -0.000115  4.053144  0.0  0.171402  -0.000139  4.076484  0.0  0.094413  0.165612  -0.000115  4.037163  0.0
C  C65  1  0.41050701  0.82087867  0.67956172  1  0.131212  -0.001925  3.679344  -0.001  0.09899  -0.000393  3.935657  0.0  0.108739  -0.000517  3.949326  0.0  0.076796  0.092527  -0.000341  3.926666  0.0
C  C66  1  0.58949003  0.17912490  0.32043709  1  0.131207  -0.001944  3.679155  -0.001  0.098911  -0.000395  3.935483  0.0  0.108669  -0.000517  3.949151  0.0  0.076772  0.092445  -0.000341  3.926494  0.0
C  C67  1  0.97363829  0.95477524  0.73739433  1  0.127553  -0.008032  3.625802  -0.006  0.094945  -0.003434  3.884329  -0.002  0.105793  -0.002765  3.898834  -0.002  0.046851  0.087825  -0.004036  3.875221  -0.003
C  C68  1  0.02635856  0.04522411  0.26260211  1  0.127702  -0.008042  3.625752  -0.006  0.095084  -0.003435  3.88423  -0.002  0.105938  -0.002765  3.898731  -0.002  0.046926  0.087951  -0.004036  3.875111  -0.003
C  C69  1  0.01337677  0.91823811  0.61821158  1  -0.106422  0.001462  3.747013  0.002  -0.117443  -1.5e-05  3.999097  0.0  -0.125595  0.000215  4.020439  0.0  -0.078254  -0.11223  -7.5e-05  3.985168  0.0
C  C70  1  0.98662044  0.08176235  0.38178869  1  -0.106853  0.001469  3.747112  0.002  -0.117791  -1.5e-05  3.999141  0.0  -0.125938  0.000214  4.020475  0.0  -0.078368  -0.112581  -7.5e-05  3.985214  0.0
C  C71  1  0.15535249  0.87277327  0.59547347  1  -0.019982  -0.007317  3.667687  -0.005  -0.04868  -0.003137  3.9164  -0.002  -0.04174  -0.002296  3.93037  -0.001  -0.053351  -0.053511  -0.004054  3.907226  -0.002
C  C72  1  0.84464632  0.12723554  0.40452478  1  -0.019609  -0.007335  3.66733  -0.005  -0.048341  -0.003138  3.915987  -0.002  -0.041406  -0.002293  3.929965  -0.001  -0.05322  -0.053175  -0.004054  3.906815  -0.002
C  C73  1  0.25850673  0.86806733  0.69572332  1  0.003623  0.001058  3.782298  0.002  0.02608  -0.000101  4.014698  0.0  0.018531  9e-05  4.038634  0.0  -0.002464  0.030893  -0.000141  3.999089  0.0
C  C74  1  0.74148399  0.13192459  0.30427001  1  0.003472  0.001063  3.782275  0.002  0.02601  -0.000101  4.014638  0.0  0.018463  8.9e-05  4.038571  0.0  -0.002502  0.030824  -0.000141  3.999027  0.0
C  C75  1  0.21208561  0.90827612  0.81362562  1  0.064704  -0.007725  3.623227  -0.005  0.027642  -0.003344  3.879723  -0.002  0.036175  -0.002745  3.896157  -0.002  0.0464  0.02218  -0.003821  3.869377  -0.003
C  C76  1  0.78790476  0.09171477  0.18636902  1  0.064784  -0.007734  3.623196  -0.005  0.027687  -0.003345  3.879691  -0.002  0.036221  -0.002742  3.896127  -0.002  0.046377  0.022214  -0.003821  3.869341  -0.003
N  N77  1  0.12371686  0.19647289  0.05499882  1  -0.243262  -0.014289  3.372887  -0.009  -0.194412  -0.011051  3.663509  -0.008  -0.22104  -0.01076  3.681598  -0.008  -0.335669  -0.177761  -0.009868  3.650648  -0.007
N  N78  1  0.87628346  0.80352246  0.94500839  1  -0.243352  -0.014299  3.372969  -0.009  -0.194489  -0.01105  3.663613  -0.008  -0.221111  -0.01076  3.681693  -0.008  -0.335694  -0.177849  -0.009868  3.650762  -0.007
N  N79  1  0.91442853  0.52018579  0.23663926  1  -0.313391  0.001791  3.136329  0.003  -0.273378  0.000355  3.403458  0.001  -0.287488  0.000445  3.420084  0.001  -0.299487  -0.263749  0.000341  3.392257  0.001
N  N80  1  0.08556870  0.47982193  0.76335593  1  -0.313271  0.001781  3.135775  0.003  -0.273267  0.000356  3.40286  0.001  -0.287372  0.000444  3.419477  0.001  -0.299324  -0.263635  0.000341  3.391657  0.001
N  N81  1  0.44988399  0.77756405  0.57014279  1  -0.329565  0.00092  3.134  0.002  -0.291145  0.000183  3.40199  0.0  -0.305376  0.000259  3.418688  0.0  -0.304094  -0.281453  0.000137  3.390403  0.0
N  N82  1  0.55012751  0.22244291  0.42986429  1  -0.329386  0.000927  3.134038  0.002  -0.290953  0.000184  3.402012  0.0  -0.305184  0.000259  3.41871  0.0  -0.304004  -0.281264  0.000137  3.390421  0.0
N  N83  1  0.07099785  0.94987160  0.83472100  1  -0.25269  -0.01586  3.343127  -0.011  -0.199498  -0.011205  3.623602  -0.008  -0.227838  -0.011108  3.645182  -0.009  -0.327127  -0.182155  -0.00957  3.60923  -0.007
N  N84  1  0.92899251  0.05011927  0.16527192  1  -0.252776  -0.015856  3.343174  -0.011  -0.199594  -0.011205  3.623685  -0.008  -0.227939  -0.011109  3.64527  -0.009  -0.327165  -0.18222  -0.00957  3.60928  -0.007
N  N85  1  0.30187604  0.87435285  0.10157714  1  0.68729  0.00223  4.140782  0.004  0.729676  0.003421  4.427026  0.006  0.758293  0.002242  4.43244  0.004  0.095107  0.710321  0.004627  4.421753  0.008
N  N86  1  0.69811417  0.12564122  0.89841946  1  0.687256  0.00223  4.140454  0.004  0.729702  0.003422  4.4267  0.006  0.758319  0.002242  4.432117  0.004  0.095133  0.710349  0.004627  4.421425  0.008
O  O87  1  0.25897947  0.97686102  0.08793598  1  -0.514867  0.008785  1.858929  0.012  -0.506724  0.008241  2.104753  0.01  -0.526152  0.005794  2.094569  0.007  -0.202895  -0.492396  0.011734  2.11109  0.015
O  O88  1  0.74102119  0.02313524  0.91206136  1  -0.514875  0.008785  1.8589  0.012  -0.506747  0.008241  2.104705  0.01  -0.526172  0.005793  2.094515  0.007  -0.202902  -0.492424  0.011734  2.111053  0.015
O  O89  1  0.37957915  0.80583603  0.02414858  1  -0.461429  0.005271  1.750115  0.009  -0.458897  0.005473  1.96744  0.009  -0.472365  0.004096  1.960403  0.007  -0.18944  -0.448152  0.007223  1.971276  0.012
O  O90  1  0.62039169  0.19414726  0.97583929  1  -0.46136  0.005273  1.749848  0.009  -0.458863  0.005473  1.967185  0.009  -0.472338  0.004095  1.960152  0.007  -0.189444  -0.448114  0.007223  1.971018  0.012
O  O91  1  0.26645063  0.84596850  0.19157991  1  -0.451235  0.002906  1.732723  0.005  -0.446319  0.003458  1.934363  0.006  -0.458812  0.002531  1.927629  0.004  -0.18713  -0.436552  0.004602  1.938299  0.008
O  O92  1  0.73354555  0.15403618  0.80842263  1  -0.451258  0.002904  1.732715  0.005  -0.446371  0.003456  1.934353  0.006  -0.458845  0.002533  1.927579  0.004  -0.187146  -0.436602  0.004601  1.938295  0.008
