# generated using pymatgen
data_Zn4H52C87(N10O)2
_symmetry_space_group_name_H-M   'P 1'
_cell_length_a   19.06365074
_cell_length_b   18.73994596
_cell_length_c   21.41492755
_cell_angle_alpha   106.01660022
_cell_angle_beta   107.32268206
_cell_angle_gamma   110.68772041
_symmetry_Int_Tables_number   1
_chemical_formula_structural   Zn4H52C87(N10O)2
_chemical_formula_sum   'Zn4 H52 C87 N20 O2'
_cell_volume   6179.25641864
_cell_formula_units_Z   1
loop_
 _symmetry_equiv_pos_site_id
 _symmetry_equiv_pos_as_xyz
  1  'x, y, z'
loop_
 _atom_site_type_symbol
 _atom_site_label
 _atom_site_symmetry_multiplicity
 _atom_site_fract_x
 _atom_site_fract_y
 _atom_site_fract_z
 _atom_site_occupancy
 _atom_site_pbe_bader_charge
 _atom_site_pbe_bader_spin_density
 _atom_site_pbe_cm5_charge
 _atom_site_pbe_ddec_charge
 _atom_site_pbe_ddec_spin_density
 _atom_site_pbe_ddec_sum_bond_order
 _atom_site_pbe_magmom
Zn  Zn0  1  0.89095066  0.89024431  0.49118105  1  1.188441  0  0.741973  0.64833  0  2.317147  0
Zn  Zn1  1  0.07524532  0.10707480  0.47988388  1  1.155724  0  0.789727  0.682899  0  2.335596  0
Zn  Zn2  1  0.09204191  0.04583146  0.63607699  1  1.198941  0  0.749135  0.662161  0  2.357915  0
Zn  Zn3  1  0.87388208  0.98654118  0.37871677  1  1.195271  0  0.749729  0.638948  0  2.383042  0
H  H4  1  0.85109747  0.80798356  0.60375508  1  0.097276  0  0.119672  0.107353  0  0.99096  0
H  H5  1  0.27035144  0.17804712  0.51046128  1  0.077222  0  0.117249  0.104714  0  1.004502  0
H  H6  1  0.11775522  0.89561499  0.67900472  1  0.081962  0  0.117417  0.106316  0  0.992446  0
H  H7  1  0.87970524  0.96798261  0.21558410  1  0.091085  0  0.125338  0.113092  0  0.978698  0
H  H8  1  0.13118006  0.03994044  0.36126808  1  0.075823  0  0.124268  0.11363  0  0.993222  0
H  H9  1  0.93504298  0.74843783  0.45503773  1  0.106684  0  0.1089  0.09666  0  1.052353  0
H  H10  1  0.88559820  0.85813581  0.25653303  1  0.095335  0  0.108395  0.08944  0  1.079009  0
H  H11  1  0.24688536  0.03537049  0.63814666  1  0.092211  0  0.118034  0.101863  0  1.003037  0
H  H12  1  0.40888885  0.20997096  0.54853680  1  0.029708  0  0.096861  0.098033  0  1.013485  0
H  H13  1  0.36263305  0.02065702  0.63072767  1  0.047142  0  0.098442  0.101769  0  1.009106  0
H  H14  1  0.45816971  0.95899395  0.65145022  1  0.036897  0  0.100109  0.101094  0  0.996256  0
H  H15  1  0.08116299  0.25039624  0.61126119  1  0.128937  0  0.118563  0.112694  0  1.037898  0
H  H16  1  0.56602370  0.93044791  0.62568169  1  0.048061  0  0.101206  0.10262  0  0.994716  0
H  H17  1  0.65677073  0.94455991  0.56232055  1  0.055455  0  0.099274  0.102929  0  1.00623  0
H  H18  1  0.69759120  0.12740464  0.47342247  1  0.035817  0  0.093563  0.093018  0  1.025289  0
H  H19  1  0.63222393  0.22136175  0.48755678  1  0.055678  0  0.097603  0.097549  0  1.004534  0
H  H20  1  0.52699728  0.25243315  0.51627326  1  0.043252  0  0.099876  0.100477  0  0.996366  0
H  H21  1  0.13244490  0.76009282  0.65943459  1  0.062046  0  0.097687  0.100425  0  1.009396  0
H  H22  1  0.87651806  0.64337970  0.50171166  1  0.039242  0  0.096589  0.099438  0  1.012652  0
H  H23  1  0.78144462  0.49236281  0.46311776  1  0.076045  0  0.100047  0.100832  0  0.996306  0
H  H24  1  0.76295340  0.35344736  0.45878693  1  0.070783  0  0.097995  0.098251  0  1.00231  0
H  H25  1  0.82811144  0.26552073  0.48601584  1  0.067405  0  0.094978  0.094942  0  1.02508  0
H  H26  1  0.26924188  0.13368922  0.78054719  1  0.069107  0  0.109782  0.096137  0  1.007279  0
H  H27  1  0.08435051  0.38311555  0.64443947  1  0.042918  0  0.101447  0.107509  0  1.00399  0
H  H28  1  0.16607216  0.53863050  0.71028802  1  0.044234  0  0.101414  0.102723  0  0.993449  0
H  H29  1  0.18453480  0.67752923  0.71469948  1  0.067128  0  0.100978  0.102793  0  0.994425  0
H  H30  1  0.41649477  0.20993200  0.83255391  1  0.100956  0  0.103555  0.109494  0  1.004763  0
H  H31  1  0.75797069  0.46645955  0.12399213  1  0.083609  0  0.107899  0.115839  0  0.997359  0
H  H32  1  0.39755768  0.40847020  0.77618032  1  0.057921  0  0.101653  0.10279  0  1.001855  0
H  H33  1  0.70612543  0.62597945  0.02792605  1  0.099721  0  0.102961  0.103322  0  1.021302  0
H  H34  1  0.54933727  0.50158319  0.85567456  1  0.099513  0  0.107482  0.109963  0  0.995162  0
H  H35  1  0.68930942  0.98951183  0.37006094  1  0.083302  0  0.117316  0.106388  0  0.989569  0
H  H36  1  0.77716674  0.74440938  0.14996004  1  0.03678  0  0.094577  0.091944  0  1.015986  0
H  H37  1  0.89148789  0.86239919  0.13315969  1  0.034766  0  0.096759  0.092753  0  1.017599  0
H  H38  1  0.90321104  0.81530505  0.01809602  1  0.111891  0  0.107738  0.109463  0  1.010529  0
H  H39  1  0.86128435  0.74758416  0.81495069  1  0.091798  0  0.107827  0.111204  0  0.989764  0
H  H40  1  0.84360039  0.78219647  0.70901958  1  0.056634  0  0.100294  0.101933  0  0.999479  0
H  H41  1  0.15774177  0.02709889  0.24696243  1  0.047402  0  0.100487  0.101729  0  0.996778  0
H  H42  1  0.09986488  0.97035107  0.94174099  1  0.091091  0  0.104747  0.104931  0  1.016932  0
H  H43  1  0.16835631  0.97739708  0.13120233  1  0.080693  0  0.107518  0.110758  0  0.992427  0
H  H44  1  0.08332872  0.00591781  0.83661234  1  0.033812  0  0.100884  0.102485  0  0.999963  0
H  H45  1  0.25635092  0.33387942  0.72202802  1  0.038105  0  0.106969  0.08869  0  1.006951  0
H  H46  1  0.81232238  0.98200491  0.57188467  1  0.11163  0  0.120532  0.116935  0  1.003722  0
H  H47  1  0.83668634  0.14666208  0.43464735  1  0.068738  0  0.116886  0.099271  0  1.011621  0
H  H48  1  0.04588959  0.06168679  0.75611968  1  0.108175  0  0.121032  0.11317  0  1.002229  0
H  H49  1  0.80785406  0.68956684  0.35347626  1  0.098282  0  0.120403  0.109492  0  0.997025  0
H  H50  1  0.58031864  0.20666352  0.94590727  1  0.593522  0  0.339296  0.377935  0  0.859664  0
H  H51  1  0.74672620  0.46652258  0.23639580  1  0.077486  0  0.098987  0.0995  0  1.002626  0
H  H52  1  0.82267767  0.44445222  0.33985172  1  0.038289  0  0.095756  0.091032  0  1.008579  0
H  H53  1  0.97081674  0.54846992  0.42497682  1  0.068472  0  0.100415  0.100063  0  1.001981  0
H  H54  1  0.04302717  0.67485199  0.40622052  1  0.060127  0  0.102355  0.100408  0  0.987585  0
H  H55  1  0.96715649  0.69661668  0.30296824  1  0.063437  0  0.101284  0.102863  0  0.999732  0
C  C56  1  0.89773298  0.87414363  0.63195345  1  0.405194  0  0.014317  -0.039923  0  3.968882  0
C  C57  1  0.95728292  0.23342035  0.53678754  1  0.023562  0  -0.0294  -0.029454  0  4.034046  0
C  C58  1  0.30328222  0.25476006  0.76674172  1  -0.030344  0  -0.043626  -0.054059  0  4.090728  0
C  C59  1  0.73071872  0.00055474  0.48404353  1  0.04914  0  -0.033711  -0.033561  0  4.068504  0
C  C60  1  0.83010741  0.74261239  0.34022776  1  0.421584  0  0.015986  -0.033703  0  3.946684  0
C  C61  1  0.25269999  0.14289458  0.54078835  1  0.379941  0  0.002382  -0.063816  0  4.001564  0
C  C62  1  0.07496105  0.87191988  0.62264748  1  0.435719  0  0.008012  -0.048282  0  3.978206  0
C  C63  1  0.93864651  0.99071847  0.26133871  1  0.381872  0  0.01843  -0.034602  0  3.979144  0
C  C64  1  0.06728987  0.02800531  0.33500860  1  0.444342  0  0.016606  -0.037354  0  3.951851  0
C  C65  1  0.97998458  0.79714076  0.50896217  1  0.329204  0  -0.007897  -0.06789  0  3.998594  0
C  C66  1  0.86907073  0.82871646  0.29058608  1  0.356138  0  0.000973  -0.049698  0  3.982999  0
C  C67  1  0.02302183  0.21562553  0.56199796  1  0.362571  0  0.013656  -0.035908  0  3.93293  0
C  C68  1  0.23975908  0.06949595  0.60521237  1  0.424472  0  0.016007  -0.030277  0  3.949764  0
C  C69  1  0.83817045  0.74343618  0.27705581  1  0.039556  0  -0.031223  -0.030234  0  4.066325  0
C  C70  1  0.29553799  0.11113395  0.58065225  1  0.021366  0  -0.030672  -0.026739  0  4.061823  0
C  C71  1  0.02082983  0.78825646  0.57047933  1  -0.019718  0  -0.038907  -0.03864  0  4.088231  0
C  C72  1  0.01193539  0.98882692  0.26127494  1  0.0346  0  -0.027603  -0.029621  0  4.063618  0
C  C73  1  0.42475190  0.16483457  0.56399097  1  0.021877  0  -0.09305  -0.18897  0  3.943576  0
C  C74  1  0.37506418  0.11365680  0.58737994  1  -0.020938  0  -0.012088  0.09003  0  4.085097  0
C  C75  1  0.39958122  0.05978770  0.61109669  1  -0.070388  0  -0.091984  -0.188083  0  3.937369  0
C  C76  1  0.46768297  0.05051837  0.60580058  1  -0.020479  0  -0.008258  0.083363  0  4.05231  0
C  C77  1  0.51272732  0.09669685  0.57511991  1  0.019871  0  0.001259  0.003632  0  3.911119  0
C  C78  1  0.25225767  0.17532621  0.76034736  1  0.38013  0  -0.006902  -0.064029  0  4.021481  0
C  C79  1  0.49257400  0.15692765  0.55664130  1  -0.022589  0  -0.010332  0.079094  0  4.060197  0
C  C80  1  0.49074570  0.99213022  0.62577407  1  -0.042845  0  -0.092589  -0.136029  0  4.023165  0
C  C81  1  0.55022734  0.97621170  0.61140208  1  -0.014292  0  -0.091749  -0.134069  0  4.021328  0
C  C82  1  0.59172315  0.01697388  0.57549878  1  0.001249  0  -0.009331  0.083134  0  4.054993  0
C  C83  1  0.57385804  0.07947155  0.55937916  1  -0.033422  0  0.001836  -0.000416  0  3.915313  0
C  C84  1  0.61462394  0.12143426  0.52399295  1  0.02337  0  -0.010653  0.08149  0  4.050988  0
C  C85  1  0.59801486  0.18640896  0.51132140  1  -0.072022  0  -0.093507  -0.134394  0  4.022761  0
C  C86  1  0.53994745  0.20374589  0.52731419  1  -0.027886  0  -0.093749  -0.135144  0  4.02317  0
C  C87  1  0.64560880  0.99460079  0.55249922  1  -0.036074  0  -0.09082  -0.187473  0  3.938545  0
C  C88  1  0.68140543  0.03144663  0.51339320  1  0.015227  0  -0.01078  0.093134  0  4.07663  0
C  C89  1  0.72763972  0.98286172  0.41483119  1  0.379485  0  0.005561  -0.050122  0  3.999054  0
C  C90  1  0.66723062  0.09608033  0.50126303  1  -0.06085  0  -0.093849  -0.190826  0  3.946058  0
C  C91  1  0.07085921  0.70479473  0.62690155  1  -0.019272  0  -0.092636  -0.190137  0  3.941857  0
C  C92  1  0.00662232  0.71024840  0.57868874  1  -0.012508  0  -0.010961  0.09368  0  4.083022  0
C  C93  1  0.92747090  0.63893184  0.53771247  1  -0.008536  0  -0.093026  -0.190329  0  3.953559  0
C  C94  1  0.91261314  0.56137968  0.54045251  1  -0.066524  0  -0.011474  0.07566  0  4.06274  0
C  C95  1  0.97976948  0.55508067  0.58638069  1  0.025357  0  -0.000112  -0.00445  0  3.925083  0
C  C96  1  0.05905848  0.62870033  0.63178102  1  -0.042839  0  -0.010992  0.081543  0  4.05808  0
C  C97  1  0.83332393  0.48676368  0.49642561  1  -0.037389  0  -0.092947  -0.134485  0  4.026092  0
C  C98  1  0.82317434  0.40997300  0.49403369  1  -0.069427  0  -0.095483  -0.139296  0  4.025674  0
C  C99  1  0.89153818  0.40090157  0.53528206  1  0.047037  0  -0.011098  0.080862  0  4.059208  0
C  C100  1  0.24449160  0.27635951  0.72951611  1  0.471001  0  -0.000157  -0.043494  0  4.034086  0
C  C101  1  0.96917947  0.47532472  0.58391322  1  -0.041464  0  -0.000892  -0.002373  0  3.923706  0
C  C102  1  0.03780441  0.46818807  0.62649204  1  -0.011185  0  -0.009726  0.080604  0  4.059536  0
C  C103  1  0.11472514  0.54395136  0.67581005  1  -0.016067  0  -0.092831  -0.134596  0  4.020689  0
C  C104  1  0.12494691  0.62070879  0.67819047  1  -0.094087  0  -0.094215  -0.137691  0  4.023726  0
C  C105  1  0.88674385  0.32193700  0.52563192  1  -0.054034  0  -0.094315  -0.192026  0  3.944613  0
C  C106  1  0.95664466  0.31425116  0.56158246  1  -0.040521  0  -0.010552  0.09305  0  4.072726  0
C  C107  1  0.02997968  0.38781257  0.61463122  1  0.008648  0  -0.089837  -0.184325  0  3.92997  0
C  C108  1  0.81016243  0.67425969  0.20754677  1  0.007052  0  -0.003736  0.043127  0  3.974045  0
C  C109  1  0.77626881  0.68436413  0.14429253  1  -0.062046  0  -0.095663  -0.123978  0  4.018697  0
C  C110  1  0.73575657  0.61866352  0.07606086  1  -0.014008  0  -0.089048  -0.141178  0  3.980262  0
C  C111  1  0.78957483  0.97819805  0.51757721  1  0.399476  0  0.01237  -0.032469  0  3.949743  0
C  C112  1  0.72526091  0.53809826  0.06886349  1  0.320596  0  0.083848  0.172683  0  4.060111  0
C  C113  1  0.76363012  0.52840838  0.13064725  1  -0.017226  0  -0.079772  -0.184676  0  3.916653  0
C  C114  1  0.80794874  0.59565275  0.19971760  1  -0.007665  0  -0.006469  0.028743  0  3.965866  0
C  C115  1  0.53000569  0.32548251  0.88140211  1  0.0474  0  -0.005723  -0.077409  0  3.93175  0
C  C116  1  0.44454916  0.27464985  0.83859181  1  -0.100811  0  -0.080688  -0.135045  0  3.908517  0
C  C117  1  0.56693963  0.41085600  0.89169370  1  0.423815  0  0.094039  0.151777  0  4.019711  0
C  C118  1  0.39355879  0.30438065  0.80336605  1  0.004709  0  0.001454  0.10752  0  4.031987  0
C  C119  1  0.43394414  0.38488051  0.80577851  1  0.041506  0  -0.09288  -0.130131  0  3.986173  0
C  C120  1  0.51889855  0.43678718  0.84901580  1  -0.108298  0  -0.08041  -0.135897  0  3.992551  0
C  C121  1  0.96102788  0.89822199  0.76552884  1  0.019784  0  -0.003043  0.09717  0  4.027324  0
C  C122  1  0.89756613  0.16057705  0.47219273  1  0.461574  0  0.018719  -0.022018  0  3.950358  0
C  C123  1  0.03437380  0.94912460  0.83154732  1  -0.042773  0  -0.093097  -0.128045  0  3.988575  0
C  C124  1  0.04468592  0.92938665  0.89012873  1  -0.018924  0  -0.086837  -0.133477  0  3.971764  0
C  C125  1  0.98107896  0.85728539  0.88502144  1  0.377804  0  0.081661  0.16003  0  4.061988  0
C  C126  1  0.90982701  0.80347933  0.81842396  1  -0.069625  0  -0.080739  -0.132401  0  3.973176  0
C  C127  1  0.90030770  0.82343889  0.75961636  1  -0.017343  0  -0.095178  -0.13536  0  3.989532  0
C  C128  1  0.95830520  0.86099431  0.06873737  1  0.036912  0  -0.083043  -0.1283  0  3.95547  0
C  C129  1  0.95238649  0.88873387  0.13292918  1  -0.066515  0  -0.091823  -0.124489  0  3.994076  0
C  C130  1  0.03623579  0.89611754  0.06738755  1  0.294143  0  0.085499  0.169332  0  4.04695  0
C  C131  1  0.02310084  0.95199314  0.19771751  1  -0.041414  0  -0.00825  0.082082  0  4.038753  0
C  C132  1  0.10177100  0.97985461  0.19726834  1  0.041546  0  -0.093716  -0.130412  0  3.995284  0
C  C133  1  0.99733270  0.00321448  0.70969927  1  0.380851  0  0.006168  -0.049778  0  3.970151  0
C  C134  1  0.10826323  0.95224999  0.13293577  1  -0.048453  0  -0.081994  -0.136883  0  3.972157  0
C  C135  1  0.95075059  0.92374859  0.70640399  1  -0.003531  0  -0.035854  -0.04621  0  4.081592  0
C  C136  1  0.58169713  0.28749728  0.90951869  1  1.504953  0  0.224316  0.574612  0  4.160531  0
C  C137  1  0.85162415  0.58318259  0.26255528  1  0.001843  0  -0.012494  0.066876  0  4.013103  0
C  C138  1  0.81186745  0.51203776  0.27355160  1  -0.056623  0  -0.097165  -0.14457  0  3.997537  0
C  C139  1  0.85448896  0.49963986  0.33159643  1  -0.11048  0  -0.101033  -0.089719  0  4.053808  0
C  C140  1  0.93771421  0.55797860  0.37950587  1  -0.060037  0  -0.09669  -0.089864  0  4.028039  0
C  C141  1  0.97804116  0.62895935  0.36906703  1  -0.025041  0  -0.095731  -0.083569  0  4.038506  0
C  C142  1  0.93537919  0.64147948  0.31126817  1  -0.02763  0  -0.091329  -0.134051  0  3.98571  0
N  N143  1  0.91350465  0.92032995  0.59494961  1  -0.808915  0  -0.278978  -0.173965  0  3.612988  0
N  N144  1  0.17836360  0.12236645  0.54302822  1  -0.819061  0  -0.302729  -0.191848  0  3.710788  0
N  N145  1  0.06534346  0.92514990  0.59393044  1  -0.798063  0  -0.284673  -0.178443  0  3.64707  0
N  N146  1  0.94845533  0.02642448  0.32917608  1  -0.776545  0  -0.278113  -0.198  0  3.511858  0
N  N147  1  0.02890552  0.04988935  0.37502721  1  -0.822739  0  -0.291017  -0.198727  0  3.640408  0
N  N148  1  0.00631641  0.87986102  0.52340998  1  -0.757775  0  -0.283312  -0.239268  0  3.44867  0
N  N149  1  0.87806420  0.87503023  0.35585140  1  -0.810233  0  -0.284381  -0.208626  0  3.574449  0
N  N150  1  0.16978873  0.07646613  0.58247084  1  -0.748194  0  -0.260944  -0.187073  0  3.507179  0
N  N151  1  0.66697065  0.46448652  0.00475523  1  -0.495253  0  -0.152334  -0.131659  0  3.267422  0
N  N152  1  0.64128127  0.47803512  0.94937613  1  -0.490658  0  -0.154283  -0.139926  0  3.307805  0
N  N153  1  0.97859833  0.84301679  0.94546616  1  -0.483204  0  -0.156012  -0.141518  0  3.297446  0
N  N154  1  0.00381575  0.13862964  0.51454411  1  -0.819982  0  -0.304588  -0.217094  0  3.642437  0
N  N155  1  0.04581734  0.89025178  0.00377830  1  -0.516844  0  -0.162614  -0.156557  0  3.292219  0
N  N156  1  0.17097062  0.15278409  0.72232389  1  -0.823824  0  -0.306373  -0.221678  0  3.615267  0
N  N157  1  0.77967180  0.95114618  0.40731687  1  -0.795071  0  -0.293029  -0.208145  0  3.54994  0
N  N158  1  0.16614609  0.21588099  0.70260317  1  -0.737668  0  -0.273698  -0.238602  0  3.260928  0
N  N159  1  0.81906898  0.94946774  0.47184496  1  -0.807151  0  -0.28149  -0.204881  0  3.576488  0
N  N160  1  0.92635308  0.10520624  0.45910097  1  -0.805628  0  -0.281184  -0.190558  0  3.606414  0
N  N161  1  0.97595511  0.00089847  0.64263816  1  -0.765931  0  -0.277964  -0.219849  0  3.427126  0
N  N162  1  0.85309887  0.82113409  0.38628716  1  -0.784935  0  -0.277132  -0.173322  0  3.573801  0
O  O163  1  0.64784797  0.29909799  0.90733524  1  -1.120764  0  -0.302429  -0.488027  0  2.058399  0
O  O164  1  0.54330166  0.23094518  0.93310447  1  -1.105875  0  -0.35135  -0.502011  0  2.200965  0
