# generated using pymatgen
data_CdH14C12(SN2)2
_symmetry_space_group_name_H-M   'P 1'
_cell_length_a   3.87327300
_cell_length_b   11.93059447
_cell_length_c   15.11098942
_cell_angle_alpha   90.00050382
_cell_angle_beta   94.64621524
_cell_angle_gamma   90.00039933
_symmetry_Int_Tables_number   1
_chemical_formula_structural   CdH14C12(SN2)2
_chemical_formula_sum   'Cd2 H28 C24 S4 N8'
_cell_volume   695.99095075
_cell_formula_units_Z   2
loop_
 _symmetry_equiv_pos_site_id
 _symmetry_equiv_pos_as_xyz
  1  'x, y, z'
loop_
 _atom_site_type_symbol
 _atom_site_label
 _atom_site_symmetry_multiplicity
 _atom_site_fract_x
 _atom_site_fract_y
 _atom_site_fract_z
 _atom_site_occupancy
 _atom_site_hle17_bader_spin_density
 _atom_site_hle17_ddec_charge
 _atom_site_hle17_ddec_spin_density
 _atom_site_hle17_ddec_sum_bond_order
 _atom_site_hle17_magmom
 _atom_site_hse06_10hf_bader_spin_density
 _atom_site_hse06_10hf_ddec_charge
 _atom_site_hse06_10hf_ddec_spin_density
 _atom_site_hse06_10hf_ddec_sum_bond_order
 _atom_site_hse06_10hf_magmom
 _atom_site_hse06_bader_spin_density
 _atom_site_hse06_ddec_charge
 _atom_site_hse06_ddec_spin_density
 _atom_site_hse06_ddec_sum_bond_order
 _atom_site_hse06_magmom
 _atom_site_pbe_bader_spin_density
 _atom_site_pbe_cm5_charge
 _atom_site_pbe_ddec_charge
 _atom_site_pbe_ddec_spin_density
 _atom_site_pbe_ddec_sum_bond_order
 _atom_site_pbe_magmom
Cd  Cd0  1  0.49999944  0.99999313  0.99999380  1  0  0.759155  0  2.071579  0  0  0.592883  0  2.512785  0  0  0.637148  0  2.485761  0  0  0.580086  0.562134  0  2.530885  0
Cd  Cd1  1  0.49997696  0.49999936  0.50000625  1  0  0.759199  0  2.071651  0  0  0.592939  0  2.512847  0  0  0.637206  0  2.485823  0  0  0.580107  0.562192  0  2.530945  0
H  H2  1  0.42116556  0.74925406  0.31384274  1  0  0.126436  0  0.977972  0  0  0.13161  0  1.048018  0  0  0.135738  0  1.047129  0  0  0.094499  0.128533  0  1.049101  0
H  H3  1  0.42122360  0.75075297  0.81385443  1  0  0.126383  0  0.978039  0  0  0.131559  0  1.048062  0  0  0.135717  0  1.047148  0  0  0.09446  0.128482  0  1.049142  0
H  H4  1  0.57881939  0.25074634  0.68615517  1  0  0.126403  0  0.977965  0  0  0.131563  0  1.048012  0  0  0.135692  0  1.047123  0  0  0.094477  0.128485  0  1.049094  0
H  H5  1  0.57877432  0.24924995  0.18614970  1  0  0.126361  0  0.97791  0  0  0.131555  0  1.047953  0  0  0.135712  0  1.047042  0  0  0.094495  0.128477  0  1.049038  0
H  H6  1  0.71454258  0.75385807  0.08010175  1  0  0.11707  0  0.945824  0  0  0.136634  0  1.008939  0  0  0.138613  0  1.007978  0  0  0.088992  0.135172  0  1.009658  0
H  H7  1  0.71454350  0.74614034  0.58010627  1  0  0.117132  0  0.945832  0  0  0.13671  0  1.008925  0  0  0.138687  0  1.007966  0  0  0.088995  0.135249  0  1.009648  0
H  H8  1  0.28548642  0.24612976  0.91990038  1  0  0.117062  0  0.945871  0  0  0.136645  0  1.008945  0  0  0.138622  0  1.007986  0  0  0.089004  0.135184  0  1.009664  0
H  H9  1  0.28544144  0.25384665  0.41989031  1  0  0.117118  0  0.945909  0  0  0.136703  0  1.008974  0  0  0.138684  0  1.00801  0  0  0.088991  0.135241  0  1.009694  0
H  H10  1  0.40091579  0.66319859  0.12279919  1  0  0.121559  0  0.936332  0  0  0.145746  0  0.993661  0  0  0.147282  0  0.993075  0  0  0.098514  0.144662  0  0.994056  0
H  H11  1  0.40092926  0.83679371  0.62280725  1  0  0.121658  0  0.936217  0  0  0.145826  0  0.993563  0  0  0.14736  0  0.992981  0  0  0.09856  0.144745  0  0.99396  0
H  H12  1  0.59911063  0.33679510  0.87720685  1  0  0.121556  0  0.936302  0  0  0.14571  0  0.993664  0  0  0.147243  0  0.99308  0  0  0.098497  0.144627  0  0.994059  0
H  H13  1  0.59906866  0.16320166  0.37719622  1  0  0.121569  0  0.936323  0  0  0.145729  0  0.993682  0  0  0.147263  0  0.993098  0  0  0.098503  0.144647  0  0.994077  0
H  H14  1  0.79504739  0.68595098  0.18642365  1  0  0.129977  0  0.977738  0  0  0.143246  0  1.048694  0  0  0.145756  0  1.048049  0  0  0.093972  0.141423  0  1.04922  0
H  H15  1  0.79505512  0.81405213  0.68642746  1  0  0.130046  0  0.97777  0  0  0.143304  0  1.048691  0  0  0.145811  0  1.048041  0  0  0.093997  0.141488  0  1.049213  0
H  H16  1  0.20495313  0.31404272  0.81358252  1  0  0.130029  0  0.977596  0  0  0.143244  0  1.048631  0  0  0.145751  0  1.047985  0  0  0.093929  0.141417  0  1.049162  0
H  H17  1  0.20494020  0.18594911  0.31357330  1  0  0.130073  0  0.9778  0  0  0.143315  0  1.048724  0  0  0.145821  0  1.048069  0  0  0.094004  0.141498  0  1.049245  0
H  H18  1  0.95170218  0.99621271  0.41101060  1  0  0.116319  0  0.95611  0  0  0.136482  0  1.017619  0  0  0.1384  0  1.016736  0  0  0.094225  0.135054  0  1.018306  0
H  H19  1  0.95169214  0.50379910  0.91101982  1  0  0.116269  0  0.95627  0  0  0.136471  0  1.017686  0  0  0.138385  0  1.016808  0  0  0.094236  0.135042  0  1.018373  0
H  H20  1  0.04831123  0.00379775  0.58897929  1  0  0.116356  0  0.956189  0  0  0.136524  0  1.017668  0  0  0.138439  0  1.01679  0  0  0.094238  0.135094  0  1.018356  0
H  H21  1  0.04830581  0.49620801  0.08899291  1  0  0.11632  0  0.956261  0  0  0.136472  0  1.017772  0  0  0.138388  0  1.016887  0  0  0.09422  0.135043  0  1.018458  0
H  H22  1  0.32987686  0.91538889  0.44412888  1  0  0.113725  0  0.947219  0  0  0.137687  0  1.005293  0  0  0.138905  0  1.005471  0  0  0.095268  0.136829  0  1.005138  0
H  H23  1  0.32985062  0.58462021  0.94413767  1  0  0.113927  0  0.94718  0  0  0.137848  0  1.005259  0  0  0.139065  0  1.005435  0  0  0.095359  0.136989  0  1.005104  0
H  H24  1  0.67014692  0.08461570  0.55586320  1  0  0.113853  0  0.947179  0  0  0.137811  0  1.005237  0  0  0.139026  0  1.005415  0  0  0.095329  0.136953  0  1.00508  0
H  H25  1  0.67015248  0.41539025  0.05586590  1  0  0.113769  0  0.947222  0  0  0.137666  0  1.005386  0  0  0.138883  0  1.005564  0  0  0.095249  0.136808  0  1.00523  0
H  H26  1  0.93496125  0.84584552  0.41482300  1  0  0.12046  0  0.963587  0  0  0.141882  0  1.025978  0  0  0.143737  0  1.025664  0  0  0.08975  0.140573  0  1.026184  0
H  H27  1  0.93496777  0.65415540  0.91483494  1  0  0.120506  0  0.96347  0  0  0.141899  0  1.025892  0  0  0.143749  0  1.025582  0  0  0.089761  0.140592  0  1.026097  0
H  H28  1  0.06504180  0.15415656  0.58516734  1  0  0.120554  0  0.963445  0  0  0.141949  0  1.025858  0  0  0.143801  0  1.025545  0  0  0.089756  0.140639  0  1.026064  0
H  H29  1  0.06503537  0.34584668  0.08517856  1  0  0.120444  0  0.963593  0  0  0.141882  0  1.025962  0  0  0.143737  0  1.025645  0  0  0.089766  0.140573  0  1.026168  0
C  C30  1  0.16810140  0.99879627  0.16789886  1  0  0.429527  0  3.791494  0  0  0.404799  0  4.075912  0  0  0.426438  0  4.086612  0  0  0.222892  0.390317  0  4.068283  0
C  C31  1  0.16807060  0.50120438  0.66791557  1  0  0.429614  0  3.791537  0  0  0.404861  0  4.075989  0  0  0.426507  0  4.086687  0  0  0.222907  0.390377  0  4.068351  0
C  C32  1  0.83192235  0.00118988  0.83208396  1  0  0.429625  0  3.791565  0  0  0.40494  0  4.075932  0  0  0.426583  0  4.086627  0  0  0.222951  0.390457  0  4.068295  0
C  C33  1  0.83188074  0.49880021  0.33209819  1  0  0.429543  0  3.791329  0  0  0.404925  0  4.075618  0  0  0.426567  0  4.086304  0  0  0.222918  0.390441  0  4.067983  0
C  C34  1  0.17797505  0.91360933  0.30411423  1  0  0.368864  0  3.717974  0  0  0.3759  0  3.967581  0  0  0.389402  0  3.983812  0  0  0.134998  0.367116  0  3.956307  0
C  C35  1  0.17793595  0.58639704  0.80413535  1  0  0.369065  0  3.717581  0  0  0.376036  0  3.967219  0  0  0.389546  0  3.983438  0  0  0.135008  0.367248  0  3.955943  0
C  C36  1  0.82207202  0.08639275  0.69587105  1  0  0.368914  0  3.717513  0  0  0.375901  0  3.967173  0  0  0.389407  0  3.983392  0  0  0.135084  0.367113  0  3.955894  0
C  C37  1  0.82202576  0.41361090  0.19587995  1  0  0.368827  0  3.717817  0  0  0.375908  0  3.967326  0  0  0.389413  0  3.983554  0  0  0.135053  0.367124  0  3.95604  0
C  C38  1  0.43248190  0.82353967  0.18348816  1  0  0.384454  0  3.71637  0  0  0.385876  0  3.960644  0  0  0.400329  0  3.977618  0  0  0.134633  0.376435  0  3.948788  0
C  C39  1  0.43249153  0.67646259  0.68349635  1  0  0.384636  0  3.716447  0  0  0.38588  0  3.960928  0  0  0.400334  0  3.977918  0  0  0.134565  0.376437  0  3.949074  0
C  C40  1  0.56756260  0.17645151  0.81650236  1  0  0.384466  0  3.716771  0  0  0.385961  0  3.96089  0  0  0.400415  0  3.977855  0  0  0.134608  0.376522  0  3.949026  0
C  C41  1  0.56747789  0.32354033  0.31650587  1  0  0.384462  0  3.716668  0  0  0.385677  0  3.961225  0  0  0.400123  0  3.97821  0  0  0.134466  0.376239  0  3.949361  0
C  C42  1  0.35144698  0.82125770  0.27177583  1  0  -0.292748  0  3.623434  0  0  -0.312788  0  3.864338  0  0  -0.326582  0  3.883785  0  0  -0.098311  -0.304072  0  3.851612  0
C  C43  1  0.35150586  0.67875541  0.77178107  1  0  -0.292931  0  3.623117  0  0  -0.312859  0  3.864012  0  0  -0.326687  0  3.883427  0  0  -0.098338  -0.304143  0  3.851288  0
C  C44  1  0.64853800  0.17874773  0.72822870  1  0  -0.292691  0  3.623381  0  0  -0.312693  0  3.864243  0  0  -0.326487  0  3.883683  0  0  -0.09829  -0.303974  0  3.851512  0
C  C45  1  0.64851020  0.32125254  0.22822542  1  0  -0.292618  0  3.6232  0  0  -0.312589  0  3.864061  0  0  -0.326414  0  3.883488  0  0  -0.098257  -0.303871  0  3.85133  0
C  C46  1  0.59992534  0.72710688  0.14073811  1  0  -0.376156  0  3.673088  0  0  -0.454723  0  3.904739  0  0  -0.45892  0  3.91061  0  0  -0.238929  -0.451586  0  3.900539  0
C  C47  1  0.59995281  0.77289613  0.64074337  1  0  -0.376456  0  3.672901  0  0  -0.454974  0  3.904677  0  0  -0.459153  0  3.910514  0  0  -0.239027  -0.451837  0  3.900468  0
C  C48  1  0.40009849  0.27288933  0.85926655  1  0  -0.376248  0  3.672608  0  0  -0.454765  0  3.904215  0  0  -0.458958  0  3.910095  0  0  -0.238952  -0.451629  0  3.900017  0
C  C49  1  0.40004510  0.22709757  0.35925745  1  0  -0.376389  0  3.673134  0  0  -0.45489  0  3.904889  0  0  -0.459063  0  3.910716  0  0  -0.238984  -0.451768  0  3.900711  0
C  C50  1  0.09244423  0.91879307  0.39900079  1  0  -0.377536  0  3.695852  0  0  -0.459203  0  3.926487  0  0  -0.463036  0  3.932979  0  0  -0.237554  -0.456301  0  3.921823  0
C  C51  1  0.09245418  0.58121081  0.89900964  1  0  -0.377718  0  3.696473  0  0  -0.459317  0  3.927073  0  0  -0.463144  0  3.933564  0  0  -0.237594  -0.456419  0  3.922404  0
C  C52  1  0.90756141  0.08120985  0.60098894  1  0  -0.377768  0  3.696168  0  0  -0.459378  0  3.926762  0  0  -0.463208  0  3.933254  0  0  -0.237605  -0.456475  0  3.922099  0
C  C53  1  0.90755930  0.41879462  0.10099679  1  0  -0.377561  0  3.696116  0  0  -0.459211  0  3.926744  0  0  -0.463036  0  3.933226  0  0  -0.237585  -0.456308  0  3.922077  0
S  S54  1  0.05249848  0.10897252  0.09511098  1  0  -0.458098  0  2.103988  0  0  -0.413101  0  2.454071  0  0  -0.435716  0  2.448071  0  0  -0.195859  -0.397159  0  2.45799  0
S  S55  1  0.05248220  0.39102828  0.59512808  1  0  -0.458156  0  2.104274  0  0  -0.413142  0  2.454336  0  0  -0.435758  0  2.448325  0  0  -0.19588  -0.3972  0  2.458253  0
S  S56  1  0.94748900  0.89102201  0.90487043  1  0  -0.458124  0  2.104212  0  0  -0.413124  0  2.454272  0  0  -0.435741  0  2.448273  0  0  -0.195882  -0.397184  0  2.458196  0
S  S57  1  0.94749504  0.60898301  0.40488621  1  0  -0.458133  0  2.103955  0  0  -0.413171  0  2.453968  0  0  -0.435783  0  2.447957  0  0  -0.195904  -0.397235  0  2.457897  0
N  N58  1  0.34864546  0.91391200  0.13297056  1  0  -0.472999  0  3.159244  0  0  -0.399569  0  3.412064  0  0  -0.424612  0  3.428256  0  0  -0.346743  -0.382696  0  3.400582  0
N  N59  1  0.34865291  0.58608868  0.63297542  1  0  -0.473007  0  3.158773  0  0  -0.399551  0  3.41171  0  0  -0.424595  0  3.427889  0  0  -0.346676  -0.382682  0  3.40024  0
N  N60  1  0.65136794  0.08608254  0.86701735  1  0  -0.472987  0  3.158947  0  0  -0.399663  0  3.411803  0  0  -0.424703  0  3.427975  0  0  -0.346762  -0.382792  0  3.400326  0
N  N61  1  0.65132170  0.41390250  0.36702890  1  0  -0.47292  0  3.159027  0  0  -0.399475  0  3.411903  0  0  -0.424541  0  3.428146  0  0  -0.346635  -0.382602  0  3.400419  0
N  N62  1  0.07897293  0.00131156  0.25174186  1  0  -0.4304  0  2.966328  0  0  -0.396874  0  3.231281  0  0  -0.41427  0  3.24226  0  0  -0.320331  -0.385308  0  3.223693  0
N  N63  1  0.07895142  0.49869355  0.75175034  1  0  -0.430596  0  2.96661  0  0  -0.397046  0  3.231626  0  0  -0.414444  0  3.242596  0  0  -0.320422  -0.385483  0  3.224051  0
N  N64  1  0.92103012  0.99869136  0.74824782  1  0  -0.430579  0  2.9667  0  0  -0.397059  0  3.231702  0  0  -0.414456  0  3.242677  0  0  -0.320448  -0.385507  0  3.22415  0
N  N65  1  0.92102319  0.50131188  0.24825331  1  0  -0.430462  0  2.9665  0  0  -0.396989  0  3.231426  0  0  -0.414381  0  3.242398  0  0  -0.320353  -0.385436  0  3.223869  0
