# generated using pymatgen
data_Cu2H21C18N9Cl4
_symmetry_space_group_name_H-M   'P 1'
_cell_length_a   13.53745745
_cell_length_b   15.26043812
_cell_length_c   15.26274941
_cell_angle_alpha   72.67540690
_cell_angle_beta   73.78744328
_cell_angle_gamma   73.81443470
_symmetry_Int_Tables_number   1
_chemical_formula_structural   Cu2H21C18N9Cl4
_chemical_formula_sum   'Cu8 H84 C72 N36 Cl16'
_cell_volume   2823.77312245
_cell_formula_units_Z   4
loop_
 _symmetry_equiv_pos_site_id
 _symmetry_equiv_pos_as_xyz
  1  'x, y, z'
loop_
 _atom_site_type_symbol
 _atom_site_label
 _atom_site_symmetry_multiplicity
 _atom_site_fract_x
 _atom_site_fract_y
 _atom_site_fract_z
 _atom_site_occupancy
 _atom_site_pbe_bader_charge
 _atom_site_pbe_bader_spin_density
 _atom_site_pbe_cm5_charge
 _atom_site_pbe_ddec_charge
 _atom_site_pbe_ddec_spin_density
 _atom_site_pbe_ddec_sum_bond_order
 _atom_site_pbe_magmom
Cu  Cu0  1  0.35062565  0.80602433  0.74020434  1  0.9852  -0.539013  0.684554  0.665951  -0.697533  2.527085  -0.537
Cu  Cu1  1  0.14976565  0.25989897  0.19396711  1  0.98431  -0.539117  0.684465  0.665541  -0.697559  2.526321  -0.537
Cu  Cu2  1  0.64973273  0.19399948  0.25987570  1  0.984299  -0.539058  0.68455  0.665696  -0.697511  2.526498  -0.537
Cu  Cu3  1  0.84957457  0.74005055  0.80605838  1  0.985446  0.565197  0.685085  0.665998  0.770358  2.528324  0.563
Cu  Cu4  1  0.11245334  0.77379735  0.76780491  1  0.838666  0.478912  0.425037  0.637444  0.630757  2.612876  0.473
Cu  Cu5  1  0.38734544  0.23186841  0.22624273  1  0.835323  0.477616  0.425838  0.638098  0.628949  2.611681  0.472
Cu  Cu6  1  0.88738056  0.22624818  0.23185340  1  0.835249  0.478284  0.425761  0.638052  0.629778  2.612179  0.472
Cu  Cu7  1  0.61385310  0.76831834  0.77347506  1  0.834714  0.492201  0.425168  0.636204  0.649181  2.608185  0.487
H  H8  1  0.32485117  0.75834761  0.01763322  1  0.076934  0.000396  0.106553  0.156673  0.00021  0.963343  0.0
H  H9  1  0.17526375  0.98243054  0.24169243  1  0.075999  0.000361  0.106548  0.156892  0.000186  0.963848  0.0
H  H10  1  0.67525243  0.24168921  0.98243167  1  0.075708  0.000357  0.106553  0.156929  0.000184  0.96389  0.0
H  H11  1  0.82471057  0.01741250  0.75829376  1  0.074969  -0.00039  0.106574  0.157168  -0.000202  0.963842  0.0
H  H12  1  0.22240806  0.69463528  0.06584703  1  0.062249  0.000149  0.097995  0.144256  4.4e-05  1.00404  0.0
H  H13  1  0.27769714  0.93419855  0.30533861  1  0.06701  0.000147  0.098116  0.144498  4.4e-05  1.003685  0.0
H  H14  1  0.77772052  0.30536108  0.93416587  1  0.066572  0.000131  0.09813  0.144598  3.2e-05  1.003758  0.0
H  H15  1  0.72229573  0.06585992  0.69463280  1  0.065789  -0.000124  0.098227  0.144821  -7.9e-05  1.003873  0.0
H  H16  1  0.21691230  0.78846114  0.96215569  1  0.105803  0.000162  0.093588  0.155865  0.000176  1.020185  0.0
H  H17  1  0.28328042  0.03788523  0.21150726  1  0.104194  0.000154  0.093442  0.155812  0.000171  1.020179  0.0
H  H18  1  0.78324392  0.21153873  0.03785193  1  0.104762  0.000154  0.093587  0.156019  0.000171  1.020296  0.0
H  H19  1  0.71652799  0.96218190  0.78845966  1  0.104428  0.000126  0.09335  0.155756  3.9e-05  1.020682  0.0
H  H20  1  0.34700817  0.51883316  0.04334130  1  0.143844  -0.000436  0.099109  0.157375  0.000606  1.043086  -0.001
H  H21  1  0.15298601  0.95670645  0.48116086  1  0.17494  -0.000429  0.099119  0.157414  0.000595  1.043396  -0.001
H  H22  1  0.65300534  0.48116820  0.95668171  1  0.174334  -0.000408  0.099165  0.15722  0.000626  1.043065  -0.001
H  H23  1  0.84718875  0.04329964  0.51885998  1  0.144946  0.003393  0.099306  0.15745  0.002551  1.042769  0.002
H  H24  1  0.45511387  0.38350105  0.95384659  1  0.06697  -0.000704  0.101619  0.153061  -0.000467  0.990599  0.0
H  H25  1  0.04483481  0.04618627  0.61647438  1  0.067854  -0.000698  0.101574  0.152953  -0.000468  0.990101  0.0
H  H26  1  0.54486327  0.61648835  0.04619094  1  0.067665  -0.000571  0.101556  0.152907  -0.000346  0.990391  0.0
H  H27  1  0.95530945  0.95374768  0.38353066  1  0.068868  0.000479  0.101705  0.153108  0.000147  0.990408  0.0
H  H28  1  0.55116908  0.42726486  0.85493919  1  0.07403  0.000662  0.100371  0.148041  0.000483  1.013571  0.0
H  H29  1  0.94889427  0.14512491  0.57267181  1  0.074813  0.000682  0.100222  0.147938  0.000496  1.013527  0.0
H  H30  1  0.44888960  0.57261207  0.14512287  1  0.0749  0.000671  0.100256  0.148044  0.000485  1.013347  0.0
H  H31  1  0.05112119  0.85480818  0.42752997  1  0.075087  0.000149  0.100317  0.148091  0.000246  1.013587  0.0
H  H32  1  0.43651721  0.40950590  0.83606514  1  0.075149  0.000318  0.104047  0.154262  0.000126  0.983224  0.0
H  H33  1  0.06352189  0.16396320  0.59051594  1  0.073969  0.000318  0.104145  0.154413  0.000124  0.983533  0.0
H  H34  1  0.56347225  0.59053822  0.16396964  1  0.074725  0.000323  0.104062  0.154328  0.000132  0.983497  0.0
H  H35  1  0.93661900  0.83597805  0.40943275  1  0.076247  -0.000213  0.104305  0.154557  -0.000124  0.983317  0.0
H  H36  1  0.80725728  0.24887181  0.58500915  1  0.059425  0.000196  0.095525  0.142057  0.000158  1.02652  0.0
H  H37  1  0.69267266  0.41495505  0.75113858  1  0.058323  0.000185  0.095588  0.14213  0.000155  1.026514  0.0
H  H38  1  0.19278369  0.75113339  0.41494367  1  0.060565  0.000196  0.09554  0.142316  0.000173  1.026343  0.0
H  H39  1  0.30728114  0.58505774  0.24885858  1  0.060309  9.8e-05  0.095468  0.142026  0.000107  1.026481  0.0
H  H40  1  0.71295738  0.21219927  0.55189013  1  0.064092  0.000521  0.08388  0.133625  0.000435  1.035479  0.0
H  H41  1  0.78695505  0.44811785  0.78778519  1  0.065913  0.000511  0.083742  0.133637  0.000425  1.03568  0.0
H  H42  1  0.28710165  0.78779771  0.44801932  1  0.064356  0.000511  0.083954  0.133783  0.000428  1.035641  0.0
H  H43  1  0.21300389  0.55187028  0.21222906  1  0.065455  0.000445  0.083802  0.133641  0.000397  1.0356  0.0
H  H44  1  0.68402185  0.23927462  0.66487244  1  0.055448  0.000156  0.096287  0.136264  4.5e-05  0.992176  0.0
H  H45  1  0.81587381  0.33510954  0.76075210  1  0.056202  0.000157  0.096298  0.136199  4.5e-05  0.992128  0.0
H  H46  1  0.31601698  0.76069424  0.33505160  1  0.055032  0.000163  0.096353  0.136234  4.9e-05  0.991933  0.0
H  H47  1  0.18405189  0.66486655  0.23929361  1  0.055595  0.000165  0.096218  0.136171  5.4e-05  0.992184  0.0
H  H48  1  0.74787396  0.38599332  0.39290695  1  0.162912  -0.000175  0.090528  0.147912  -0.000207  1.051691  0.0
H  H49  1  0.75211476  0.60705191  0.61399797  1  0.163564  -0.0002  0.090542  0.14786  -0.000222  1.05171  0.0
H  H50  1  0.25211293  0.61402244  0.60705032  1  0.163248  -0.000192  0.090522  0.147942  -0.000219  1.051738  0.0
H  H51  1  0.24791951  0.39292061  0.38603424  1  0.163541  -9.4e-05  0.09055  0.147897  -0.000168  1.051765  0.0
H  H52  1  0.69200301  0.56241997  0.30961677  1  0.060839  0.000383  0.095126  0.146573  0.000381  0.985847  0.0
H  H53  1  0.80806310  0.69035792  0.43759899  1  0.061196  0.000389  0.09518  0.146758  0.000392  0.985686  0.0
H  H54  1  0.30799793  0.43761453  0.69037736  1  0.060986  0.000372  0.095135  0.146517  0.000377  0.985768  0.0
H  H55  1  0.19195626  0.30961930  0.56247814  1  0.06168  0.000572  0.095211  0.14671  0.000462  0.985539  0.0
H  H56  1  0.66088196  0.64415349  0.38175374  1  0.062619  -5.7e-05  0.093604  0.132521  -6.7e-05  1.039093  0.0
H  H57  1  0.83914653  0.61821622  0.35587917  1  0.063303  -5.1e-05  0.09357  0.132528  -6.4e-05  1.039101  0.0
H  H58  1  0.33912835  0.35586760  0.61825314  1  0.063184  -5.6e-05  0.093618  0.132523  -7.2e-05  1.039045  0.0
H  H59  1  0.16081985  0.38181177  0.64415953  1  0.062763  6.5e-05  0.093628  0.132748  3.8e-05  1.03894  0.0
H  H60  1  0.55848975  0.60872783  0.35908311  1  0.110332  -3e-06  0.095519  0.13755  -2.4e-05  1.04839  0.0
H  H61  1  0.94156759  0.64092631  0.39122438  1  0.109896  1.3e-05  0.095486  0.137535  -7e-06  1.048605  0.0
H  H62  1  0.44151656  0.39129395  0.64092783  1  0.110283  -2e-06  0.095436  0.137439  -2.3e-05  1.04843  0.0
H  H63  1  0.05843533  0.35902933  0.60882385  1  0.109504  9e-06  0.095508  0.137532  -7e-06  1.048369  0.0
H  H64  1  0.52135489  0.89188257  0.30500958  1  0.076941  -0.000567  0.104918  0.15999  -0.00033  0.977009  0.0
H  H65  1  0.97860892  0.69503322  0.10817661  1  0.077143  -0.000557  0.104987  0.159989  -0.000314  0.97659  0.0
H  H66  1  0.47855036  0.10812099  0.69501874  1  0.077056  -0.000552  0.105012  0.160134  -0.000332  0.977012  0.0
H  H67  1  0.02136610  0.30501995  0.89187680  1  0.077103  0.000506  0.104937  0.16  0.000247  0.976923  0.0
H  H68  1  0.48633295  0.78024016  0.36046357  1  0.080522  0.000299  0.103699  0.151668  0.000139  1.003389  0.0
H  H69  1  0.01365083  0.63956019  0.21976728  1  0.081  0.000285  0.103812  0.151822  0.00013  1.003278  0.0
H  H70  1  0.51364056  0.21973869  0.63957993  1  0.080859  0.000295  0.103784  0.151817  0.000136  1.003086  0.0
H  H71  1  0.98633260  0.36043831  0.78027191  1  0.080579  -0.000296  0.103795  0.151634  -0.000153  1.003131  0.0
H  H72  1  0.60056197  0.80160104  0.37709017  1  0.044141  0.000396  0.102727  0.147698  0.000213  0.994273  0.0
H  H73  1  0.89942100  0.62286908  0.19846702  1  0.043688  0.000382  0.102829  0.147702  0.000205  0.99444  0.0
H  H74  1  0.39940074  0.19842923  0.62291536  1  0.043958  0.000391  0.10272  0.147652  0.000209  0.994297  0.0
H  H75  1  0.10053987  0.37717229  0.80156323  1  0.044377  -0.00026  0.102648  0.147553  -0.000115  0.994365  0.0
H  H76  1  0.40925655  0.02702476  0.39734036  1  0.157101  -0.002251  0.102142  0.156793  -0.001261  1.034112  -0.001
H  H77  1  0.09064755  0.60272416  0.97292629  1  0.155705  -0.002265  0.102205  0.156776  -0.001259  1.033848  -0.001
H  H78  1  0.59055339  0.97294940  0.60269670  1  0.156631  -0.002258  0.102107  0.156789  -0.001284  1.034074  -0.001
H  H79  1  0.90951391  0.39734085  0.02710021  1  0.156293  0.002034  0.102119  0.156902  0.000953  1.033968  0.002
H  H80  1  0.22589951  0.02772619  0.63916006  1  0.086293  0.000368  0.092979  0.152845  0.000154  1.016829  0.0
H  H81  1  0.27407645  0.36097204  0.97213689  1  0.086287  0.000351  0.092906  0.152668  0.000149  1.017027  0.0
H  H82  1  0.77405060  0.97227317  0.36085703  1  0.086699  0.00036  0.0928  0.152592  0.00015  1.016699  0.0
H  H83  1  0.72588872  0.63898746  0.02798839  1  0.085774  -0.000109  0.092925  0.152534  -0.000185  1.017107  0.0
H  H84  1  0.29010222  0.10823550  0.54215854  1  0.080986  0.001887  0.08318  0.14779  0.001873  1.039481  0.001
H  H85  1  0.20992446  0.45799840  0.89167565  1  0.080742  0.001868  0.083132  0.147551  0.001864  1.039831  0.001
H  H86  1  0.70988374  0.89174270  0.45787287  1  0.081744  0.001874  0.083014  0.147634  0.001872  1.040339  0.001
H  H87  1  0.79019257  0.54198524  0.10835695  1  0.080862  0.001745  0.083234  0.147776  0.001826  1.039893  0.001
H  H88  1  0.34520613  0.04944357  0.64391515  1  0.058848  0.000507  0.096825  0.150501  0.000301  1.003508  0.0
H  H89  1  0.15475266  0.35623436  0.95045579  1  0.059559  0.000427  0.096847  0.150611  0.00025  1.00351  0.0
H  H90  1  0.65473082  0.95053383  0.35614638  1  0.05893  0.000449  0.096713  0.150423  0.000269  1.003536  0.0
H  H91  1  0.84525150  0.64380284  0.04955706  1  0.059392  -8.4e-05  0.096838  0.150526  -2.5e-05  1.003143  0.0
C  C92  1  0.26878032  0.72948797  0.00008143  1  -0.073251  -0.000377  -0.229831  -0.437393  -0.000149  3.909318  0.0
C  C93  1  0.23137649  0.99996434  0.27050870  1  -0.073387  -0.000384  -0.229695  -0.4378  -0.000157  3.909416  0.0
C  C94  1  0.73136754  0.27052445  0.99994293  1  -0.072828  -0.000385  -0.22989  -0.438201  -0.000155  3.909751  0.0
C  C95  1  0.76850473  0.00002039  0.72945471  1  -0.0702  0.000763  -0.229779  -0.438343  0.000475  3.910244  0.001
C  C96  1  0.32646943  0.66094968  0.94177437  1  0.484757  -1.9e-05  0.131023  0.32173  -0.000736  3.967466  -0.002
C  C97  1  0.17372345  0.05828496  0.33905029  1  0.483002  -3.4e-05  0.131088  0.322222  -0.000742  3.966251  -0.002
C  C98  1  0.67372587  0.33907036  0.05825823  1  0.482776  -2e-05  0.131026  0.322032  -0.00073  3.966184  -0.002
C  C99  1  0.82604468  0.94167697  0.66092083  1  0.481005  -8.4e-05  0.131391  0.322263  0.000802  3.966495  0.002
C  C100  1  0.35998059  0.56192899  0.97195278  1  0.089769  -0.002654  -0.102778  -0.321062  -0.002045  3.866001  -0.002
C  C101  1  0.14011836  0.02809975  0.43806132  1  0.058625  -0.002668  -0.103054  -0.320947  -0.002048  3.865285  -0.002
C  C102  1  0.64012491  0.43807713  0.02807806  1  0.059019  -0.002616  -0.102896  -0.320657  -0.002021  3.865072  -0.002
C  C103  1  0.85985593  0.97187870  0.56192248  1  0.089393  0.008647  -0.102896  -0.320664  0.006243  3.863813  0.007
C  C104  1  0.41283331  0.52848916  0.89318903  1  0.309306  0.003353  0.121135  0.269193  0.002281  3.924445  0.002
C  C105  1  0.08731965  0.10688093  0.47149682  1  0.311305  0.003378  0.121311  0.269061  0.002301  3.924078  0.002
C  C106  1  0.58733509  0.47150834  0.10686670  1  0.309941  0.003376  0.121345  0.269028  0.002292  3.924419  0.002
C  C107  1  0.91252808  0.89308930  0.52847762  1  0.307824  -0.002703  0.121441  0.269859  -0.001403  3.923607  -0.002
C  C108  1  0.46651708  0.43159787  0.88405249  1  -0.030672  -0.000644  -0.227291  -0.440281  -0.000373  3.945248  -0.001
C  C109  1  0.03352685  0.11599767  0.56838375  1  -0.03166  -0.000625  -0.227208  -0.44022  -0.000355  3.944654  -0.001
C  C110  1  0.53353000  0.56838230  0.11599199  1  -0.032078  -0.000582  -0.227214  -0.440253  -0.000291  3.944854  -0.001
C  C111  1  0.96651259  0.88394678  0.43165083  1  -0.034863  0.001305  -0.227287  -0.440555  0.000963  3.9453  0.001
C  C112  1  0.45024680  0.61767221  0.72350266  1  1.673134  0.001479  0.383606  0.508012  0.000282  4.077338  0.001
C  C113  1  0.04999747  0.27654303  0.38231914  1  1.651478  0.001452  0.38314  0.506945  0.00025  4.079353  0.001
C  C114  1  0.55000201  0.38233650  0.27653831  1  1.651614  0.001447  0.38336  0.50707  0.000246  4.079281  0.001
C  C115  1  0.94963106  0.72339748  0.61761830  1  1.653188  -0.000764  0.383635  0.507148  0.000511  4.079106  0.0
C  C116  1  0.53713731  0.57325443  0.59032455  1  1.538795  0.001124  0.381495  0.49487  0.000723  4.007703  0.001
C  C117  1  0.96299803  0.40969144  0.42674634  1  1.536734  0.001106  0.381482  0.495234  0.000704  4.007581  0.001
C  C118  1  0.46299253  0.42674960  0.40969757  1  1.537624  0.001105  0.381377  0.495086  0.000704  4.008028  0.001
C  C119  1  0.03687606  0.59027799  0.57324012  1  1.536917  -0.001232  0.381298  0.495349  -0.000722  4.007084  -0.001
C  C120  1  0.46586299  0.72577816  0.58287490  1  1.645595  0.000901  0.381816  0.508912  -0.00029  4.062172  0.001
C  C121  1  0.03425808  0.41716740  0.27420165  1  1.64701  0.000892  0.381981  0.509133  -0.000311  4.06155  0.001
C  C122  1  0.53424136  0.27421670  0.41716216  1  1.646574  0.000896  0.381943  0.509079  -0.000305  4.061533  0.001
C  C123  1  0.96547093  0.58281643  0.72574722  1  1.646355  -0.001198  0.381881  0.508582  0.000211  4.061201  -0.001
C  C124  1  0.72235086  0.25856845  0.59044729  1  -0.064216  0.000878  -0.240302  -0.441791  0.000769  3.946086  0.001
C  C125  1  0.77757915  0.40953241  0.74143982  1  -0.066667  0.000881  -0.240296  -0.441847  0.000771  3.946086  0.001
C  C126  1  0.27768320  0.74142697  0.40949766  1  -0.065022  0.000858  -0.240539  -0.442198  0.000759  3.945981  0.001
C  C127  1  0.22238029  0.59044727  0.25858203  1  -0.066539  0.000937  -0.240042  -0.441653  0.000797  3.94605  0.001
C  C128  1  0.67939836  0.35877563  0.54952953  1  0.520204  0.000612  0.116105  0.296988  0.000374  4.013498  0.0
C  C129  1  0.82058890  0.45044319  0.64122539  1  0.521088  0.000608  0.115936  0.296883  0.000375  4.012996  0.0
C  C130  1  0.32063216  0.64122180  0.45043537  1  0.520258  0.000607  0.115887  0.296732  0.000367  4.012679  0.0
C  C131  1  0.17939165  0.54951896  0.35879047  1  0.520572  -0.000551  0.116184  0.297361  -0.000399  4.013148  0.0
C  C132  1  0.69980331  0.41151272  0.45408406  1  -0.059741  0.000281  -0.117404  -0.325214  0.000219  3.886732  0.0
C  C133  1  0.80019404  0.54588147  0.58848949  1  -0.059691  0.000191  -0.117436  -0.32519  0.000136  3.886789  0.0
C  C134  1  0.30020224  0.58850228  0.54588058  1  -0.059505  0.000229  -0.117276  -0.325025  0.000172  3.886594  0.0
C  C135  1  0.19981280  0.45408340  0.41153606  1  -0.060516  -0.000313  -0.117646  -0.325563  -0.000199  3.886692  0.0
C  C136  1  0.64590655  0.50239313  0.45365454  1  0.32378  0.000175  0.098199  0.22929  0.000153  3.936844  0.0
C  C137  1  0.85412527  0.54631934  0.49760415  1  0.32387  0.000157  0.098202  0.229529  0.000127  3.936228  0.0
C  C138  1  0.35411940  0.49762034  0.54633037  1  0.323119  0.000189  0.098217  0.229549  0.000161  3.936407  0.0
C  C139  1  0.14585442  0.45363997  0.50241799  1  0.320415  -0.000172  0.098265  0.229569  -0.000122  3.936141  0.0
C  C140  1  0.63887850  0.58454130  0.37175348  1  -0.081025  0.000127  -0.241025  -0.440926  7.3e-05  3.971304  0.0
C  C141  1  0.86116604  0.62823196  0.41545710  1  -0.081577  0.000141  -0.240984  -0.441109  8.9e-05  3.970785  0.0
C  C142  1  0.36113318  0.41548051  0.62824891  1  -0.08109  0.000122  -0.240942  -0.440739  6.6e-05  3.970727  0.0
C  C143  1  0.13882632  0.37175178  0.58458551  1  -0.077985  0.000463  -0.24105  -0.441238  0.0004  3.970881  0.0
C  C144  1  0.51941790  0.83455998  0.36869669  1  -0.020812  -0.001005  -0.226929  -0.441082  -0.000632  3.948984  -0.001
C  C145  1  0.98056187  0.63132091  0.16546254  1  -0.021493  -0.000994  -0.227128  -0.441356  -0.000628  3.949678  -0.001
C  C146  1  0.48052913  0.16543300  0.63133351  1  -0.021256  -0.000994  -0.227114  -0.441386  -0.00063  3.949145  -0.001
C  C147  1  0.01940947  0.36871203  0.83456759  1  -0.020664  0.00102  -0.22681  -0.440666  0.000701  3.94884  0.001
C  C148  1  0.45679548  0.87371011  0.45047237  1  0.351088  0.003465  0.11558  0.250826  0.002194  3.93415  0.002
C  C149  1  0.04319829  0.54958014  0.12627265  1  0.348822  0.00339  0.116055  0.250975  0.002139  3.934483  0.002
C  C150  1  0.54316037  0.12628142  0.54956459  1  0.348418  0.003404  0.116055  0.251344  0.002149  3.933828  0.002
C  C151  1  0.95675782  0.45046488  0.87373217  1  0.348701  -0.003425  0.115815  0.250845  -0.002002  3.934122  -0.002
C  C152  1  0.40909192  0.96511982  0.45540838  1  -0.003253  -0.006102  -0.099011  -0.314555  -0.004291  3.86319  -0.005
C  C153  1  0.09085301  0.54467741  0.03482444  1  0.000195  -0.006099  -0.09916  -0.314562  -0.004305  3.862858  -0.005
C  C154  1  0.59080244  0.03485211  0.54463325  1  -0.001232  -0.006066  -0.099233  -0.314793  -0.004271  3.862785  -0.005
C  C155  1  0.90920661  0.45538853  0.96517994  1  -0.000739  0.006806  -0.099144  -0.314561  0.004965  3.863347  0.005
C  C156  1  0.36171430  0.96386644  0.55156207  1  0.485638  0.00041  0.133791  0.327572  -0.000402  3.954676  -0.001
C  C157  1  0.13829521  0.44854638  0.03606980  1  0.507997  0.000362  0.134053  0.327527  -0.00044  3.953928  -0.001
C  C158  1  0.63825324  0.03611167  0.44849033  1  0.507562  0.000365  0.133986  0.327704  -0.000435  3.954153  -0.001
C  C159  1  0.86167873  0.55150137  0.96394550  1  0.508755  -0.00061  0.13403  0.327158  0.000396  3.954734  0.001
C  C160  1  0.30180294  0.04262621  0.59610360  1  -0.053446  0.003192  -0.241031  -0.45537  0.002373  3.911491  0.002
C  C161  1  0.19819604  0.40402888  0.95727873  1  -0.075169  0.003119  -0.241165  -0.45503  0.002309  3.911305  0.002
C  C162  1  0.69815895  0.95735618  0.40393650  1  -0.075941  0.003176  -0.240953  -0.454931  0.002348  3.91127  0.002
C  C163  1  0.80182943  0.59597729  0.04276217  1  -0.0754  0.004661  -0.241312  -0.455046  0.003189  3.911273  0.004
N  N164  1  0.35662441  0.68760833  0.84857981  1  -0.748629  -0.090707  -0.255155  -0.278619  -0.062129  3.433222  -0.08
N  N165  1  0.14367516  0.15149426  0.31238645  1  -0.751463  -0.090568  -0.255207  -0.279763  -0.061978  3.433374  -0.08
N  N166  1  0.64367914  0.31241288  0.15147138  1  -0.751371  -0.0905  -0.255365  -0.279888  -0.061938  3.433532  -0.079
N  N167  1  0.85583901  0.84844497  0.68755358  1  -0.751191  0.09252  -0.255685  -0.280644  0.066406  3.435903  0.081
N  N168  1  0.40926179  0.60654109  0.81867806  1  -0.886984  -0.004017  -0.124982  0.005506  -0.002213  3.724495  -0.003
N  N169  1  0.09101875  0.18139176  0.39345812  1  -0.885744  -0.003969  -0.125048  0.006164  -0.002207  3.725174  -0.003
N  N170  1  0.59103182  0.39347662  0.18137533  1  -0.885279  -0.003966  -0.125058  0.006635  -0.002205  3.724996  -0.003
N  N171  1  0.90854950  0.81854665  0.60649230  1  -0.880898  0.004851  -0.125403  0.006041  0.002964  3.724805  0.003
N  N172  1  0.42998911  0.70735993  0.67604517  1  -1.251716  -0.109442  -0.370827  -0.471507  -0.072305  3.671467  -0.095
N  N173  1  0.07018764  0.32400046  0.29261440  1  -1.253061  -0.109628  -0.370551  -0.471539  -0.072412  3.672638  -0.095
N  N174  1  0.57018505  0.29263907  0.32398969  1  -1.252167  -0.109639  -0.370693  -0.471763  -0.072417  3.673208  -0.095
N  N175  1  0.92930702  0.67592356  0.70728647  1  -1.259433  0.110541  -0.370614  -0.471917  0.076677  3.672143  0.096
N  N176  1  0.50293169  0.54714402  0.68438452  1  -1.157473  -0.014718  -0.29577  -0.431308  -0.009502  3.210039  -0.011
N  N177  1  0.99732637  0.31565843  0.45285358  1  -1.13346  -0.014723  -0.295819  -0.431212  -0.009514  3.211561  -0.011
N  N178  1  0.49732867  0.45286466  0.31565816  1  -1.13359  -0.014745  -0.295812  -0.431193  -0.009528  3.211623  -0.011
N  N179  1  0.00250133  0.68430209  0.54710379  1  -1.12796  0.01513  -0.295987  -0.431385  0.010291  3.211049  0.012
N  N180  1  0.52077591  0.66145069  0.53538293  1  -1.173239  -0.011334  -0.300464  -0.442212  -0.007233  3.184942  -0.009
N  N181  1  0.97930823  0.46463641  0.33853300  1  -1.173373  -0.011363  -0.300291  -0.442021  -0.007258  3.184523  -0.009
N  N182  1  0.47928520  0.33854149  0.46463945  1  -1.173913  -0.011349  -0.300343  -0.44204  -0.007243  3.184474  -0.009
N  N183  1  0.02058983  0.53533581  0.66145390  1  -1.173629  0.011349  -0.30034  -0.44206  0.007637  3.184316  0.009
N  N184  1  0.59509755  0.50117796  0.54765349  1  -0.860062  0.00043  -0.121727  -0.004088  0.000277  3.71524  0.0
N  N185  1  0.90496400  0.45234107  0.49882289  1  -0.860189  0.000434  -0.121948  -0.004677  0.000275  3.715476  0.0
N  N186  1  0.40496363  0.49882347  0.45234586  1  -0.859588  0.000413  -0.121779  -0.00465  0.000264  3.715634  0.0
N  N187  1  0.09498654  0.54762746  0.50118741  1  -0.860288  -0.000335  -0.121597  -0.004466  -0.000187  3.714875  0.0
N  N188  1  0.61605983  0.41235352  0.60556519  1  -0.69929  -0.001488  -0.230462  -0.28883  -0.00107  3.136685  -0.001
N  N189  1  0.88397508  0.39441960  0.58765169  1  -0.699884  -0.00147  -0.230084  -0.288403  -0.00106  3.135184  -0.001
N  N190  1  0.38400380  0.58763749  0.39441170  1  -0.700817  -0.001514  -0.23016  -0.288382  -0.001092  3.135146  -0.001
N  N191  1  0.11598436  0.60553420  0.41235614  1  -0.699728  0.001579  -0.230324  -0.288783  0.001116  3.136149  0.001
N  N192  1  0.43701389  0.82027195  0.54184282  1  -0.850594  -0.005326  -0.123186  0.007387  -0.003078  3.699769  -0.004
N  N193  1  0.06307780  0.45822273  0.17970067  1  -0.850567  -0.005311  -0.123396  0.007447  -0.003064  3.699764  -0.004
N  N194  1  0.56304166  0.17972432  0.45820595  1  -0.850734  -0.005313  -0.123255  0.007429  -0.003066  3.699694  -0.004
N  N195  1  0.93673514  0.54180294  0.82027990  1  -0.850392  0.005262  -0.122937  0.008298  0.003203  3.698207  0.004
N  N196  1  0.37904176  0.87617308  0.60301674  1  -0.720335  -0.099278  -0.256148  -0.246255  -0.068027  3.424245  -0.087
N  N197  1  0.12107640  0.39707926  0.12377131  1  -0.72087  -0.099196  -0.256408  -0.246556  -0.067944  3.424433  -0.087
N  N198  1  0.62102875  0.12381539  0.39704370  1  -0.719786  -0.099266  -0.256488  -0.246739  -0.068  3.424796  -0.087
N  N199  1  0.87874240  0.60294776  0.87621791  1  -0.721941  0.100559  -0.256626  -0.246496  0.072196  3.425337  0.089
Cl  Cl200  1  0.18289913  0.88453450  0.79414391  1  -0.531788  0.006293  -0.266257  -0.41997  0.006347  1.476023  0.004
Cl  Cl201  1  0.31714258  0.20595381  0.11509956  1  -0.530615  0.004994  -0.265737  -0.418741  0.005424  1.476136  0.003
Cl  Cl202  1  0.81709992  0.11516662  0.20587451  1  -0.530533  0.005038  -0.265817  -0.418957  0.005446  1.476423  0.003
Cl  Cl203  1  0.68264559  0.79451761  0.88552030  1  -0.527746  0.164774  -0.263988  -0.415461  0.114642  1.470544  0.13
Cl  Cl204  1  0.46613505  0.88368717  0.78217964  1  -0.581008  0.095615  -0.318328  -0.482542  0.065578  1.350331  0.072
Cl  Cl205  1  0.03410724  0.21797034  0.11600608  1  -0.577034  0.089492  -0.316931  -0.480575  0.061097  1.352236  0.067
Cl  Cl206  1  0.53406604  0.11607377  0.21789547  1  -0.57707  0.088835  -0.317051  -0.480691  0.060641  1.352018  0.066
Cl  Cl207  1  0.96526847  0.78229274  0.88319717  1  -0.574898  0.10692  -0.315304  -0.47797  0.073167  1.354903  0.084
Cl  Cl208  1  0.15456851  0.81367609  0.61217835  1  -0.584136  0.144706  -0.31311  -0.480762  0.09696  1.317813  0.111
Cl  Cl209  1  0.34528019  0.38750932  0.18645178  1  -0.580058  0.145647  -0.312809  -0.480556  0.09765  1.318183  0.111
Cl  Cl210  1  0.84532136  0.18646055  0.38748582  1  -0.579897  0.147428  -0.312945  -0.480633  0.098874  1.318073  0.113
Cl  Cl211  1  0.65533513  0.61267572  0.81359501  1  -0.57824  0.144913  -0.313085  -0.480884  0.096944  1.31883  0.111
Cl  Cl212  1  0.16326791  0.61798449  0.78299655  1  -0.586073  0.149826  -0.313732  -0.477007  0.100647  1.273761  0.116
Cl  Cl213  1  0.33666944  0.21688346  0.38202580  1  -0.585243  0.150926  -0.313221  -0.476277  0.101443  1.274723  0.117
Cl  Cl214  1  0.83668320  0.38203878  0.21687306  1  -0.585517  0.151238  -0.313153  -0.476484  0.101657  1.275388  0.117
Cl  Cl215  1  0.66358008  0.78308822  0.61771070  1  -0.586552  0.151036  -0.313626  -0.476893  0.101542  1.277558  0.117
