# generated using pymatgen
data_CdH9C5N5O3
_symmetry_space_group_name_H-M   'P 1'
_cell_length_a   7.53216936
_cell_length_b   9.95034766
_cell_length_c   13.17139469
_cell_angle_alpha   74.57895230
_cell_angle_beta   73.39840154
_cell_angle_gamma   67.76479464
_symmetry_Int_Tables_number   1
_chemical_formula_structural   CdH9C5N5O3
_chemical_formula_sum   'Cd4 H36 C20 N20 O12'
_cell_volume   861.70232388
_cell_formula_units_Z   4
loop_
 _symmetry_equiv_pos_site_id
 _symmetry_equiv_pos_as_xyz
  1  'x, y, z'
loop_
 _atom_site_type_symbol
 _atom_site_label
 _atom_site_symmetry_multiplicity
 _atom_site_fract_x
 _atom_site_fract_y
 _atom_site_fract_z
 _atom_site_occupancy
 _atom_site_hle17_bader_spin_density
 _atom_site_hle17_ddec_charge
 _atom_site_hle17_ddec_spin_density
 _atom_site_hle17_ddec_sum_bond_order
 _atom_site_hle17_magmom
 _atom_site_hse06_10hf_bader_spin_density
 _atom_site_hse06_10hf_ddec_charge
 _atom_site_hse06_10hf_ddec_spin_density
 _atom_site_hse06_10hf_ddec_sum_bond_order
 _atom_site_hse06_10hf_magmom
 _atom_site_hse06_bader_spin_density
 _atom_site_hse06_ddec_charge
 _atom_site_hse06_ddec_spin_density
 _atom_site_hse06_ddec_sum_bond_order
 _atom_site_hse06_magmom
 _atom_site_pbe_bader_spin_density
 _atom_site_pbe_cm5_charge
 _atom_site_pbe_ddec_charge
 _atom_site_pbe_ddec_spin_density
 _atom_site_pbe_ddec_sum_bond_order
 _atom_site_pbe_magmom
Cd  Cd0  1  0.46082172  0.58074436  0.85198626  1  0  1.065689  0  1.72005  0  0  0.866705  0  2.165094  0  0  0.921293  0  2.116045  0  0  0.786957  0.827941  0  2.198575  0
Cd  Cd1  1  0.89362286  0.91919910  0.64793302  1  0  1.065079  0  1.720424  0  0  0.865877  0  2.165913  0  0  0.920507  0  2.116869  0  0  0.786128  0.827148  0  2.199499  0
Cd  Cd2  1  0.53918040  0.41925510  0.14801183  1  0  1.065677  0  1.720083  0  0  0.866709  0  2.165085  0  0  0.921296  0  2.116035  0  0  0.786963  0.827946  0  2.198568  0
Cd  Cd3  1  0.10637554  0.08079925  0.35206802  1  0  1.065099  0  1.720397  0  0  0.865901  0  2.165896  0  0  0.920531  0  2.116854  0  0  0.786117  0.827171  0  2.199485  0
H  H4  1  0.12098155  0.38997763  0.68118083  1  0  0.104291  0  0.941505  0  0  0.116266  0  1.006438  0  0  0.118048  0  1.005788  0  0  0.104345  0.114905  0  1.007026  0
H  H5  1  0.19199445  0.10996373  0.81907547  1  0  0.104882  0  0.939868  0  0  0.11665  0  1.004928  0  0  0.118391  0  1.00429  0  0  0.104423  0.115364  0  1.005456  0
H  H6  1  0.87901961  0.61002403  0.31881698  1  0  0.104313  0  0.941491  0  0  0.116272  0  1.006437  0  0  0.118054  0  1.005786  0  0  0.104353  0.114911  0  1.007025  0
H  H7  1  0.80800144  0.89003682  0.18092407  1  0  0.104885  0  0.939827  0  0  0.116647  0  1.004895  0  0  0.118389  0  1.004257  0  0  0.104396  0.115361  0  1.005422  0
H  H8  1  0.98009410  0.57562716  0.68793906  1  0  0.108425  0  0.945731  0  0  0.122778  0  1.00879  0  0  0.124304  0  1.008237  0  0  0.103316  0.121635  0  1.009344  0
H  H9  1  0.24379827  0.92430400  0.81227050  1  0  0.108669  0  0.946492  0  0  0.1226  0  1.009769  0  0  0.12412  0  1.009178  0  0  0.103214  0.121443  0  1.010296  0
H  H10  1  0.01990726  0.42437229  0.31205979  1  0  0.108406  0  0.94574  0  0  0.122749  0  1.008812  0  0  0.124274  0  1.008258  0  0  0.103298  0.121605  0  1.009368  0
H  H11  1  0.75620109  0.07569656  0.18772973  1  0  0.108654  0  0.946516  0  0  0.122581  0  1.009797  0  0  0.124101  0  1.009205  0  0  0.103208  0.121423  0  1.010325  0
H  H12  1  0.89386910  0.45189406  0.57147146  1  0  0.057255  0  0.912752  0  0  0.074805  0  0.973253  0  0  0.075619  0  0.973126  0  0  0.098193  0.0741  0  0.973567  0
H  H13  1  0.91742545  0.04765839  0.92870701  1  0  0.057022  0  0.913763  0  0  0.074419  0  0.974284  0  0  0.075225  0  0.974148  0  0  0.097721  0.073706  0  0.974579  0
H  H14  1  0.10613110  0.54810540  0.42852717  1  0  0.057269  0  0.912722  0  0  0.074814  0  0.973236  0  0  0.075628  0  0.973112  0  0  0.098177  0.074111  0  0.973548  0
H  H15  1  0.08257399  0.95234106  0.07129237  1  0  0.056999  0  0.913781  0  0  0.07439  0  0.974301  0  0  0.075196  0  0.974165  0  0  0.097709  0.073677  0  0.974596  0
H  H16  1  0.80051845  0.34323298  0.68935452  1  0  0.071843  0  0.939828  0  0  0.088229  0  1.003902  0  0  0.088785  0  1.004248  0  0  0.104991  0.087744  0  1.00376  0
H  H17  1  0.83320841  0.15656551  0.81087359  1  0  0.072154  0  0.938901  0  0  0.088403  0  1.003185  0  0  0.088968  0  1.003514  0  0  0.104494  0.087893  0  1.003063  0
H  H18  1  0.19948291  0.65676647  0.31064434  1  0  0.071845  0  0.939882  0  0  0.08824  0  1.003943  0  0  0.088798  0  1.004291  0  0  0.104995  0.087754  0  1.003801  0
H  H19  1  0.16678988  0.84343394  0.18912557  1  0  0.072162  0  0.938896  0  0  0.088408  0  1.00317  0  0  0.088974  0  1.003499  0  0  0.104507  0.087899  0  1.003048  0
H  H20  1  0.49774427  0.45232113  0.62940304  1  0  0.107992  0  0.921429  0  0  0.127031  0  0.976772  0  0  0.128936  0  0.975645  0  0  0.117718  0.12556  0  0.97783  0
H  H21  1  0.57959857  0.04777131  0.87047627  1  0  0.107456  0  0.921337  0  0  0.126968  0  0.976643  0  0  0.128944  0  0.975452  0  0  0.116863  0.125454  0  0.977734  0
H  H22  1  0.50225421  0.54768053  0.37059606  1  0  0.10795  0  0.921463  0  0  0.127025  0  0.976779  0  0  0.128931  0  0.975653  0  0  0.117713  0.125556  0  0.977836  0
H  H23  1  0.42040079  0.95222925  0.12952395  1  0  0.107449  0  0.921286  0  0  0.126966  0  0.976589  0  0  0.128942  0  0.975399  0  0  0.116856  0.125453  0  0.977681  0
H  H24  1  0.55671183  0.59378265  0.52490330  1  0  0.086442  0  0.936894  0  0  0.096925  0  1.006689  0  0  0.09906  0  1.005061  0  0  0.10546  0.095327  0  1.008016  0
H  H25  1  0.67539403  0.90624567  0.97502339  1  0  0.087012  0  0.936536  0  0  0.097417  0  1.006788  0  0  0.099591  0  1.005127  0  0  0.105623  0.095841  0  1.008093  0
H  H26  1  0.44328753  0.40621790  0.47509693  1  0  0.086431  0  0.936884  0  0  0.096929  0  1.006691  0  0  0.099065  0  1.005065  0  0  0.105463  0.095332  0  1.008017  0
H  H27  1  0.32460768  0.09375489  0.02498003  1  0  0.087062  0  0.936578  0  0  0.097478  0  1.006802  0  0  0.099652  0  1.005142  0  0  0.105658  0.095902  0  1.008108  0
H  H28  1  0.48575757  0.28396714  0.94184402  1  0  0.405728  0  0.905435  0  0  0.372959  0  0.974378  0  0  0.383764  0  0.958804  0  0  0.279542  0.365326  0  0.985336  0
H  H29  1  0.71178927  0.21598748  0.55818994  1  0  0.40649  0  0.904181  0  0  0.373632  0  0.973321  0  0  0.384434  0  0.957765  0  0  0.279303  0.366032  0  0.984231  0
H  H30  1  0.51424151  0.71603231  0.05815711  1  0  0.40576  0  0.905394  0  0  0.372996  0  0.974329  0  0  0.383802  0  0.958755  0  0  0.279554  0.365362  0  0.985287  0
H  H31  1  0.28821085  0.78401307  0.44180953  1  0  0.406494  0  0.90417  0  0  0.37364  0  0.973303  0  0  0.384441  0  0.957748  0  0  0.279305  0.36604  0  0.984213  0
H  H32  1  0.32658435  0.33310124  0.87063935  1  0  0.380654  0  0.941268  0  0  0.338879  0  1.023568  0  0  0.350085  0  1.007594  0  0  0.274384  0.331008  0  1.03475  0
H  H33  1  0.53061766  0.16687460  0.62951179  1  0  0.382305  0  0.938867  0  0  0.340583  0  1.021163  0  0  0.351795  0  1.005177  0  0  0.275335  0.332713  0  1.032339  0
H  H34  1  0.67341625  0.66689821  0.12936026  1  0  0.380655  0  0.941268  0  0  0.338878  0  1.023569  0  0  0.350085  0  1.007595  0  0  0.274382  0.331008  0  1.034752  0
H  H35  1  0.46938322  0.83312596  0.37048692  1  0  0.382327  0  0.938842  0  0  0.340597  0  1.021149  0  0  0.351809  0  1.005164  0  0  0.275344  0.332728  0  1.032325  0
H  H36  1  0.66018435  0.66799148  0.64642737  1  0  0.246817  0  0.944241  0  0  0.23193  0  1.013732  0  0  0.237963  0  1.009471  0  0  0.288011  0.227594  0  1.016843  0
H  H37  1  0.97452798  0.83182707  0.85355488  1  0  0.24892  0  0.944362  0  0  0.233472  0  1.014327  0  0  0.239561  0  1.009968  0  0  0.288227  0.229092  0  1.017524  0
H  H38  1  0.33981701  0.33200798  0.35357148  1  0  0.246811  0  0.944216  0  0  0.231922  0  1.013718  0  0  0.237956  0  1.009454  0  0  0.288026  0.227587  0  1.016827  0
H  H39  1  0.02547031  0.16817238  0.14644427  1  0  0.248935  0  0.94437  0  0  0.233484  0  1.014334  0  0  0.239573  0  1.009974  0  0  0.288244  0.229103  0  1.017533  0
C  C40  1  0.93724539  0.42309307  0.83233242  1  0  0.345761  0  3.711061  0  0  0.323135  0  3.983006  0  0  0.334653  0  4.000347  0  0  0.223254  0.315375  0  3.97132  0
C  C41  1  0.19277971  0.07684157  0.66784925  1  0  0.34885  0  3.709953  0  0  0.326174  0  3.981077  0  0  0.337784  0  3.998236  0  0  0.223812  0.318416  0  3.969323  0
C  C42  1  0.06275406  0.57690638  0.16766696  1  0  0.345715  0  3.711224  0  0  0.323095  0  3.983142  0  0  0.334614  0  4.000481  0  0  0.223226  0.315333  0  3.971462  0
C  C43  1  0.80721925  0.92315899  0.33214999  1  0  0.348983  0  3.709825  0  0  0.326273  0  3.98098  0  0  0.33788  0  3.998142  0  0  0.223869  0.318513  0  3.969231  0
C  C44  1  0.97420478  0.46241068  0.71250497  1  0  -0.224743  0  3.677888  0  0  -0.265649  0  3.928548  0  0  -0.26872  0  3.939631  0  0  -0.153646  -0.263366  0  3.920879  0
C  C45  1  0.14915135  0.03747750  0.78769757  1  0  -0.226072  0  3.679212  0  0  -0.266083  0  3.928496  0  0  -0.269021  0  3.939303  0  0  -0.153835  -0.26396  0  3.921164  0
C  C46  1  0.02579582  0.53758877  0.28749464  1  0  -0.22475  0  3.677922  0  0  -0.26563  0  3.928559  0  0  -0.268699  0  3.93964  0  0  -0.153647  -0.263349  0  3.920894  0
C  C47  1  0.85084801  0.96252306  0.21230265  1  0  -0.226118  0  3.679247  0  0  -0.266125  0  3.928532  0  0  -0.269062  0  3.939337  0  0  -0.153829  -0.264001  0  3.921203  0
C  C48  1  0.82793859  0.44913899  0.65824191  1  0  0.060904  0  3.606625  0  0  0.002349  0  3.873138  0  0  0.00648  0  3.885124  0  0  -0.067227  -0.000413  0  3.864888  0
C  C49  1  0.93544524  0.05061447  0.84189632  1  0  0.061588  0  3.608889  0  0  0.00315  0  3.874419  0  0  0.007287  0  3.886379  0  0  -0.065848  0.000455  0  3.866114  0
C  C50  1  0.17206354  0.55086047  0.34175618  1  0  0.060885  0  3.606715  0  0  0.002314  0  3.873238  0  0  0.00644  0  3.885233  0  0  -0.06721  -0.000447  0  3.864987  0
C  C51  1  0.06455488  0.94938609  0.15810315  1  0  0.06166  0  3.608852  0  0  0.003269  0  3.874315  0  0  0.007405  0  3.886275  0  0  -0.065791  0.000578  0  3.866004  0
C  C52  1  0.50443520  0.56517036  0.61225325  1  0  -0.135795  0  3.666838  0  0  -0.19229  0  3.922006  0  0  -0.193331  0  3.930267  0  0  -0.075336  -0.191629  0  3.916332  0
C  C53  1  0.68186091  0.93487585  0.88766124  1  0  -0.134507  0  3.667263  0  0  -0.192071  0  3.923287  0  0  -0.193185  0  3.931641  0  0  -0.074187  -0.191321  0  3.917689  0
C  C54  1  0.49556165  0.43483240  0.38774548  1  0  -0.135792  0  3.666888  0  0  -0.192386  0  3.922109  0  0  -0.193432  0  3.930378  0  0  -0.075385  -0.191726  0  3.916437  0
C  C55  1  0.31814036  0.06512471  0.11233846  1  0  -0.134506  0  3.66722  0  0  -0.192064  0  3.923249  0  0  -0.193183  0  3.931609  0  0  -0.07419  -0.191315  0  3.917658  0
C  C56  1  0.29610144  0.66858436  0.64484101  1  0  0.681087  0  3.841669  0  0  0.630575  0  4.141189  0  0  0.664183  0  4.135185  0  0  0.207857  0.607814  0  4.144388  0
C  C57  1  0.60955697  0.83147753  0.85504143  1  0  0.682569  0  3.843331  0  0  0.632157  0  4.143226  0  0  0.665726  0  4.137214  0  0  0.207571  0.609294  0  4.146531  0
C  C58  1  0.70389904  0.33142061  0.35515561  1  0  0.681036  0  3.841645  0  0  0.630617  0  4.141057  0  0  0.664227  0  4.135049  0  0  0.20783  0.607857  0  4.14426  0
C  C59  1  0.39044950  0.16852082  0.14495848  1  0  0.682428  0  3.843117  0  0  0.632014  0  4.143054  0  0  0.665579  0  4.137052  0  0  0.207489  0.609148  0  4.146364  0
N  N60  1  0.76146379  0.45797247  0.89938840  1  0  -0.332726  0  3.151134  0  0  -0.272071  0  3.424611  0  0  -0.290191  0  3.442885  0  0  -0.244196  -0.259859  0  3.412228  0
N  N61  1  0.11894116  0.04199939  0.60074880  1  0  -0.335227  0  3.152908  0  0  -0.274752  0  3.426564  0  0  -0.292894  0  3.44477  0  0  -0.244303  -0.262351  0  3.413926  0
N  N62  1  0.23853565  0.54202699  0.10061099  1  0  -0.332776  0  3.151208  0  0  -0.272131  0  3.424697  0  0  -0.290249  0  3.442967  0  0  -0.244194  -0.259919  0  3.412317  0
N  N63  1  0.88105780  0.95800116  0.39925044  1  0  -0.335249  0  3.152796  0  0  -0.274777  0  3.426473  0  0  -0.292919  0  3.44468  0  0  -0.244326  -0.262377  0  3.413838  0
N  N64  1  0.79599714  0.40087105  0.99914402  1  0  -0.120241  0  3.216987  0  0  -0.070225  0  3.515314  0  0  -0.078684  0  3.530991  0  0  -0.118734  -0.064285  0  3.504486  0
N  N65  1  0.19610332  0.09915037  0.50101186  1  0  -0.120537  0  3.215191  0  0  -0.070418  0  3.513219  0  0  -0.078859  0  3.528867  0  0  -0.118518  -0.064429  0  3.502417  0
N  N66  1  0.20400423  0.59912841  0.00085483  1  0  -0.120179  0  3.21692  0  0  -0.070167  0  3.515249  0  0  -0.078627  0  3.530928  0  0  -0.118755  -0.064227  0  3.504421  0
N  N67  1  0.80389689  0.90084909  0.49898677  1  0  -0.120531  0  3.215156  0  0  -0.070407  0  3.513186  0  0  -0.078849  0  3.528834  0  0  -0.118501  -0.064417  0  3.502382  0
N  N68  1  0.98477142  0.33402934  0.99440655  1  0  -0.060645  0  2.971972  0  0  -0.059561  0  3.264254  0  0  -0.056923  0  3.276531  0  0  -0.090648  -0.060994  0  3.255918  0
N  N69  1  0.31325272  0.16601771  0.50582001  1  0  -0.059277  0  2.970482  0  0  -0.05829  0  3.262746  0  0  -0.055638  0  3.274998  0  0  -0.090558  -0.059805  0  3.254477  0
N  N70  1  0.01522870  0.66597121  0.00559292  1  0  -0.060705  0  2.97199  0  0  -0.059616  0  3.264275  0  0  -0.056978  0  3.276552  0  0  -0.090655  -0.061047  0  3.255936  0
N  N71  1  0.68674912  0.83398064  0.49417899  1  0  -0.059259  0  2.970535  0  0  -0.058286  0  3.2628  0  0  -0.055635  0  3.275055  0  0  -0.090569  -0.059799  0  3.254529  0
N  N72  1  0.07740396  0.34605651  0.89032324  1  0  -0.334714  0  3.010433  0  0  -0.28887  0  3.283151  0  0  -0.302747  0  3.295109  0  0  -0.210504  -0.279652  0  3.275247  0
N  N73  1  0.31384257  0.15393597  0.60992547  1  0  -0.335887  0  3.010404  0  0  -0.289952  0  3.283196  0  0  -0.303824  0  3.295092  0  0  -0.210587  -0.280591  0  3.275168  0
N  N74  1  0.92259664  0.65394294  0.10967637  1  0  -0.334652  0  3.010534  0  0  -0.288803  0  3.283241  0  0  -0.302681  0  3.295201  0  0  -0.210466  -0.279586  0  3.275338  0
N  N75  1  0.68615571  0.84606348  0.39007369  1  0  -0.335963  0  3.010451  0  0  -0.289989  0  3.283225  0  0  -0.303859  0  3.295125  0  0  -0.210593  -0.280628  0  3.275199  0
N  N76  1  0.63736787  0.56773903  0.67337409  1  0  -0.403632  0  3.263623  0  0  -0.327629  0  3.511648  0  0  -0.34672  0  3.524096  0  0  -0.493476  -0.31419  0  3.502574  0
N  N77  1  0.87853312  0.93215010  0.82660121  1  0  -0.407913  0  3.267266  0  0  -0.331052  0  3.515386  0  0  -0.350191  0  3.527876  0  0  -0.494893  -0.317556  0  3.506336  0
N  N78  1  0.36263273  0.43226042  0.32662553  1  0  -0.403522  0  3.263609  0  0  -0.327519  0  3.511671  0  0  -0.346606  0  3.524118  0  0  -0.49344  -0.314076  0  3.50259  0
N  N79  1  0.12146393  0.06785046  0.17339856  1  0  -0.408003  0  3.267149  0  0  -0.33119  0  3.515357  0  0  -0.350325  0  3.527843  0  0  -0.494991  -0.317693  0  3.506314  0
O  O80  1  0.23457470  0.69512016  0.74013783  1  0  -0.631368  0  2.006134  0  0  -0.560593  0  2.255871  0  0  -0.589355  0  2.245449  0  0  -0.322329  -0.540608  0  2.262431  0
O  O81  1  0.66988205  0.80487881  0.75975758  1  0  -0.631347  0  2.00558  0  0  -0.561012  0  2.256049  0  0  -0.589696  0  2.245547  0  0  -0.321775  -0.540827  0  2.262422  0
O  O82  1  0.76542543  0.30488039  0.25986164  1  0  -0.631373  0  2.006226  0  0  -0.560607  0  2.255894  0  0  -0.589367  0  2.245469  0  0  -0.322326  -0.540623  0  2.262456  0
O  O83  1  0.33011988  0.19511954  0.24024962  1  0  -0.631282  0  2.005147  0  0  -0.56094  0  2.255598  0  0  -0.589633  0  2.245124  0  0  -0.321717  -0.540751  0  2.261969  0
O  O84  1  0.18876857  0.72093396  0.57483153  1  0  -0.657226  0  2.011812  0  0  -0.591904  0  2.256235  0  0  -0.620838  0  2.246601  0  0  -0.321317  -0.571667  0  2.262102  0
O  O85  1  0.48467573  0.77905846  0.92505333  1  0  -0.658828  0  2.014717  0  0  -0.59315  0  2.25853  0  0  -0.622091  0  2.249061  0  0  -0.321502  -0.572715  0  2.264274  0
O  O86  1  0.81123002  0.27907101  0.42516835  1  0  -0.657223  0  2.01172  0  0  -0.591912  0  2.256072  0  0  -0.620851  0  2.24645  0  0  -0.321281  -0.571672  0  2.261941  0
O  O87  1  0.51532454  0.22094099  0.07495076  1  0  -0.658756  0  2.01486  0  0  -0.593066  0  2.258681  0  0  -0.622002  0  2.249209  0  0  -0.321475  -0.572631  0  2.264428  0
O  O88  1  0.46113306  0.33209895  0.86829288  1  0  -0.821798  0  1.884735  0  0  -0.763476  0  2.088391  0  0  -0.785498  0  2.055843  0  0  -0.596432  -0.747638  0  2.110764  0
O  O89  1  0.66189995  0.16779359  0.63175122  1  0  -0.823398  0  1.882451  0  0  -0.765032  0  2.085818  0  0  -0.78711  0  2.053253  0  0  -0.596885  -0.749346  0  2.108252  0
O  O90  1  0.53886678  0.66790050  0.13170749  1  0  -0.821828  0  1.884713  0  0  -0.763515  0  2.088374  0  0  -0.785537  0  2.055825  0  0  -0.596451  -0.747677  0  2.110749  0
O  O91  1  0.33809949  0.83220586  0.36824816  1  0  -0.823428  0  1.882416  0  0  -0.765061  0  2.085786  0  0  -0.787138  0  2.05322  0  0  -0.596894  -0.749374  0  2.108223  0
