# generated using pymatgen
data_CuH16C14(NO3)2
_symmetry_space_group_name_H-M   'P 1'
_cell_length_a   7.24757792
_cell_length_b   7.67967214
_cell_length_c   8.40483887
_cell_angle_alpha   112.35147415
_cell_angle_beta   110.50584570
_cell_angle_gamma   100.23181204
_symmetry_Int_Tables_number   1
_chemical_formula_structural   CuH16C14(NO3)2
_chemical_formula_sum   'Cu1 H16 C14 N2 O6'
_cell_volume   378.25453543
_cell_formula_units_Z   1
loop_
 _symmetry_equiv_pos_site_id
 _symmetry_equiv_pos_as_xyz
  1  'x, y, z'
loop_
 _atom_site_type_symbol
 _atom_site_label
 _atom_site_symmetry_multiplicity
 _atom_site_fract_x
 _atom_site_fract_y
 _atom_site_fract_z
 _atom_site_occupancy
 _atom_site_hle17_ddec_charge
 _atom_site_hle17_ddec_spin_density
 _atom_site_hle17_ddec_sum_bond_order
 _atom_site_hle17_magmom
 _atom_site_hse06_10hf_ddec_charge
 _atom_site_hse06_10hf_ddec_spin_density
 _atom_site_hse06_10hf_ddec_sum_bond_order
 _atom_site_hse06_10hf_magmom
 _atom_site_hse06_ddec_charge
 _atom_site_hse06_ddec_spin_density
 _atom_site_hse06_ddec_sum_bond_order
 _atom_site_hse06_magmom
 _atom_site_pbe_cm5_charge
 _atom_site_pbe_ddec_charge
 _atom_site_pbe_ddec_spin_density
 _atom_site_pbe_ddec_sum_bond_order
 _atom_site_pbe_magmom
Cu  Cu0  1  0.54126746  0.04129155  0.08284421  1  0.84179  -0.690204  1.806082  -0.512  0.811512  -0.775243  2.189014  -0.625  0.902216  -0.840624  2.123024  -0.709  0.742674  0.755495  -0.729317  2.235699  -0.569
H  H1  1  0.20352831  0.72605366  0.90041271  1  0.352896  0.000193  0.947235  0.0  0.329213  0.000137  1.022094  0.0  0.340271  0.000166  1.009523  0.0  0.282093  0.321358  9.8e-05  1.030983  0.0
H  H2  1  0.69750024  0.17490681  0.90117351  1  0.352731  0.000192  0.947217  0.0  0.328982  0.000137  1.022181  0.0  0.340075  0.000166  1.009613  0.0  0.282231  0.321115  9.8e-05  1.031039  0.0
H  H3  1  0.63130417  0.05626886  0.47727365  1  0.097717  -0.000878  0.946665  -0.002  0.102187  -0.000798  1.013888  -0.001  0.104843  -0.000553  1.011281  -0.001  0.12055  0.100095  -0.000992  1.01592  -0.001
H  H4  1  0.84571489  0.42034505  0.47731111  1  0.097169  -0.000879  0.946783  -0.002  0.101602  -0.000801  1.01394  -0.001  0.104259  -0.000556  1.011359  -0.001  0.120733  0.099487  -0.000996  1.015938  -0.001
H  H5  1  0.94471921  0.07383313  0.73904629  1  0.126289  -0.000804  0.931761  -0.001  0.136093  -0.000692  0.988374  -0.001  0.13999  -0.000486  0.986035  0.0  0.117519  0.133168  -0.00088  0.99027  -0.001
H  H6  1  0.79443861  0.66500756  0.73898861  1  0.125788  -0.000803  0.931915  -0.001  0.136126  -0.000692  0.988074  -0.001  0.140107  -0.000485  0.985643  0.0  0.117849  0.13314  -0.00088  0.990049  -0.001
H  H7  1  0.23136766  0.96092126  0.35586638  1  0.124233  -0.000387  0.952219  0.0  0.131082  -0.000434  1.015309  -0.001  0.13419  -0.00031  1.014159  0.0  0.11394  0.128778  -0.000536  1.016325  -0.001
H  H8  1  0.12434745  0.39526165  0.35564649  1  0.12616  -0.000386  0.950381  0.0  0.132971  -0.000433  1.01334  -0.001  0.136081  -0.000311  1.012194  0.0  0.115271  0.130631  -0.000536  1.014438  -0.001
H  H9  1  0.90580137  0.94578329  0.10694604  1  0.09948  -0.001025  0.939985  -0.002  0.105533  -0.000829  1.004584  -0.002  0.108303  -0.000546  1.001279  -0.001  0.125219  0.103303  -0.001088  1.007234  -0.002
H  H10  1  0.20054081  0.16082296  0.10689627  1  0.099129  -0.00104  0.938504  -0.002  0.10511  -0.000839  1.00329  -0.002  0.107882  -0.000554  0.99996  -0.001  0.125186  0.102885  -0.001099  1.005964  -0.002
H  H11  1  0.45695017  0.66702461  0.17669022  1  0.055254  0.000119  0.97057  0.0  0.069602  7.8e-05  1.044806  0.0  0.070308  8.4e-05  1.045149  0.0  0.079241  0.069123  6.6e-05  1.0446  0.0
H  H12  1  0.72019020  0.51003271  0.17731711  1  0.054885  0.000123  0.971152  0.0  0.069268  8e-05  1.045198  0.0  0.06998  8.5e-05  1.045521  0.0  0.078951  0.068779  6.8e-05  1.045019  0.0
H  H13  1  0.26430743  0.48198975  0.93658160  1  0.069021  5e-06  0.950076  0.0  0.088034  1.5e-05  1.014071  0.0  0.088866  1.1e-05  1.014164  0.0  0.08877  0.087413  1.7e-05  1.014041  0.0
H  H14  1  0.67305163  0.45503202  0.93733178  1  0.068362  1e-06  0.950024  0.0  0.087441  1.4e-05  1.014044  0.0  0.088239  1e-05  1.014168  0.0  0.089056  0.086855  1.6e-05  1.013983  0.0
H  H15  1  0.19411993  0.54880603  0.12822379  1  0.064907  -5.8e-05  0.98773  0.0  0.085122  -1.6e-05  1.049894  0.0  0.085529  -2.2e-05  1.050313  0.0  0.085848  0.084871  -1.3e-05  1.049545  0.0
H  H16  1  0.93486052  0.57995270  0.12922291  1  0.063809  -6e-05  0.986646  0.0  0.083854  -1.6e-05  1.049299  0.0  0.084258  -2.2e-05  1.04972  0.0  0.085005  0.083608  -1.2e-05  1.04897  0.0
C  C17  1  0.76762526  0.03730860  0.45544382  1  0.112957  0.009877  3.681922  0.006  0.085299  0.002183  3.942205  0.001  0.09325  0.003762  3.960797  0.002  0.047894  0.080198  0.000951  3.930012  0.0
C  C18  1  0.68754030  0.41761471  0.45546213  1  0.113404  0.009888  3.682226  0.006  0.08597  0.002197  3.942745  0.001  0.093924  0.003774  3.961409  0.002  0.048218  0.080909  0.000963  3.930443  0.0
C  C19  1  0.94273626  0.04599896  0.60127110  1  -0.10596  -0.00817  3.670224  -0.009  -0.126083  -0.00356  3.912492  -0.004  -0.130823  -0.00321  3.930415  -0.004  -0.069696  -0.123147  -0.003759  3.900802  -0.004
C  C20  1  0.65853221  0.55503826  0.60120595  1  -0.105547  -0.008176  3.671208  -0.009  -0.126939  -0.003563  3.913109  -0.004  -0.13174  -0.003211  3.931052  -0.004  -0.070269  -0.123954  -0.00376  3.901453  -0.004
C  C21  1  0.11650228  0.02467702  0.56965234  1  0.004748  0.000284  3.704734  -0.003  0.021073  -0.001896  3.935548  -0.003  0.020693  0.000133  3.952618  -0.002  0.00786  0.021071  -0.003549  3.924352  -0.005
C  C22  1  0.45314143  0.54509695  0.56950305  1  0.005166  0.000325  3.705561  -0.002  0.023484  -0.001874  3.933971  -0.003  0.023036  0.000154  3.951167  -0.002  0.008369  0.023478  -0.003521  3.922749  -0.005
C  C23  1  0.10228814  0.98366923  0.38843896  1  -0.115968  -0.009696  3.709634  -0.011  -0.137671  -0.004437  3.954381  -0.006  -0.143963  -0.003754  3.975269  -0.005  -0.070657  -0.133645  -0.004918  3.940666  -0.006
C  C24  1  0.28593868  0.40481829  0.38825876  1  -0.118439  -0.009705  3.707178  -0.011  -0.140842  -0.004447  3.951994  -0.006  -0.147139  -0.003762  3.972858  -0.005  -0.072364  -0.136795  -0.004929  3.938302  -0.006
C  C25  1  0.92237797  0.97604810  0.24946769  1  0.129315  0.010409  3.67774  0.006  0.100741  0.002481  3.937617  0.001  0.109121  0.004349  3.955437  0.003  0.051603  0.095275  0.000969  3.926086  0.0
C  C26  1  0.32675068  0.27316588  0.24944417  1  0.131749  0.010407  3.675332  0.006  0.103249  0.002491  3.935897  0.001  0.111694  0.004353  3.953684  0.003  0.052724  0.097718  0.000978  3.92439  0.0
C  C27  1  0.32100303  0.05144832  0.72464286  1  0.638821  0.005276  3.886564  0.006  0.593936  0.00035  4.185596  0.001  0.630551  0.000975  4.178105  0.001  0.214062  0.569145  -0.000175  4.189862  0.001
C  C28  1  0.40366147  0.67351128  0.72428904  1  0.636372  0.005287  3.889342  0.006  0.591333  0.00037  4.187945  0.001  0.627953  0.000988  4.180506  0.001  0.21352  0.566549  -0.000151  4.192186  0.001
C  C29  1  0.28935404  0.60819959  0.07103736  1  -0.026387  0.000222  3.694538  0.0  -0.11472  0.00024  3.962764  0.0  -0.108893  0.000237  3.966571  0.0  -0.167255  -0.11855  0.000214  3.959822  0.0
C  C30  1  0.78232659  0.46327257  0.07182501  1  -0.022548  0.000224  3.692627  0.0  -0.110668  0.000238  3.961008  0.0  -0.104796  0.000235  3.964808  0.0  -0.164591  -0.11456  0.000214  3.958094  0.0
N  N31  1  0.76022155  0.00786886  0.28390428  1  -0.303517  -0.076905  3.343743  -0.099  -0.255735  -0.055186  3.64022  -0.076  -0.286402  -0.045152  3.662895  -0.067  -0.344838  -0.237214  -0.06095  3.626816  -0.079
N  N32  1  0.52322329  0.27552477  0.28394494  1  -0.304266  -0.076876  3.343789  -0.099  -0.256889  -0.05515  3.640865  -0.076  -0.287642  -0.045118  3.663615  -0.067  -0.346003  -0.238317  -0.060908  3.627406  -0.079
O  O33  1  0.31778147  0.06751487  0.88150144  1  -0.593081  -0.086588  2.100215  -0.119  -0.565196  -0.052863  2.380631  -0.079  -0.608986  -0.039258  2.375377  -0.064  -0.318088  -0.535486  -0.062624  2.383923  -0.089
O  O34  1  0.56377467  0.81424449  0.88131482  1  -0.591924  -0.086566  2.100526  -0.119  -0.564791  -0.052876  2.381492  -0.079  -0.608485  -0.039269  2.376037  -0.064  -0.318138  -0.535129  -0.062639  2.384907  -0.089
O  O35  1  0.47693985  0.05949204  0.69012654  1  -0.592255  0.001742  1.970184  0.0  -0.545372  0.001006  2.188356  0.0  -0.570938  0.001823  2.181378  0.001  -0.303035  -0.527603  0.000329  2.192544  -0.001
O  O36  1  0.21309885  0.63112333  0.68952944  1  -0.591782  0.001776  1.970272  0.0  -0.544632  0.001025  2.188057  0.0  -0.570191  0.001843  2.181107  0.001  -0.302842  -0.52684  0.000348  2.192218  -0.001
O  O37  1  0.22871229  0.76318491  0.03608141  1  -0.559381  0.001428  2.091417  0.0  -0.508647  0.001803  2.337368  0.001  -0.526812  0.002029  2.324254  0.001  -0.432355  -0.495614  0.001454  2.346262  0.0
O  O38  1  0.80796179  0.27335071  0.03689496  1  -0.5611  0.001426  2.091496  0.0  -0.510632  0.001798  2.338223  0.001  -0.528808  0.002026  2.324992  0.001  -0.434255  -0.497595  0.00145  2.347181  0.0
