# generated using pymatgen
data_Zn2H31C29(NO2)5
_symmetry_space_group_name_H-M   'P 1'
_cell_length_a   9.79087143
_cell_length_b   11.07730923
_cell_length_c   16.05655852
_cell_angle_alpha   90.34404726
_cell_angle_beta   91.79841688
_cell_angle_gamma   88.46503094
_symmetry_Int_Tables_number   1
_chemical_formula_structural   Zn2H31C29(NO2)5
_chemical_formula_sum   'Zn2 H31 C29 N5 O10'
_cell_volume   1739.93269849
_cell_formula_units_Z   1
loop_
 _symmetry_equiv_pos_site_id
 _symmetry_equiv_pos_as_xyz
  1  'x, y, z'
loop_
 _atom_site_type_symbol
 _atom_site_label
 _atom_site_symmetry_multiplicity
 _atom_site_fract_x
 _atom_site_fract_y
 _atom_site_fract_z
 _atom_site_occupancy
 _atom_site_pbe_bader_charge
 _atom_site_pbe_bader_spin_density
 _atom_site_pbe_cm5_charge
 _atom_site_pbe_ddec_charge
 _atom_site_pbe_ddec_spin_density
 _atom_site_pbe_ddec_sum_bond_order
 _atom_site_pbe_magmom
Zn  Zn0  1  0.64556265  0.47074014  0.49850033  1  1.274223  0  0.663839  0.853726  0  2.441102  0
Zn  Zn1  1  0.36344094  0.47658610  0.49993536  1  1.284449  0  0.668344  0.794099  0  2.458637  0
H  H2  1  0.60669954  0.88026500  0.45881593  1  0.081074  0  0.105712  0.122878  0  0.99249  0
H  H3  1  0.23047232  0.73477669  0.96911804  1  0.029362  0  0.093753  0.046134  0  0.981241  0
H  H4  1  0.37566096  0.82542796  0.98967876  1  0.022978  0  0.095484  0.049851  0  0.973581  0
H  H5  1  0.26935162  0.90282432  0.12167729  1  0.041219  0  0.09602  0.131781  0  0.98799  0
H  H6  1  0.16114868  0.93457526  0.03255447  1  0.035166  0  0.090842  0.118558  0  1.008357  0
H  H7  1  0.12366105  0.81348950  0.09997990  1  0.034169  0  0.092137  0.124619  0  1.003839  0
H  H8  1  0.19433888  0.51411875  0.36741060  1  0.512318  0  0.324383  0.260109  0  0.985861  0
H  H9  1  0.02409189  0.64120307  0.31899675  1  0.081762  0  0.124805  0.141578  0  0.957248  0
H  H10  1  0.98884845  0.67917598  0.42563606  1  0.087959  0  0.11671  0.12838  0  0.97078  0
H  H11  1  0.90032615  0.56101744  0.37487616  1  0.095965  0  0.115467  0.130789  0  0.997742  0
H  H12  1  0.34697871  0.29599724  0.09411449  1  0.413047  0  0.294454  0.238339  0  0.965247  0
H  H13  1  0.88060195  0.55919847  0.60677128  1  0.132018  0  0.134049  0.103118  0  0.949982  0
H  H14  1  0.29678157  0.13255534  0.00328124  1  0.03638  0  0.09878  0.10228  0  1.001366  0
H  H15  1  0.39966879  0.19520255  0.92630669  1  0.022986  0  0.099332  0.104169  0  0.986373  0
H  H16  1  0.23897566  0.26551547  0.94840259  1  0.002851  0  0.083255  0.074871  0  1.007295  0
H  H17  1  0.63031526  0.30699976  0.86739315  1  0.413126  0  0.295499  0.238437  0  0.961939  0
H  H18  1  0.80965130  0.18888351  0.93619800  1  0.036581  0  0.096357  0.099692  0  0.990026  0
H  H19  1  0.65941601  0.17551709  0.99630244  1  0.040035  0  0.085048  0.083316  0  1.016354  0
H  H20  1  0.78781418  0.27833120  0.02748076  1  0.068739  0  0.102742  0.113168  0  0.99124  0
H  H21  1  0.85150115  0.64773474  0.99932332  1  0.035227  0  0.092129  0.046077  0  0.976023  0
H  H22  1  0.87031826  0.49601155  0.96240577  1  0.06385  0  0.097548  0.057975  0  0.990553  0
H  H23  1  0.02327683  0.44437060  0.08617512  1  0.02676  0  0.090547  0.122822  0  0.996842  0
H  H24  1  0.90000080  0.42023363  0.45216564  1  0.429193  0  0.311567  0.28584  0  0.927414  0
H  H25  1  0.08900303  0.57023429  0.03350892  1  0.012153  0  0.089908  0.121528  0  1.028923  0
H  H26  1  0.99893697  0.59284141  0.12693790  1  0.036737  0  0.090794  0.121597  0  1.003094  0
H  H27  1  0.13408373  0.51976549  0.60903833  1  0.142366  0  0.130662  0.125366  0  0.990946  0
H  H28  1  0.60125864  0.70661863  0.96518598  1  0.072391  0  0.104302  0.116993  0  0.991475  0
H  H29  1  0.27137994  0.50316044  0.93551231  1  0.051702  0  0.099626  0.110943  0  1.002687  0
H  H30  1  0.29756244  0.08690918  0.48716750  1  0.07971  0  0.107027  0.106604  0  0.983145  0
H  H31  1  0.60453714  0.06877176  0.53455021  1  0.101766  0  0.106012  0.123101  0  0.992183  0
H  H32  1  0.30613384  0.86261256  0.50716816  1  0.114691  0  0.105082  0.104354  0  0.987922  0
C  C33  1  0.50975389  0.70698264  0.47825976  1  1.518466  0  0.203383  0.631464  0  4.19297  0
C  C34  1  0.50446677  0.10901580  0.51808062  1  -0.088063  0  -0.091877  -0.224  0  3.888196  0
C  C35  1  0.40025922  0.90953116  0.49485216  1  0.017525  0  -0.075843  -0.029586  0  4.000652  0
C  C36  1  0.49207992  0.45301249  0.33384292  1  1.638509  0  0.219286  0.679765  0  4.233543  0
C  C37  1  0.51065420  0.84057517  0.47568270  1  -0.061223  0  -0.092518  -0.226264  0  3.886193  0
C  C38  1  0.92953855  0.51915487  0.55227272  1  0.651352  0  0.092459  0.181668  0  3.971487  0
C  C39  1  0.07633660  0.52105994  0.54967847  1  0.479375  0  0.032007  -0.086073  0  3.94789  0
C  C40  1  0.49715515  0.24255304  0.51626147  1  1.570372  0  0.204383  0.628775  0  4.190295  0
C  C41  1  0.50376672  0.51248435  0.66035031  1  1.686469  0  0.215437  0.668625  0  4.246798  0
C  C42  1  0.55955317  0.61919849  0.98044533  1  -0.079477  0  -0.086979  -0.234509  0  3.62654  0
C  C43  1  0.42727585  0.59835820  0.03146502  1  0.595532  0  0.089737  0.238857  0  3.775282  0
C  C44  1  0.50321004  0.49386668  0.08249619  1  0.076393  0  0.000403  -0.032803  0  3.820297  0
C  C45  1  0.49327917  0.46082454  0.24426839  1  0.298305  0  -0.058922  -0.223072  0  3.98791  0
C  C46  1  0.50873678  0.52640547  0.74994619  1  0.201573  0  -0.062749  -0.212617  0  4.004509  0
C  C47  1  0.63498466  0.51410179  0.03084884  1  0.582362  0  0.090121  0.185069  0  3.749866  0
C  C48  1  0.29277809  0.77718669  0.01930132  1  0.416226  0  -0.068018  0.093974  0  3.943305  0
C  C49  1  0.20669761  0.86200912  0.07162577  1  -0.044675  0  -0.242833  -0.396698  0  3.98517  0
C  C50  1  0.00004685  0.60502670  0.38002034  1  0.251558  0  -0.117027  -0.257403  0  3.925847  0
C  C51  1  0.32966805  0.21773846  0.97669478  1  0.307315  0  -0.142434  -0.203016  0  4.015383  0
C  C52  1  0.73421271  0.23903228  0.97308413  1  0.237013  0  -0.145831  -0.212556  0  3.995857  0
C  C53  1  0.87026338  0.55309758  0.01886142  1  0.408319  0  -0.070801  0.087449  0  3.923686  0
C  C54  1  0.00296605  0.53923995  0.06923377  1  -0.040554  0  -0.244987  -0.395152  0  3.98195  0
C  C55  1  0.58502506  0.41876057  0.96334387  1  0.422649  0  0.092175  0.06679  0  3.716361  0
C  C56  1  0.50654699  0.52444678  0.91372760  1  0.09561  0  0.001335  0.110631  0  3.854852  0
C  C57  1  0.45008128  0.39942530  0.01532333  1  0.419464  0  0.093583  0.152594  0  3.71927  0
C  C58  1  0.37387309  0.50526988  0.96445965  1  -0.088277  0  -0.095231  -0.242224  0  3.638942  0
C  C59  1  0.49844477  0.47641818  0.16935303  1  -0.554641  0  -0.031394  0.002549  0  4.09776  0
C  C60  1  0.50932812  0.53115964  0.82584295  1  -0.529693  0  -0.043157  -0.051112  0  4.110223  0
C  C61  1  0.39611974  0.04030507  0.49891011  1  -0.05748  0  -0.074415  -0.029502  0  3.998825  0
N  N62  1  0.85038301  0.46416759  0.49912068  1  -1.200239  0  -0.48071  -0.446614  0  3.29929  0
N  N63  1  0.15352680  0.50735636  0.48453862  1  -0.704648  0  -0.20071  -0.05172  0  3.609166  0
N  N64  1  0.11282989  0.52571458  0.40602886  1  -0.702848  0  -0.289982  -0.078003  0  3.56887  0
N  N65  1  0.40129162  0.28708372  0.04111230  1  -1.110839  0  -0.473679  -0.349472  0  3.514165  0
N  N66  1  0.67301874  0.33685312  0.92226499  1  -1.132193  0  -0.471649  -0.338322  0  3.529946  0
O  O67  1  0.62436380  0.65163323  0.46883885  1  -1.152814  0  -0.325669  -0.556055  0  2.263529  0
O  O68  1  0.76100698  0.51787716  0.07135838  1  -1.068165  0  -0.206913  -0.240356  0  2.483182  0
O  O69  1  0.39632032  0.65705507  0.49090271  1  -1.17399  0  -0.327253  -0.565879  0  2.339429  0
O  O70  1  0.60585984  0.43261944  0.37207036  1  -1.144474  0  -0.313236  -0.540661  0  2.229201  0
O  O71  1  0.37639377  0.46900136  0.36796842  1  -1.165802  0  -0.313699  -0.565717  0  2.30536  0
O  O72  1  0.61076647  0.29528364  0.52738244  1  -1.157077  0  -0.325437  -0.554374  0  2.279504  0
O  O73  1  0.38089029  0.29510955  0.50274019  1  -1.167973  0  -0.325168  -0.547377  0  2.306042  0
O  O74  1  0.61542971  0.52173907  0.62267572  1  -1.150839  0  -0.313381  -0.54943  0  2.255764  0
O  O75  1  0.38663747  0.49006659  0.62734891  1  -1.147508  0  -0.317343  -0.54217  0  2.262435  0
O  O76  1  0.35147166  0.68475593  0.07310291  1  -1.063855  0  -0.206683  -0.248567  0  2.492505  0
