# generated using pymatgen
data_Al6H68C85N2O33
_symmetry_space_group_name_H-M   'P 1'
_cell_length_a   12.70730237
_cell_length_b   12.88876977
_cell_length_c   28.44074800
_cell_angle_alpha   91.00198475
_cell_angle_beta   90.42908955
_cell_angle_gamma   60.30949418
_symmetry_Int_Tables_number   1
_chemical_formula_structural   Al6H68C85N2O33
_chemical_formula_sum   'Al6 H68 C85 N2 O33'
_cell_volume   4045.90477910
_cell_formula_units_Z   1
loop_
 _symmetry_equiv_pos_site_id
 _symmetry_equiv_pos_as_xyz
  1  'x, y, z'
loop_
 _atom_site_type_symbol
 _atom_site_label
 _atom_site_symmetry_multiplicity
 _atom_site_fract_x
 _atom_site_fract_y
 _atom_site_fract_z
 _atom_site_occupancy
 _atom_site_pbe_bader_charge
 _atom_site_pbe_bader_spin_density
 _atom_site_pbe_cm5_charge
 _atom_site_pbe_ddec_charge
 _atom_site_pbe_ddec_spin_density
 _atom_site_pbe_ddec_sum_bond_order
 _atom_site_pbe_magmom
Al  Al0  1  0.59223898  0.58442126  0.49984015  1  2.496102  0  0.396623  1.682522  0  2.559874  0
Al  Al1  1  0.58245447  0.33989391  0.49883681  1  2.472976  0  0.507425  1.658704  0  2.514094  0
Al  Al2  1  0.34642374  0.57021821  0.50016603  1  2.47498  0  0.508299  1.662152  0  2.509905  0
Al  Al3  1  0.07358823  0.07981783  0.00282139  1  2.491954  0  0.398158  1.685287  0  2.553198  0
Al  Al4  1  0.32446025  0.08356902  0.00108258  1  2.475876  0  0.508458  1.662116  0  2.51016  0
Al  Al5  1  0.09261890  0.31855307  0.99884693  1  2.48157  0  0.505938  1.662345  0  2.511859  0
H  H6  1  0.54773177  0.18559629  0.77992770  1  0.088784  0  0.104368  0.096292  0  0.988051  0
H  H7  1  0.42675614  0.12233185  0.71005999  1  0.090809  0  0.106653  0.10359  0  0.985501  0
H  H8  1  0.47625506  0.40235181  0.73291988  1  0.053106  0  0.097923  0.08479  0  1.018723  0
H  H9  1  0.26069444  0.51522274  0.78751519  1  0.069806  0  0.101361  0.092047  0  1.002113  0
H  H10  1  0.14138004  0.45171671  0.71744793  1  0.06689  0  0.10417  0.094514  0  0.986965  0
H  H11  1  0.21418316  0.23353000  0.76403129  1  0.082511  0  0.101287  0.09521  0  1.023793  0
H  H12  1  0.27854992  0.69257987  0.80834960  1  0.035827  0  0.096919  0.09551  0  0.984367  0
H  H13  1  0.27242761  0.66852070  0.72643667  1  0.03867  0  0.097947  0.098328  0  0.97569  0
H  H14  1  0.14818835  0.87910213  0.71381547  1  0.084144  0  0.127247  0.097089  0  0.952491  0
H  H15  1  0.14220871  0.91856167  0.79480564  1  0.039911  0  0.105808  0.116502  0  0.962939  0
H  H16  1  0.21184659  0.00649142  0.78510647  1  0.078588  0  0.105975  0.108898  0  1.003817  0
H  H17  1  0.53524167  0.71703299  0.71654026  1  0.040765  0  0.09842  0.103182  0  0.988172  0
H  H18  1  0.45464586  0.87133428  0.70542289  1  0.065896  0  0.098771  0.103681  0  0.989311  0
H  H19  1  0.53045568  0.76381984  0.79692377  1  0.046395  0  0.098224  0.101224  0  0.974598  0
H  H20  1  0.43177480  0.59837371  0.72504426  1  0.037603  0  0.095516  0.091179  0  1.015559  0
H  H21  1  0.43737194  0.62929782  0.80622878  1  0.043729  0  0.097483  0.099534  0  0.98176  0
H  H22  1  0.43456547  0.91733259  0.78583003  1  0.057587  0  0.098376  0.102041  0  0.975243  0
H  H23  1  0.77522270  0.52083027  0.79181805  1  0.035814  0  0.09559  0.095915  0  0.975219  0
H  H24  1  0.73033236  0.53026462  0.71130995  1  0.025024  0  0.095858  0.094124  0  0.982349  0
H  H25  1  0.00741103  0.23278406  0.69538417  1  0.068075  0  0.091356  0.094773  0  1.027028  0
H  H26  1  0.95168720  0.38771475  0.70042377  1  0.036421  0  0.094662  0.094198  0  0.977669  0
H  H27  1  0.99676508  0.36398125  0.78090547  1  0.047415  0  0.094739  0.092104  0  0.985732  0
H  H28  1  0.03767099  0.21170909  0.77712312  1  0.042708  0  0.088684  0.082286  0  1.005466  0
H  H29  1  0.70544226  0.25239668  0.71679572  1  0.038494  0  0.091827  0.088272  0  0.994809  0
H  H30  1  0.86160628  0.15193615  0.70959351  1  0.029279  0  0.094799  0.098284  0  0.976778  0
H  H31  1  0.72883633  0.25621450  0.79863103  1  0.038155  0  0.093158  0.09032  0  0.98498  0
H  H32  1  0.62959639  0.47587314  0.72135225  1  0.007658  0  0.086756  0.076526  0  1.019245  0
H  H33  1  0.66615613  0.47700643  0.80234187  1  0.023412  0  0.091752  0.088063  0  0.992703  0
H  H34  1  0.88270515  0.14756616  0.79187044  1  0.038273  0  0.093679  0.09359  0  0.980116  0
H  H35  1  0.18497526  0.51241137  0.20704751  1  0.078399  0  0.128608  0.099887  0  0.9502  0
H  H36  1  0.20055458  0.52294558  0.28889886  1  0.057944  0  0.105754  0.116099  0  0.962692  0
H  H37  1  0.29641060  0.19548028  0.29500389  1  0.054539  0  0.099092  0.104045  0  0.980825  0
H  H38  1  0.16916106  0.34075131  0.29972878  1  0.047572  0  0.096121  0.095642  0  0.982791  0
H  H39  1  0.14594632  0.34941029  0.21762208  1  0.042387  0  0.093262  0.088899  0  1.004337  0
H  H40  1  0.26453069  0.19854901  0.21439069  1  0.104174  0  0.10293  0.107407  0  1.021325  0
H  H41  1  0.52641935  0.29174414  0.28009880  1  0.053585  0  0.095346  0.093497  0  1.019334  0
H  H42  1  0.50788139  0.16643812  0.28942257  1  0.05044  0  0.096772  0.097693  0  0.984782  0
H  H43  1  0.51846011  0.26000212  0.19946800  1  0.045607  0  0.099063  0.105736  0  0.990453  0
H  H44  1  0.35002168  0.49802705  0.28215747  1  0.076696  0  0.105797  0.108282  0  1.006657  0
H  H45  1  0.47590454  0.15059849  0.20902674  1  0.092053  0  0.102194  0.11028  0  1.003051  0
H  H46  1  0.52352899  0.72821728  0.20466439  1  0.025899  0  0.093735  0.092852  0  1.000296  0
H  H47  1  0.53060605  0.69995147  0.28679427  1  0.032212  0  0.092693  0.08758  0  0.998123  0
H  H48  1  0.26401731  0.99797027  0.31107717  1  0.052411  0  0.098211  0.106097  0  0.980522  0
H  H49  1  0.42336309  0.91490527  0.30697090  1  0.0464  0  0.104007  0.113305  0  0.993478  0
H  H50  1  0.24483752  0.03850559  0.23197959  1  0.019881  0  0.105535  0.047444  0  0.989282  0
H  H51  1  0.21841236  0.73742739  0.27879512  1  0.018861  0  0.090582  0.090017  0  0.991051  0
H  H52  1  0.14146108  0.89045973  0.29428321  1  0.055683  0  0.09484  0.09441  0  0.981005  0
H  H53  1  0.20651474  0.78867036  0.19913206  1  0.066736  0  0.097391  0.106545  0  0.988458  0
H  H54  1  0.45183862  0.62108424  0.27692140  1  0.026715  0  0.089928  0.08787  0  1.010615  0
H  H55  1  0.42911276  0.66623265  0.19729260  1  0.065373  0  0.09264  0.093968  0  1.03309  0
H  H56  1  0.13480725  0.94118938  0.21513943  1  0.034207  0  0.094091  0.091363  0  0.998461  0
H  H57  1  0.75064740  0.25249806  0.19585293  1  0.037422  0  0.097603  0.099637  0  0.971434  0
H  H58  1  0.72105725  0.24878431  0.27684633  1  0.015105  0  0.093844  0.091985  0  0.985578  0
H  H59  1  0.01993870  0.22746189  0.30200139  1  0.027514  0  0.092103  0.089723  0  0.987355  0
H  H60  1  0.94583926  0.14357320  0.29280925  1  0.013239  0  0.09446  0.092834  0  0.982849  0
H  H61  1  0.97374778  0.14246274  0.21135465  1  0.04631  0  0.096556  0.095764  0  0.986218  0
H  H62  1  0.05384795  0.22021802  0.22078196  1  0.032199  0  0.089578  0.084629  0  1.016855  0
H  H63  1  0.74074662  0.52739256  0.29214076  1  0.029811  0  0.094536  0.094817  0  0.988322  0
H  H64  1  0.89761470  0.45517125  0.30335258  1  0.019356  0  0.094015  0.091999  0  0.980597  0
H  H65  1  0.77963484  0.52648345  0.21159188  1  0.029105  0  0.095426  0.096039  0  0.979431  0
H  H66  1  0.63536150  0.40646236  0.27773761  1  0.022073  0  0.092615  0.09073  0  0.998701  0
H  H67  1  0.66864128  0.40996881  0.19747802  1  0.069351  0  0.096258  0.103775  0  0.994575  0
H  H68  1  0.93668552  0.44981618  0.22250471  1  -0.008608  0  0.088074  0.082116  0  1.003278  0
H  H69  1  0.57456111  0.82775504  0.24019410  1  0.033717  0  0.096089  0.092429  0  1.034031  0
H  H70  1  0.55349314  0.95428189  0.27441291  1  0.032349  0  0.090281  0.080985  0  1.009378  0
H  H71  1  0.59453712  0.94056505  0.21354473  1  0.049755  0  0.109523  0.116098  0  0.971072  0
H  H72  1  0.70948798  0.66609863  0.52804581  1  0.582917  0  0.292538  0.383496  0  0.922248  0
H  H73  1  0.99801668  0.95479462  0.97837268  1  0.57286  0  0.291725  0.381574  0  0.925416  0
C  C74  1  0.72062082  0.37506740  0.56562525  1  1.642353  0  0.278431  0.725194  0  4.154386  0
C  C75  1  0.39261215  0.38503975  0.56387326  1  1.641897  0  0.283376  0.722977  0  4.15222  0
C  C76  1  0.38602758  0.70004694  0.56977251  1  1.664299  0  0.279618  0.715647  0  4.155944  0
C  C77  1  0.71817622  0.37763576  0.43244442  1  1.672457  0  0.278961  0.720533  0  4.15836  0
C  C78  1  0.39503577  0.38120049  0.43378114  1  1.65595  0  0.286206  0.730484  0  4.140207  0
C  C79  1  0.37850905  0.70714199  0.43473371  1  1.637976  0  0.281828  0.717677  0  4.158502  0
C  C80  1  0.39110238  0.20931520  0.72763133  1  -0.020198  0  -0.066137  -0.070456  0  3.609247  0
C  C81  1  0.45750745  0.24459691  0.76573932  1  -0.034458  0  -0.069513  -0.08325  0  3.632583  0
C  C82  1  0.31118938  0.28398656  0.88693845  1  0.01962  0  -0.043783  -0.209202  0  3.966028  0
C  C83  1  0.37007942  0.35822271  0.61022966  1  0.173224  0  -0.041834  -0.207285  0  3.958782  0
C  C84  1  0.27173361  0.27206765  0.75684827  1  -0.015605  0  -0.065158  -0.063641  0  3.598182  0
C  C85  1  0.33783251  0.30728146  0.79660640  1  0.108065  0  0.008248  0.11348  0  3.785427  0
C  C86  1  0.23150397  0.39270035  0.73172564  1  -0.016888  0  -0.068125  -0.077638  0  3.624141  0
C  C87  1  0.35107468  0.33016996  0.70079951  1  0.122531  0  0.011207  0.115689  0  3.77645  0
C  C88  1  0.29780452  0.42812451  0.76981040  1  -0.026877  0  -0.069837  -0.079121  0  3.629134  0
C  C89  1  0.41748844  0.36515411  0.74052516  1  -0.004432  0  -0.067186  -0.071153  0  3.621693  0
C  C90  1  0.32560890  0.29500012  0.84530979  1  -0.297023  0  -0.016425  -0.019869  0  4.05916  0
C  C91  1  0.36066671  0.34414020  0.65201191  1  -0.442641  0  -0.012192  -0.013343  0  4.044833  0
C  C92  1  0.34988978  0.67923352  0.73699823  1  -0.025203  0  -0.149001  -0.187228  0  3.8409  0
C  C93  1  0.22116889  0.89558672  0.72521851  1  0.209686  0  0.019227  -0.025189  0  3.699257  0
C  C94  1  0.22014030  0.91864103  0.77845459  1  -0.010405  0  -0.14841  -0.238441  0  3.837079  0
C  C95  1  0.31999751  0.87876450  0.89258056  1  0.263178  0  -0.043726  -0.205505  0  3.96254  0
C  C96  1  0.34417968  0.78592487  0.71009144  1  0.107823  0  0.009161  0.148048  0  3.882082  0
C  C97  1  0.35225618  0.69814632  0.79077549  1  -0.020836  0  -0.152457  -0.194939  0  3.847922  0
C  C98  1  0.33898784  0.82221879  0.80138776  1  0.149952  0  0.002887  0.180624  0  3.898619  0
C  C99  1  0.44672408  0.82788423  0.77913486  1  -0.038495  0  -0.153856  -0.19216  0  3.849364  0
C  C100  1  0.45292554  0.80082504  0.72583124  1  -0.036605  0  -0.156369  -0.195687  0  3.845477  0
C  C101  1  0.33153134  0.84813282  0.85145404  1  -0.571272  0  -0.017742  -0.030975  0  4.012211  0
C  C102  1  0.34849100  0.76356838  0.65981448  1  -0.280208  0  -0.028051  -0.055761  0  4.034873  0
C  C103  1  0.35813596  0.74268481  0.61780591  1  0.04845  0  -0.03301  -0.174164  0  3.940338  0
C  C104  1  0.72204417  0.45867781  0.72826625  1  -0.014155  0  -0.153616  -0.187413  0  3.851336  0
C  C105  1  0.94255736  0.31380030  0.71462271  1  -0.051719  0  -0.155683  -0.189383  0  3.832656  0
C  C106  1  0.96631110  0.30227084  0.76815909  1  -0.054486  0  -0.15307  -0.184408  0  3.847407  0
C  C107  1  0.90263305  0.30902059  0.88646907  1  0.217689  0  -0.049899  -0.218569  0  3.979685  0
C  C108  1  0.81260237  0.33788537  0.70449818  1  0.139779  0  0.00093  0.170732  0  3.899141  0
C  C109  1  0.74744542  0.45525364  0.78166524  1  -0.016152  0  -0.154419  -0.189384  0  3.853382  0
C  C110  1  0.84956588  0.32936051  0.79520471  1  0.125546  0  0.000358  0.170499  0  3.900759  0
C  C111  1  0.81257995  0.23588728  0.78001670  1  -0.031129  0  -0.15458  -0.188359  0  3.854964  0
C  C112  1  0.79597411  0.23739919  0.72609541  1  -0.036698  0  -0.154898  -0.189025  0  3.847386  0
C  C113  1  0.87473395  0.32176786  0.84516795  1  -0.508248  0  -0.018989  -0.030373  0  4.02808  0
C  C114  1  0.79047494  0.34401833  0.65435499  1  -0.223479  0  -0.012298  -0.014707  0  4.008966  0
C  C115  1  0.76852012  0.35103602  0.61252898  1  -0.031846  0  -0.047925  -0.218826  0  3.96854  0
C  C116  1  0.28955765  0.46254615  0.27333208  1  -0.061943  0  -0.14786  -0.239683  0  3.838246  0
C  C117  1  0.25654253  0.28686470  0.28182447  1  -0.03975  0  -0.151789  -0.187608  0  3.830851  0
C  C118  1  0.24005162  0.28792842  0.22782179  1  -0.080927  0  -0.150411  -0.193175  0  3.823524  0
C  C119  1  0.30538207  0.30280730  0.11013790  1  -0.012819  0  -0.032152  -0.187879  0  3.919167  0
C  C120  1  0.34187107  0.33662902  0.29470995  1  0.144325  0  0.005309  0.17709  0  3.888312  0
C  C121  1  0.27792052  0.45678610  0.21954570  1  0.240424  0  0.019234  -0.029082  0  3.705148  0
C  C122  1  0.32419703  0.32557113  0.20271510  1  0.140544  0  0.012018  0.145292  0  3.872131  0
C  C123  1  0.45573837  0.24121028  0.21886975  1  -0.066973  0  -0.157431  -0.200598  0  3.838417  0
C  C124  1  0.46768467  0.25372083  0.27242557  1  -0.040113  0  -0.155157  -0.192926  0  3.844903  0
C  C125  1  0.31284020  0.31673165  0.15215612  1  -0.209448  0  -0.008656  -0.013776  0  3.98185  0
C  C126  1  0.35339794  0.34594765  0.34531639  1  -0.450373  0  -0.005461  -0.004306  0  3.971844  0
C  C127  1  0.36713153  0.35668580  0.38715169  1  0.208518  0  -0.043858  -0.2159  0  3.942758  0
C  C128  1  0.44826841  0.70673358  0.27094472  1  -0.029014  0  -0.154683  -0.190694  0  3.843195  0
C  C129  1  0.33936623  0.92575607  0.29128870  1  -0.051186  0  -0.156087  -0.269586  0  3.837725  0
C  C130  1  0.33191253  0.95758450  0.23882424  1  0.502154  0  0.01215  0.137437  0  3.790981  0
C  C131  1  0.31119322  0.91362209  0.11745367  1  0.281657  0  -0.045058  -0.212378  0  3.957967  0
C  C132  1  0.33697235  0.80773249  0.29722849  1  0.136065  0  0.001249  0.178342  0  3.899174  0
C  C133  1  0.44040029  0.73286130  0.21781618  1  -0.027107  0  -0.159858  -0.189518  0  3.844733  0
C  C134  1  0.33024342  0.85696394  0.20787878  1  0.144564  0  -0.002099  0.106229  0  3.890338  0
C  C135  1  0.21412457  0.85374659  0.22224228  1  -0.052645  0  -0.155154  -0.187803  0  3.837795  0
C  C136  1  0.21973692  0.82138664  0.27463853  1  -0.040021  0  -0.155186  -0.186864  0  3.851322  0
C  C137  1  0.32334815  0.88649566  0.15862214  1  -0.54666  0  -0.013127  -0.005516  0  4.015208  0
C  C138  1  0.34375213  0.77979897  0.34671301  1  0.099496  0  -0.014927  -0.020567  0  4.007363  0
C  C139  1  0.35209401  0.75503937  0.38810784  1  -0.354874  0  -0.046999  -0.216666  0  3.968201  0
C  C140  1  0.72278936  0.33004308  0.26712780  1  -0.010174  0  -0.152944  -0.18422  0  3.838641  0
C  C141  1  0.94727802  0.22426099  0.28193637  1  0.009432  0  -0.154483  -0.18741  0  3.852844  0
C  C142  1  0.96829936  0.22219187  0.22834797  1  -0.055639  0  -0.153777  -0.189679  0  3.841542  0
C  C143  1  0.90610875  0.32321205  0.11349452  1  0.195856  0  -0.048726  -0.221088  0  3.975264  0
C  C144  1  0.82493703  0.33498371  0.29550383  1  0.123266  0  0.000899  0.167749  0  3.903522  0
C  C145  1  0.74396440  0.33171728  0.21380927  1  -0.037103  0  -0.154569  -0.191689  0  3.83617  0
C  C146  1  0.86280094  0.33413885  0.20536629  1  0.181526  0  0.001198  0.169449  0  3.903901  0
C  C147  1  0.85247741  0.44793486  0.22894252  1  -0.002814  0  -0.154766  -0.186829  0  3.85552  0
C  C148  1  0.82785667  0.44959902  0.28216927  1  -0.003905  0  -0.153033  -0.184123  0  3.841373  0
C  C149  1  0.88529710  0.33074101  0.15540073  1  -0.501904  0  -0.009958  -0.014678  0  4.013204  0
C  C150  1  0.79989147  0.33766619  0.34522945  1  -0.321421  0  -0.013923  -0.02129  0  4.022338  0
C  C151  1  0.77216717  0.34646218  0.38648190  1  0.02692  0  -0.051041  -0.223687  0  3.980012  0
C  C152  1  0.29094227  0.93754668  0.93801924  1  1.676378  0  0.278375  0.719528  0  4.157591  0
C  C153  1  0.28149050  0.26370919  0.93323273  1  1.652232  0  0.282557  0.723868  0  4.150807  0
C  C154  1  0.95522819  0.27881732  0.93261460  1  1.666085  0  0.276578  0.721805  0  4.155431  0
C  C155  1  0.28065365  0.96156902  0.07093188  1  1.643613  0  0.278378  0.719634  0  4.154248  0
C  C156  1  0.28362137  0.27422602  0.06325683  1  1.653541  0  0.289499  0.728472  0  4.141457  0
C  C157  1  0.95229619  0.29564114  0.06632868  1  1.661924  0  0.282787  0.719815  0  4.160604  0
C  C158  1  0.54064728  0.92433727  0.23931573  1  0.415292  0  -0.142028  -0.174225  0  3.966051  0
N  N159  1  0.34819056  0.50609146  0.19461597  1  0.453027  0  0.049358  0.518069  0  4.147999  0
N  N160  1  0.19840013  0.00411040  0.69737826  1  0.44789  0  0.048882  0.519356  0  4.148466  0
O  O161  1  0.48929932  0.67483980  0.55496309  1  -1.214478  0  -0.205716  -0.552988  0  2.293553  0
O  O162  1  0.70245670  0.47113057  0.54730564  1  -1.227653  0  -0.213533  -0.574493  0  2.295342  0
O  O163  1  0.69484024  0.29834573  0.54699756  1  -1.252601  0  -0.241103  -0.602687  0  2.229265  0
O  O164  1  0.49118752  0.30899260  0.54365719  1  -1.243582  0  -0.225602  -0.586183  0  2.250463  0
O  O165  1  0.31497517  0.48618667  0.54705225  1  -1.241324  0  -0.22886  -0.59191  0  2.245844  0
O  O166  1  0.30512739  0.68685034  0.54708494  1  -1.252364  0  -0.241342  -0.603239  0  2.227599  0
O  O167  1  0.47671628  0.68897245  0.45305051  1  -1.212036  0  -0.199082  -0.533136  0  2.281907  0
O  O168  1  0.68708212  0.48163058  0.44739351  1  -1.213007  0  -0.203591  -0.547232  0  2.295037  0
O  O169  1  0.70164151  0.29901215  0.45362595  1  -1.258837  0  -0.244336  -0.611345  0  2.234862  0
O  O170  1  0.49854976  0.30660077  0.45054013  1  -1.24193  0  -0.224835  -0.584001  0  2.239989  0
O  O171  1  0.31729376  0.47869382  0.45380689  1  -1.250585  0  -0.225601  -0.588048  0  2.248424  0
O  O172  1  0.30107209  0.68229084  0.45314494  1  -1.253117  0  -0.243326  -0.608874  0  2.22979  0
O  O173  1  0.50580196  0.49727129  0.49990796  1  -1.607912  0  -0.39132  -1.274441  0  2.296413  0
O  O174  1  0.98526549  0.17583184  0.94704248  1  -1.211212  0  -0.210785  -0.561306  0  2.291077  0
O  O175  1  0.19072731  0.96212394  0.95607174  1  -1.219395  0  -0.209544  -0.565442  0  2.288793  0
O  O176  1  0.36832410  0.96524481  0.95501994  1  -1.247267  0  -0.238585  -0.598235  0  2.229494  0
O  O177  1  0.35658252  0.16686085  0.95341069  1  -1.243978  0  -0.226603  -0.588723  0  2.248133  0
O  O178  1  0.17864664  0.34240925  0.94990859  1  -1.247922  0  -0.228375  -0.590361  0  2.245645  0
O  O179  1  0.97157960  0.35840596  0.95448741  1  -1.254897  0  -0.244927  -0.612185  0  2.231849  0
O  O180  1  0.96603002  0.20005664  0.04779616  1  -1.219192  0  -0.200252  -0.537061  0  2.282329  0
O  O181  1  0.17522272  0.99212526  0.05653150  1  -1.218189  0  -0.204862  -0.550406  0  2.288629  0
O  O182  1  0.36212338  0.97296781  0.04829960  1  -1.258773  0  -0.246051  -0.615384  0  2.231635  0
O  O183  1  0.35954296  0.17080217  0.04686129  1  -1.237548  0  -0.222965  -0.582595  0  2.238535  0
O  O184  1  0.18715896  0.35093153  0.04275773  1  -1.244602  0  -0.222948  -0.582949  0  2.248212  0
O  O185  1  0.98111123  0.36876866  0.04761798  1  -1.254137  0  -0.243216  -0.608791  0  2.234574  0
O  O186  1  0.16505974  0.16143867  0.00063816  1  -1.611198  0  -0.391416  -1.275744  0  2.297176  0
O  O187  1  0.45264067  0.47369226  0.20858064  1  -0.502025  0  -0.114699  -0.32945  0  2.004042  0
O  O188  1  0.29834948  0.57322689  0.16131979  1  -0.441722  0  -0.112698  -0.316414  0  1.900259  0
O  O189  1  0.41800573  0.99128196  0.22391764  1  -1.054509  0  -0.234512  -0.223143  0  2.518138  0
O  O190  1  0.12792340  0.03096895  0.66381610  1  -0.446301  0  -0.115575  -0.319742  0  1.905151  0
O  O191  1  0.25300057  0.05779816  0.70945414  1  -0.488058  0  -0.1241  -0.344387  0  1.974881  0
O  O192  1  0.66671890  0.66782949  0.49957682  1  -1.370197  0  -0.577213  -0.994562  0  1.793273  0
O  O193  1  0.98841189  0.00718459  0.00469204  1  -1.356247  0  -0.575973  -0.992103  0  1.79545  0
