# generated using pymatgen
data_CdH28C26N4O7
_symmetry_space_group_name_H-M   'P 1'
_cell_length_a   10.72443462
_cell_length_b   11.19875649
_cell_length_c   11.47190000
_cell_angle_alpha   77.48341088
_cell_angle_beta   88.44839392
_cell_angle_gamma   75.80898181
_symmetry_Int_Tables_number   1
_chemical_formula_structural   CdH28C26N4O7
_chemical_formula_sum   'Cd2 H56 C52 N8 O14'
_cell_volume   1303.49425134
_cell_formula_units_Z   2
loop_
 _symmetry_equiv_pos_site_id
 _symmetry_equiv_pos_as_xyz
  1  'x, y, z'
loop_
 _atom_site_type_symbol
 _atom_site_label
 _atom_site_symmetry_multiplicity
 _atom_site_fract_x
 _atom_site_fract_y
 _atom_site_fract_z
 _atom_site_occupancy
 _atom_site_hle17_bader_spin_density
 _atom_site_hle17_ddec_charge
 _atom_site_hle17_ddec_spin_density
 _atom_site_hle17_ddec_sum_bond_order
 _atom_site_hle17_magmom
 _atom_site_hse06_10hf_bader_spin_density
 _atom_site_hse06_10hf_ddec_charge
 _atom_site_hse06_10hf_ddec_spin_density
 _atom_site_hse06_10hf_ddec_sum_bond_order
 _atom_site_hse06_10hf_magmom
 _atom_site_hse06_bader_spin_density
 _atom_site_hse06_ddec_charge
 _atom_site_hse06_ddec_spin_density
 _atom_site_hse06_ddec_sum_bond_order
 _atom_site_hse06_magmom
 _atom_site_pbe_bader_charge
 _atom_site_pbe_bader_spin_density
 _atom_site_pbe_cm5_charge
 _atom_site_pbe_ddec_charge
 _atom_site_pbe_ddec_spin_density
 _atom_site_pbe_ddec_sum_bond_order
 _atom_site_pbe_magmom
Cd  Cd0  1  0.81532951  0.16958920  0.38817379  1  0  1.092941  0  1.676796  0  0  0.896724  0  2.114273  0  0  0.954893  0  2.064656  0  1.253432  0  0.767046  0.855657  0  2.147919  0
Cd  Cd1  1  0.18467147  0.83040918  0.61182574  1  0  1.092937  0  1.67683  0  0  0.896716  0  2.114314  0  0  0.954886  0  2.064694  0  1.253439  0  0.767043  0.855648  0  2.14796  0
H  H2  1  0.87203216  0.93699247  0.55795831  1  0  0.427941  0  0.865481  0  0  0.399276  0  0.926851  0  0  0.409847  0  0.911423  0  0.638745  0  0.293578  0.391778  0  0.937784  0
H  H3  1  0.12796624  0.06300874  0.44204156  1  0  0.427909  0  0.865507  0  0  0.399246  0  0.926887  0  0  0.409818  0  0.911458  0  0.638702  0  0.293575  0.391748  0  0.937819  0
H  H4  1  0.91211748  0.03315266  0.61892703  1  0  0.423572  0  0.882738  0  0  0.392641  0  0.947622  0  0  0.403349  0  0.932033  0  0.639163  0  0.287978  0.384934  0  0.958827  0
H  H5  1  0.08788210  0.96684761  0.38107302  1  0  0.423553  0  0.882762  0  0  0.392616  0  0.947656  0  0  0.403324  0  0.932066  0  0.639161  0  0.287968  0.384908  0  0.958862  0
H  H6  1  0.58343739  0.57795248  0.03795744  1  0  0.305167  0  0.91567  0  0  0.284284  0  0.986197  0  0  0.292199  0  0.979807  0  0.509613  0  0.308249  0.27864  0  0.990816  0
H  H7  1  0.41655962  0.42204685  0.96204374  1  0  0.305197  0  0.915666  0  0  0.284295  0  0.986204  0  0  0.292208  0  0.979817  0  0.509626  0  0.308255  0.278652  0  0.990822  0
H  H8  1  0.72067635  0.40231168  0.60899633  1  0  0.312448  0  0.93746  0  0  0.289986  0  1.008403  0  0  0.298738  0  1.001488  0  0.53807  0  0.301111  0.283855  0  1.013173  0
H  H9  1  0.27932346  0.59768765  0.39100216  1  0  0.312427  0  0.937462  0  0  0.289965  0  1.00841  0  0  0.298717  0  1.001495  0  0.538079  0  0.301117  0.283835  0  1.013179  0
H  H10  1  0.65181325  0.40495536  0.18391948  1  0  0.085924  0  0.992934  0  0  0.090413  0  1.066226  0  0  0.093579  0  1.063614  0  0.111739  0  0.114827  0.088043  0  1.068272  0
H  H11  1  0.34818282  0.59504396  0.81608085  1  0  0.085915  0  0.99296  0  0  0.090414  0  1.066233  0  0  0.093576  0  1.063624  0  0.111764  0  0.11483  0.088043  0  1.068279  0
H  H12  1  0.88717465  0.46925481  0.87786534  1  0  0.121853  0  0.982121  0  0  0.127404  0  1.046928  0  0  0.1312  0  1.044385  0  0.153134  0  0.109701  0.124677  0  1.048803  0
H  H13  1  0.11282422  0.53074829  0.12213760  1  0  0.121892  0  0.982128  0  0  0.127448  0  1.046914  0  0  0.131243  0  1.044376  0  0.153076  0  0.109743  0.124721  0  1.048789  0
H  H14  1  0.05396652  0.27861804  0.97871993  1  0  0.099446  0  0.965595  0  0  0.109202  0  1.025419  0  0  0.111358  0  1.026263  0  0.094215  0  0.105113  0.107653  0  1.024934  0
H  H15  1  0.94603420  0.72138884  0.02128304  1  0  0.099408  0  0.965597  0  0  0.109169  0  1.025416  0  0  0.111333  0  1.026262  0  0.09418  0  0.105072  0.107621  0  1.02493  0
H  H16  1  0.01213088  0.16056652  0.18317883  1  0  0.09133  0  0.946972  0  0  0.098636  0  1.011564  0  0  0.101765  0  1.008632  0  0.134884  0  0.117833  0.096401  0  1.013632  0
H  H17  1  0.98787125  0.83943847  0.81682277  1  0  0.091354  0  0.946942  0  0  0.098657  0  1.011541  0  0  0.10179  0  1.008601  0  0.134879  0  0.117831  0.096421  0  1.013608  0
H  H18  1  0.47956877  0.75652285  0.93464312  1  0  0.089452  0  0.940727  0  0  0.105627  0  0.999885  0  0  0.107872  0  0.998487  0  0.012407  0  0.094893  0.103944  0  1.001058  0
H  H19  1  0.52043011  0.24347648  0.06535626  1  0  0.089478  0  0.940681  0  0  0.105694  0  0.999783  0  0  0.107939  0  0.998386  0  0.012407  0  0.094902  0.104006  0  1.000964  0
H  H20  1  0.47950747  0.74868426  0.78211671  1  0  0.102278  0  0.953229  0  0  0.115014  0  1.018981  0  0  0.116108  0  1.020131  0  0.070725  0  0.099302  0.114263  0  1.018245  0
H  H21  1  0.52049047  0.25131507  0.21788183  1  0  0.102295  0  0.953214  0  0  0.115022  0  1.018959  0  0  0.116116  0  1.020108  0  0.070762  0  0.099305  0.114273  0  1.018224  0
H  H22  1  0.64219545  0.87665195  0.73993425  1  0  0.075937  0  0.928536  0  0  0.094292  0  0.987606  0  0  0.095844  0  0.987342  0  0.062534  0  0.092392  0.093066  0  0.987988  0
H  H23  1  0.35780599  0.12334832  0.26006575  1  0  0.075925  0  0.92853  0  0  0.094296  0  0.987606  0  0  0.095847  0  0.98734  0  0.062543  0  0.09239  0.093072  0  0.987986  0
H  H24  1  0.49496789  0.95872503  0.78948404  1  0  0.070915  0  0.939235  0  0  0.089059  0  0.999611  0  0  0.090264  0  0.999476  0  0.045096  0  0.089071  0.088095  0  0.999804  0
H  H25  1  0.50503285  0.04127430  0.21051530  1  0  0.070872  0  0.939263  0  0  0.08903  0  0.99965  0  0  0.090236  0  0.999514  0  0.045089  0  0.089059  0.088067  0  0.999842  0
H  H26  1  0.73039567  0.81999862  0.95581971  1  0  0.051584  0  0.954793  0  0  0.071749  0  1.017469  0  0  0.071989  0  1.018709  0  -0.00915  0  0.083302  0.071548  0  1.016645  0
H  H27  1  0.26960787  0.18000071  0.04417869  1  0  0.051597  0  0.954777  0  0  0.071748  0  1.017486  0  0  0.071989  0  1.018728  0  -0.009372  0  0.083314  0.071547  0  1.01666  0
H  H28  1  0.59037289  0.92276074  0.99312175  1  0  0.048628  0  0.959229  0  0  0.069036  0  1.022147  0  0  0.069243  0  1.023039  0  -0.007085  0  0.082572  0.068767  0  1.021687  0
H  H29  1  0.40962972  0.07723859  0.00687754  1  0  0.048614  0  0.959231  0  0  0.06905  0  1.022135  0  0  0.069261  0  1.023025  0  -0.007132  0  0.082566  0.068782  0  1.021674  0
H  H30  1  0.77303324  0.02421207  0.95876677  1  0  0.058147  0  0.923794  0  0  0.07926  0  0.977497  0  0  0.080272  0  0.977747  0  0.001507  0  0.085641  0.07849  0  0.977341  0
H  H31  1  0.22696797  0.97578915  0.04123303  1  0  0.05813  0  0.923822  0  0  0.07926  0  0.977515  0  0  0.080273  0  0.977764  0  0.001516  0  0.085637  0.078492  0  0.977361  0
H  H32  1  0.79154782  0.99362788  0.81353206  1  0  0.066238  0  0.945732  0  0  0.085676  0  1.006558  0  0  0.086775  0  1.006292  0  0.030855  0  0.087528  0.084794  0  1.006837  0
H  H33  1  0.20845408  0.00637428  0.18646839  1  0  0.066277  0  0.945662  0  0  0.0857  0  1.006516  0  0  0.086799  0  1.00625  0  0.030578  0  0.087532  0.084819  0  1.006796  0
H  H34  1  0.55190626  0.16610863  0.89471348  1  0  0.0544  0  0.956143  0  0  0.072622  0  1.020402  0  0  0.073569  0  1.020261  0  0.019558  0  0.085094  0.071843  0  1.020658  0
H  H35  1  0.44809355  0.83389069  0.10528763  1  0  0.054327  0  0.956171  0  0  0.072568  0  1.020416  0  0  0.073514  0  1.020275  0  0.019573  0  0.085062  0.071788  0  1.020672  0
H  H36  1  0.57704755  0.13771781  0.74933340  1  0  0.061589  0  0.942861  0  0  0.081758  0  1.002756  0  0  0.081807  0  1.00451  0  0.022771  0  0.088793  0.081666  0  1.001564  0
H  H37  1  0.42295226  0.86228152  0.25066683  1  0  0.061584  0  0.942859  0  0  0.08175  0  1.002763  0  0  0.081798  0  1.004517  0  0.022791  0  0.088794  0.081659  0  1.001571  0
H  H38  1  0.74855844  0.25266427  0.87928814  1  0  0.097019  0  0.935361  0  0  0.112412  0  0.995404  0  0  0.113856  0  0.996022  0  0.029392  0  0.098119  0.111428  0  0.995015  0
H  H39  1  0.25143973  0.74733789  0.12070979  1  0  0.096989  0  0.935381  0  0  0.112406  0  0.995419  0  0  0.113849  0  0.996036  0  0.029369  0  0.098112  0.111422  0  0.99503  0
H  H40  1  0.77047439  0.22765589  0.73217055  1  0  0.104827  0  0.933924  0  0  0.121265  0  0.989756  0  0  0.123273  0  0.989369  0  0.030303  0  0.102672  0.119731  0  0.990284  0
H  H41  1  0.22952378  0.77234627  0.26782826  1  0  0.10483  0  0.933903  0  0  0.121294  0  0.989721  0  0  0.123301  0  0.989333  0  0.030288  0  0.102676  0.11976  0  0.990251  0
H  H42  1  0.75382397  0.61055225  0.52016103  1  0  0.109699  0  0.943221  0  0  0.120225  0  1.003952  0  0  0.122557  0  1.002721  0  0.086542  0  0.111991  0.118381  0  1.005159  0
H  H43  1  0.24617631  0.38944519  0.47983872  1  0  0.10969  0  0.943261  0  0  0.12024  0  1.003963  0  0  0.122573  0  1.002731  0  0.086555  0  0.112006  0.118396  0  1.005171  0
H  H44  1  0.64770701  0.83989040  0.44029169  1  0  0.115089  0  0.986918  0  0  0.120218  0  1.052177  0  0  0.123707  0  1.05111  0  0.132562  0  0.105694  0.117591  0  1.053287  0
H  H45  1  0.35229467  0.16010515  0.55970843  1  0  0.115068  0  0.986893  0  0  0.120187  0  1.052169  0  0  0.123676  0  1.051103  0  0.132677  0  0.105692  0.117562  0  1.053275  0
H  H46  1  0.41571913  0.92013309  0.48435292  1  0  0.090775  0  0.931743  0  0  0.10125  0  0.99169  0  0  0.103549  0  0.989982  0  0.102935  0  0.120951  0.099432  0  0.993151  0
H  H47  1  0.58428511  0.07986718  0.51564700  1  0  0.090875  0  0.931529  0  0  0.101272  0  0.991574  0  0  0.103604  0  0.989827  0  0.102956  0  0.120962  0.099456  0  0.993034  0
H  H48  1  0.38439197  0.56059022  0.64727928  1  0  0.096219  0  0.945854  0  0  0.104493  0  1.009571  0  0  0.107284  0  1.006934  0  0.115751  0  0.119793  0.102406  0  1.011646  0
H  H49  1  0.61560551  0.43941100  0.35271800  1  0  0.096232  0  0.945815  0  0  0.104553  0  1.009459  0  0  0.107346  0  1.00682  0  0.115746  0  0.119794  0.102467  0  1.011533  0
H  H50  1  0.70630569  0.85054534  0.18639685  1  0  0.096415  0  0.952188  0  0  0.106923  0  1.014785  0  0  0.109981  0  1.013448  0  0.083566  0  0.104543  0.104687  0  1.015887  0
H  H51  1  0.29369435  0.14945305  0.81360270  1  0  0.096484  0  0.952084  0  0  0.106986  0  1.014693  0  0  0.110044  0  1.013356  0  0.083461  0  0.104573  0.104747  0  1.015798  0
H  H52  1  0.73548058  0.63331511  0.15431499  1  0  0.084728  0  0.987294  0  0  0.091773  0  1.056519  0  0  0.094768  0  1.055451  0  0.081836  0  0.096521  0.089642  0  1.057327  0
H  H53  1  0.26452180  0.36668516  0.84568498  1  0  0.084691  0  0.987304  0  0  0.091735  0  1.056532  0  0  0.094729  0  1.055466  0  0.081806  0  0.096511  0.089602  0  1.057339  0
H  H54  1  0.91830835  0.45969056  0.25942130  1  0  0.09612  0  0.958337  0  0  0.105734  0  1.018934  0  0  0.108259  0  1.018847  0  0.093876  0  0.101781  0.103891  0  1.019181  0
H  H55  1  0.08169380  0.54030688  0.74057579  1  0  0.096172  0  0.958312  0  0  0.105787  0  1.018905  0  0  0.108313  0  1.018817  0  0.093896  0  0.101806  0.103951  0  1.019145  0
H  H56  1  0.06123684  0.50590502  0.40035268  1  0  0.094164  0  0.963289  0  0  0.104211  0  1.026645  0  0  0.107246  0  1.02499  0  0.087275  0  0.103352  0.101973  0  1.028054  0
H  H57  1  0.93876390  0.49409430  0.59964840  1  0  0.094196  0  0.963303  0  0  0.104236  0  1.026682  0  0  0.107269  0  1.025028  0  0.087287  0  0.103355  0.101999  0  1.028086  0
C  C58  1  0.74055626  0.37883177  0.13681590  1  0  0.012181  0  3.68701  0  0  -0.024432  0  3.944108  0  0  -0.020913  0  3.961948  0  0.533713  0  0.037574  -0.026611  0  3.932102  0
C  C59  1  0.25944379  0.62116662  0.86318540  1  0  0.012209  0  3.68697  0  0  -0.024385  0  3.944069  0  0  -0.020864  0  3.96191  0  0.533173  0  0.037621  -0.026567  0  3.932066  0
C  C60  1  0.75636675  0.45235863  0.02406367  1  0  0.219587  0  3.780606  0  0  0.218209  0  4.02502  0  0  0.222931  0  4.046873  0  0.339069  0  0.10568  0.214662  0  4.010367  0
C  C61  1  0.24363352  0.54764258  0.97593964  1  0  0.219747  0  3.780498  0  0  0.218298  0  4.024971  0  0  0.223021  0  4.046825  0  0.339016  0  0.105656  0.21475  0  4.010318  0
C  C62  1  0.87166338  0.41532064  0.96538473  1  0  -0.110873  0  3.675133  0  0  -0.135605  0  3.920929  0  0  -0.135832  0  3.938778  0  -0.067792  0  -0.073871  -0.135184  0  3.908845  0
C  C63  1  0.12834039  0.58468152  0.03461917  1  0  -0.111091  0  3.675289  0  0  -0.135819  0  3.921109  0  0  -0.136046  0  3.938957  0  -0.06777  0  -0.073982  -0.135396  0  3.909021  0
C  C64  1  0.96400118  0.30939403  0.02250535  1  0  -0.09629  0  3.759769  0  0  -0.105029  0  4.007345  0  0  -0.110293  0  4.029155  0  0.010321  0  -0.079811  -0.101535  0  3.992551  0
C  C65  1  0.03599862  0.69060907  0.97749583  1  0  -0.096115  0  3.759673  0  0  -0.104845  0  4.007199  0  0  -0.110118  0  4.02902  0  0.0104  0  -0.079691  -0.101352  0  3.992405  0
C  C66  1  0.94205333  0.24330759  0.13540527  1  0  0.106893  0  3.711373  0  0  0.072076  0  3.965239  0  0  0.078084  0  3.983198  0  0.458349  0  0.036313  0.067854  0  3.953578  0
C  C67  1  0.05795090  0.75669645  0.86459560  1  0  0.106857  0  3.711299  0  0  0.072049  0  3.965131  0  0  0.078051  0  3.983103  0  0.458302  0  0.036336  0.067828  0  3.95347  0
C  C68  1  0.65465724  0.64539284  0.87420422  1  0  0.592732  0  3.763619  0  0  0.552165  0  4.057137  0  0  0.579596  0  4.057726  0  1.374694  0  0.241071  0.533649  0  4.05614  0
C  C69  1  0.34532997  0.35460838  0.12580203  1  0  0.592681  0  3.764471  0  0  0.552137  0  4.057876  0  0  0.579575  0  4.058448  0  1.375201  0  0.241093  0.533621  0  4.056876  0
C  C70  1  0.53885524  0.75778713  0.85477626  1  0  -0.255786  0  3.679483  0  0  -0.297698  0  3.9357  0  0  -0.301839  0  3.944213  0  -0.015483  0  -0.162955  -0.294875  0  3.929876  0
C  C71  1  0.46114222  0.24221785  0.14522196  1  0  -0.255946  0  3.679331  0  0  -0.297849  0  3.935519  0  0  -0.302  0  3.944036  0  -0.015735  0  -0.163049  -0.295027  0  3.929695  0
C  C72  1  0.58106718  0.88159683  0.81831618  1  0  -0.08829  0  3.675619  0  0  -0.127875  0  3.934502  0  0  -0.12875  0  3.948185  0  -0.044775  0  -0.165488  -0.127045  0  3.924934  0
C  C73  1  0.41893263  0.11840250  0.18168231  1  0  -0.088211  0  3.675556  0  0  -0.127863  0  3.934529  0  0  -0.128734  0  3.94821  0  -0.044744  0  -0.165472  -0.127034  0  3.92496  0
C  C74  1  0.65544863  0.90607307  0.91905504  1  0  -0.107373  0  3.700217  0  0  -0.149531  0  3.966571  0  0  -0.150685  0  3.982461  0  0.009617  0  -0.169561  -0.148537  0  3.955402  0
C  C75  1  0.34455305  0.09392625  0.08094341  1  0  -0.107353  0  3.700197  0  0  -0.149535  0  3.966628  0  0  -0.150694  0  3.982522  0  0.010015  0  -0.169551  -0.148537  0  3.955461  0
C  C76  1  0.71979182  0.01557056  0.88126381  1  0  -0.104309  0  3.687907  0  0  -0.141586  0  3.948925  0  0  -0.14287  0  3.96371  0  -0.008634  0  -0.166628  -0.140519  0  3.938524  0
C  C77  1  0.28020916  0.98442782  0.11873659  1  0  -0.104315  0  3.687887  0  0  -0.141604  0  3.948957  0  0  -0.142889  0  3.963743  0  -0.008519  0  -0.166619  -0.140548  0  3.938571  0
C  C78  1  0.62683257  0.14254475  0.83017685  1  0  -0.079863  0  3.685469  0  0  -0.121845  0  3.94644  0  0  -0.122087  0  3.960585  0  -0.002225  0  -0.16658  -0.12142  0  3.936513  0
C  C79  1  0.37316700  0.85745552  0.16982407  1  0  -0.079798  0  3.685449  0  0  -0.121771  0  3.946438  0  0  -0.122012  0  3.960582  0  -0.002266  0  -0.166558  -0.121342  0  3.936514  0
C  C80  1  0.69744431  0.24811661  0.79887428  1  0  -0.254024  0  3.678873  0  0  -0.292967  0  3.930955  0  0  -0.297734  0  3.939281  0  -0.001054  0  -0.160857  -0.28973  0  3.925268  0
C  C81  1  0.30255433  0.75188366  0.20112578  1  0  -0.253973  0  3.678758  0  0  -0.292969  0  3.930926  0  0  -0.29773  0  3.939242  0  -0.001033  0  -0.160837  -0.289733  0  3.925241  0
C  C82  1  0.60756441  0.37687684  0.75613040  1  0  0.612458  0  3.743572  0  0  0.570297  0  4.034362  0  0  0.59918  0  4.033716  0  1.397174  0  0.247431  0.550818  0  4.034078  0
C  C83  1  0.39243540  0.62312249  0.24386983  1  0  0.612352  0  3.743335  0  0  0.570141  0  4.034243  0  0  0.599021  0  4.033598  0  1.397198  0  0.247347  0.550663  0  4.033959  0
C  C84  1  0.57887326  0.56915247  0.59758428  1  0  0.210172  0  3.790183  0  0  0.206821  0  4.040525  0  0  0.210638  0  4.062327  0  0.406812  0  0.103601  0.203892  0  4.025985  0
C  C85  1  0.42112562  0.43084686  0.40241685  1  0  0.21009  0  3.79017  0  0  0.206717  0  4.040532  0  0  0.210534  0  4.06233  0  0.406813  0  0.103596  0.203788  0  4.025992  0
C  C86  1  0.65202754  0.64819125  0.53351452  1  0  -0.071555  0  3.648672  0  0  -0.097124  0  3.896702  0  0  -0.095266  0  3.913584  0  0.003735  0  -0.058832  -0.098109  0  3.885515  0
C  C87  1  0.34797414  0.35180807  0.46648915  1  0  -0.071583  0  3.648751  0  0  -0.097175  0  3.89678  0  0  -0.09532  0  3.913661  0  0.003723  0  -0.058873  -0.098159  0  3.885592  0
C  C88  1  0.59391649  0.77507581  0.48957616  1  0  -0.105893  0  3.733116  0  0  -0.1169  0  3.984207  0  0  -0.123042  0  4.005106  0  0.022617  0  -0.081589  -0.113024  0  3.970435  0
C  C89  1  0.40608425  0.22492352  0.51042493  1  0  -0.105817  0  3.733113  0  0  -0.116803  0  3.984179  0  0  -0.122946  0  4.005091  0  0.022452  0  -0.081557  -0.112927  0  3.970407  0
C  C90  1  0.46484533  0.82074209  0.51230804  1  0  0.118767  0  3.695251  0  0  0.086135  0  3.944858  0  0  0.092472  0  3.964078  0  0.443537  0  0.045293  0.082049  0  3.931866  0
C  C91  1  0.53515285  0.17925629  0.48768982  1  0  0.11865  0  3.695127  0  0  0.086073  0  3.944764  0  0  0.092385  0  3.963975  0  0.44339  0  0.045256  0.081983  0  3.931777  0
C  C92  1  0.44730703  0.62041370  0.60803882  1  0  0.028051  0  3.687722  0  0  -0.01422  0  3.95093  0  0  -0.008279  0  3.966249  0  0.473918  0  0.038189  -0.01817  0  3.940807  0
C  C93  1  0.55269208  0.37958468  0.39195815  1  0  0.02804  0  3.687675  0  0  -0.014209  0  3.950827  0  0  -0.008268  0  3.966143  0  0.473959  0  0.03821  -0.018158  0  3.940704  0
C  C94  1  0.84591600  0.93524606  0.32336617  1  0  0.646877  0  3.928266  0  0  0.594788  0  4.222742  0  0  0.629439  0  4.214563  0  1.571641  0  0.197025  0.571212  0  4.227492  0
C  C95  1  0.15408404  0.06475233  0.67663338  1  0  0.646828  0  3.928382  0  0  0.594773  0  4.222815  0  0  0.629424  0  4.214634  0  1.57165  0  0.197006  0.571195  0  4.227568  0
C  C96  1  0.86570252  0.80096353  0.31158527  1  0  -0.053713  0  3.718181  0  0  -0.037703  0  3.947697  0  0  -0.041932  0  3.967691  0  -0.036715  0  -0.00872  -0.034974  0  3.934384  0
C  C97  1  0.13429543  0.19903580  0.68841589  1  0  -0.053771  0  3.718249  0  0  -0.037772  0  3.947736  0  0  -0.041995  0  3.967738  0  -0.03692  0  -0.00872  -0.035044  0  3.934423  0
C  C98  1  0.78409979  0.77417288  0.23293552  1  0  -0.087428  0  3.74423  0  0  -0.109749  0  3.9923  0  0  -0.111249  0  4.012156  0  0.041673  0  -0.08434  -0.108652  0  3.978886  0
C  C99  1  0.21589816  0.22582645  0.76706651  1  0  -0.087478  0  3.744099  0  0  -0.109794  0  3.992164  0  0  -0.111296  0  4.012019  0  0.041979  0  -0.084371  -0.108697  0  3.97875  0
C  C100  1  0.80138585  0.65210583  0.21461070  1  0  -0.070622  0  3.767872  0  0  -0.085389  0  4.021102  0  0  -0.086164  0  4.040479  0  -0.10758  0  -0.092596  -0.084746  0  4.007883  0
C  C101  1  0.19861582  0.34789350  0.78539123  1  0  -0.070571  0  3.767775  0  0  -0.085331  0  4.020985  0  0  -0.086103  0  4.04036  0  -0.107389  0  -0.092597  -0.084684  0  4.007767  0
C  C102  1  0.90248473  0.55535474  0.27352760  1  0  -0.061191  0  3.747477  0  0  -0.075185  0  3.999312  0  0  -0.076456  0  4.019043  0  -0.071808  0  -0.089728  -0.074432  0  3.986029  0
C  C103  1  0.09751835  0.44464270  0.72647208  1  0  -0.06117  0  3.747489  0  0  -0.075166  0  3.999327  0  0  -0.076436  0  4.019057  0  -0.071871  0  -0.089708  -0.07442  0  3.986044  0
C  C104  1  0.98324118  0.58109811  0.35300263  1  0  -0.072445  0  3.73429  0  0  -0.096525  0  3.985421  0  0  -0.0969  0  4.004526  0  -0.03978  0  -0.08388  -0.096101  0  3.972683  0
C  C105  1  0.01676236  0.41890122  0.64699577  1  0  -0.072506  0  3.734347  0  0  -0.096609  0  3.985468  0  0  -0.096976  0  4.004582  0  -0.04049  0  -0.083901  -0.096187  0  3.972732  0
C  C106  1  0.96405438  0.70233582  0.37542745  1  0  -0.079786  0  3.728321  0  0  -0.064448  0  3.962976  0  0  -0.069993  0  3.983885  0  -0.054095  0  -0.014916  -0.060978  0  3.949218  0
C  C107  1  0.03594332  0.29766445  0.62457177  1  0  -0.079841  0  3.728355  0  0  -0.064466  0  3.962966  0  0  -0.070034  0  3.983912  0  -0.053454  0  -0.014937  -0.060988  0  3.949201  0
C  C108  1  0.04506160  0.72191814  0.47094072  1  0  0.653267  0  3.91092  0  0  0.600024  0  4.208074  0  0  0.634024  0  4.200989  0  1.569037  0  0.204486  0.576896  0  4.212156  0
C  C109  1  0.95493611  0.27808213  0.52905937  1  0  0.653375  0  3.910899  0  0  0.600124  0  4.20805  0  0  0.63413  0  4.200968  0  1.569041  0  0.204514  0.576993  0  4.212133  0
N  N110  1  0.83118467  0.27832744  0.19118166  1  0  -0.323713  0  3.312182  0  0  -0.24494  0  3.581624  0  0  -0.263781  0  3.601239  0  -1.252438  0  -0.331204  -0.232031  0  3.567921  0
N  N111  1  0.16881887  0.72167189  0.80881587  1  0  -0.323788  0  3.31219  0  0  -0.245027  0  3.58164  0  0  -0.263868  0  3.60125  0  -1.251869  0  -0.331276  -0.232119  0  3.56794  0
N  N112  1  0.65773977  0.55919289  0.98086169  1  0  -0.463767  0  3.339987  0  0  -0.408535  0  3.579912  0  0  -0.431121  0  3.589711  0  -1.292795  0  -0.402169  -0.392937  0  3.572918  0
N  N113  1  0.34226121  0.44080549  0.01913958  1  0  -0.463932  0  3.34  0  0  -0.40865  0  3.579899  0  0  -0.431237  0  3.589692  0  -1.292898  0  -0.402216  -0.39305  0  3.572904  0
N  N114  1  0.63763587  0.44307177  0.64914909  1  0  -0.461897  0  3.33076  0  0  -0.40497  0  3.567571  0  0  -0.428882  0  3.579128  0  -1.285896  0  -0.396766  -0.388495  0  3.559266  0
N  N115  1  0.36236231  0.55692661  0.35085051  1  0  -0.461755  0  3.330639  0  0  -0.404808  0  3.56747  0  0  -0.428718  0  3.579029  0  -1.285907  0  -0.396731  -0.388333  0  3.559163  0
N  N116  1  0.39328467  0.74390261  0.56895963  1  0  -0.323743  0  3.326496  0  0  -0.241513  0  3.592943  0  0  -0.261813  0  3.6135  0  -1.251052  0  -0.338624  -0.227636  0  3.578646  0
N  N117  1  0.60671491  0.25609766  0.43103954  1  0  -0.323709  0  3.3265  0  0  -0.24151  0  3.592947  0  0  -0.261811  0  3.613516  0  -1.250906  0  -0.338613  -0.227632  0  3.578651  0
O  O118  1  0.73991362  0.63389536  0.79992944  1  0  -0.533289  0  1.893974  0  0  -0.488767  0  2.099643  0  0  -0.509274  0  2.096316  0  -1.134818  0  -0.291539  -0.474645  0  2.101636  0
O  O119  1  0.26009342  0.36610114  0.20006598  1  0  -0.533055  0  1.894912  0  0  -0.488563  0  2.100547  0  0  -0.509066  0  2.097214  0  -1.134961  0  -0.291454  -0.474446  0  2.102538  0
O  O120  1  0.51477198  0.41887386  0.81625107  1  0  -0.595734  0  1.944708  0  0  -0.547579  0  2.173797  0  0  -0.569953  0  2.16779  0  -1.187733  0  -0.305347  -0.531914  0  2.177315  0
O  O121  1  0.48522573  0.58112641  0.18374640  1  0  -0.595716  0  1.944574  0  0  -0.547543  0  2.173687  0  0  -0.569932  0  2.167723  0  -1.187738  0  -0.305328  -0.531884  0  2.177222  0
O  O122  1  0.73270955  0.99575264  0.33999230  1  0  -0.624919  0  1.927987  0  0  -0.565769  0  2.157612  0  0  -0.5932  0  2.149212  0  -1.166645  0  -0.322735  -0.546238  0  2.162528  0
O  O123  1  0.26729096  0.00424763  0.66000946  1  0  -0.624901  0  1.927991  0  0  -0.565767  0  2.157625  0  0  -0.593192  0  2.149209  0  -1.166656  0  -0.322735  -0.546238  0  2.16254  0
O  O124  1  0.94296994  0.98398815  0.31438672  1  0  -0.677345  0  2.024629  0  0  -0.611521  0  2.259176  0  0  -0.640454  0  2.248419  0  -1.192763  0  -0.33165  -0.590922  0  2.265659  0
O  O125  1  0.05702893  0.01601118  0.68561180  1  0  -0.677293  0  2.024685  0  0  -0.611496  0  2.259224  0  0  -0.640433  0  2.248475  0  -1.192789  0  -0.331641  -0.590896  0  2.265708  0
O  O126  1  0.99208190  0.79465530  0.54000959  1  0  -0.657895  0  1.996593  0  0  -0.585428  0  2.22728  0  0  -0.614918  0  2.217056  0  -1.170499  0  -0.326313  -0.564741  0  2.233538  0
O  O127  1  0.00791791  0.20534403  0.45999239  1  0  -0.6579  0  1.996625  0  0  -0.585432  0  2.227315  0  0  -0.614925  0  2.217097  0  -1.170468  0  -0.326285  -0.564744  0  2.233575  0
O  O128  1  0.16344723  0.66485344  0.48191617  1  0  -0.643108  0  1.991297  0  0  -0.586986  0  2.231607  0  0  -0.613393  0  2.22411  0  -1.195061  0  -0.320894  -0.568278  0  2.235935  0
O  O129  1  0.83655001  0.33514872  0.51808266  1  0  -0.643157  0  1.991277  0  0  -0.587042  0  2.231604  0  0  -0.613445  0  2.224096  0  -1.195123  0  -0.320936  -0.568335  0  2.235935  0
O  O130  1  0.83835673  0.02152970  0.57548945  1  0  -0.82101  0  1.826479  0  0  -0.761876  0  2.007518  0  0  -0.784453  0  1.976382  0  -1.242531  0  -0.588501  -0.74584  0  2.02925  0
O  O131  1  0.16164261  0.97847151  0.42451040  1  0  -0.820968  0  1.826534  0  0  -0.761832  0  2.007593  0  0  -0.78441  0  1.976454  0  -1.242487  0  -0.588486  -0.745796  0  2.029324  0
