# generated using pymatgen
data_CdH18C24(NO3)2
_symmetry_space_group_name_H-M   'P 1'
_cell_length_a   10.36068688
_cell_length_b   10.94993534
_cell_length_c   10.96300000
_cell_angle_alpha   63.20928487
_cell_angle_beta   80.30792563
_cell_angle_gamma   82.80077288
_symmetry_Int_Tables_number   1
_chemical_formula_structural   CdH18C24(NO3)2
_chemical_formula_sum   'Cd2 H36 C48 N4 O12'
_cell_volume   1092.65999847
_cell_formula_units_Z   2
loop_
 _symmetry_equiv_pos_site_id
 _symmetry_equiv_pos_as_xyz
  1  'x, y, z'
loop_
 _atom_site_type_symbol
 _atom_site_label
 _atom_site_symmetry_multiplicity
 _atom_site_fract_x
 _atom_site_fract_y
 _atom_site_fract_z
 _atom_site_occupancy
 _atom_site_hle17_bader_spin_density
 _atom_site_hle17_ddec_charge
 _atom_site_hle17_ddec_spin_density
 _atom_site_hle17_ddec_sum_bond_order
 _atom_site_hle17_magmom
 _atom_site_hse06_10hf_bader_spin_density
 _atom_site_hse06_10hf_ddec_charge
 _atom_site_hse06_10hf_ddec_spin_density
 _atom_site_hse06_10hf_ddec_sum_bond_order
 _atom_site_hse06_10hf_magmom
 _atom_site_hse06_bader_spin_density
 _atom_site_hse06_ddec_charge
 _atom_site_hse06_ddec_spin_density
 _atom_site_hse06_ddec_sum_bond_order
 _atom_site_hse06_magmom
 _atom_site_pbe_bader_charge
 _atom_site_pbe_bader_spin_density
 _atom_site_pbe_cm5_charge
 _atom_site_pbe_ddec_charge
 _atom_site_pbe_ddec_spin_density
 _atom_site_pbe_ddec_sum_bond_order
 _atom_site_pbe_magmom
Cd  Cd0  1  0.89140309  0.11676159  0.57947744  1  0  1.12978  0  1.622672  0  0  0.925352  0  2.068994  0  0  0.986547  0  2.016191  0  1.259735  0  0.782257  0.880515  0  2.106158  0
Cd  Cd1  1  0.10859350  0.88324075  0.42052032  1  0  1.129767  0  1.62269  0  0  0.925324  0  2.069023  0  0  0.98652  0  2.016217  0  1.259711  0  0.782239  0.880487  0  2.106185  0
H  H2  1  0.68254411  0.66950933  0.99605763  1  0  0.108459  0  0.965459  0  0  0.114151  0  1.03384  0  0  0.118749  0  1.029954  0  0.097262  0  0.10123  0.110729  0  1.03691  0
H  H3  1  0.31745750  0.33049096  0.00394117  1  0  0.108456  0  0.965428  0  0  0.114106  0  1.033853  0  0  0.118705  0  1.029967  0  0.097282  0  0.10122  0.110715  0  1.036889  0
H  H4  1  0.75140783  0.46729432  0.20552818  1  0  0.088694  0  0.972902  0  0  0.100549  0  1.032101  0  0  0.10353  0  1.030641  0  0.073578  0  0.095632  0.098327  0  1.03325  0
H  H5  1  0.24859274  0.53270700  0.79447032  1  0  0.08871  0  0.97286  0  0  0.100559  0  1.03207  0  0  0.103539  0  1.030611  0  0.073596  0  0.095628  0.098334  0  1.033221  0
H  H6  1  0.36297251  0.74646609  0.69318742  1  0  0.120279  0  0.978009  0  0  0.128732  0  1.042682  0  0  0.132611  0  1.040515  0  0.123036  0  0.101899  0.125847  0  1.044538  0
H  H7  1  0.63702806  0.25353523  0.30681290  1  0  0.120282  0  0.978008  0  0  0.128733  0  1.042681  0  0  0.132612  0  1.040514  0  0.12303  0  0.101894  0.125847  0  1.044538  0
H  H8  1  0.69662839  0.61397152  0.70417494  1  0  0.098293  0  0.94903  0  0  0.109118  0  1.006544  0  0  0.111366  0  1.005686  0  0.115215  0  0.109273  0.107556  0  1.007122  0
H  H9  1  0.30336929  0.38602877  0.29582448  1  0  0.098282  0  0.949027  0  0  0.109094  0  1.006556  0  0  0.111341  0  1.005699  0  0.115205  0  0.109254  0.10754  0  1.007124  0
H  H10  1  0.43525341  0.94812982  0.70077780  1  0  0.076776  0  0.93755  0  0  0.090681  0  1.000554  0  0  0.091437  0  1.000264  0  0.065499  0  0.10676  0.090059  0  1.000957  0
H  H11  1  0.56474520  0.05187150  0.29922192  1  0  0.076773  0  0.937621  0  0  0.090682  0  1.000589  0  0  0.09144  0  1.000304  0  0.065519  0  0.106755  0.090059  0  1.000991  0
H  H12  1  0.52482106  0.87112900  0.59786514  1  0  0.092662  0  0.951479  0  0  0.10363  0  1.016856  0  0  0.105477  0  1.015661  0  0.102942  0  0.109318  0.102372  0  1.017746  0
H  H13  1  0.47517956  0.12887129  0.40213472  1  0  0.092656  0  0.951499  0  0  0.103614  0  1.016867  0  0  0.105458  0  1.015674  0  0.102938  0  0.109309  0.102356  0  1.017755  0
H  H14  1  0.92982129  0.53067608  0.69997234  1  0  0.114891  0  0.994228  0  0  0.123027  0  1.056615  0  0  0.127027  0  1.054552  0  0.124475  0  0.105235  0.120126  0  1.058242  0
H  H15  1  0.07017530  0.46932626  0.30002359  1  0  0.114841  0  0.994275  0  0  0.122994  0  1.056646  0  0  0.126994  0  1.054584  0  0.12423  0  0.10523  0.120114  0  1.058245  0
H  H16  1  0.33628177  0.35296328  0.70420967  1  0  0.088385  0  0.943709  0  0  0.101883  0  0.999802  0  0  0.10377  0  0.999114  0  0.075121  0  0.109069  0.100744  0  0.999866  0
H  H17  1  0.66371798  0.64703496  0.29579034  1  0  0.088373  0  0.943725  0  0  0.101881  0  0.999809  0  0  0.103767  0  0.999122  0  0.075105  0  0.109054  0.10074  0  0.999873  0
H  H18  1  0.20035996  0.05406739  0.60633605  1  0  0.086622  0  0.94445  0  0  0.094181  0  1.00967  0  0  0.096442  0  1.008024  0  0.113039  0  0.11681  0.092436  0  1.0111  0
H  H19  1  0.79963572  0.94593393  0.39366140  1  0  0.08657  0  0.944572  0  0  0.094169  0  1.009756  0  0  0.096433  0  1.008105  0  0.112989  0  0.116793  0.092417  0  1.011195  0
H  H20  1  0.61392230  0.28513645  0.61752480  1  0  0.089032  0  0.965033  0  0  0.097085  0  1.026869  0  0  0.100038  0  1.024269  0  0.149305  0  0.113952  0.09492  0  1.028694  0
H  H21  1  0.38607468  0.71485872  0.38248160  1  0  0.088999  0  0.965105  0  0  0.09708  0  1.026908  0  0  0.100008  0  1.024336  0  0.14932  0  0.113959  0.094915  0  1.028733  0
H  H22  1  0.24254250  0.02591218  0.06254630  1  0  0.105569  0  0.953104  0  0  0.113886  0  1.016123  0  0  0.118036  0  1.013119  0  0.08945  0  0.100569  0.110818  0  1.018416  0
H  H23  1  0.75746117  0.97408606  0.93745491  1  0  0.105563  0  0.953093  0  0  0.113878  0  1.016108  0  0  0.118025  0  1.013108  0  0.089487  0  0.10056  0.11081  0  1.018404  0
H  H24  1  0.97812538  0.37247529  0.07938079  1  0  0.07812  0  0.932764  0  0  0.08879  0  0.999352  0  0  0.090536  0  0.997517  0  0.068003  0  0.106783  0.087358  0  1.001099  0
H  H25  1  0.02187715  0.62752603  0.92061831  1  0  0.078124  0  0.932754  0  0  0.088763  0  0.999398  0  0  0.090507  0  0.997554  0  0.068188  0  0.106766  0.087338  0  1.001148  0
H  H26  1  0.13094572  0.33283748  0.14607493  1  0  0.103268  0  0.917831  0  0  0.114933  0  0.980273  0  0  0.116545  0  0.978909  0  0.107993  0  0.119071  0.113721  0  0.981488  0
H  H27  1  0.86905588  0.66716281  0.85392569  1  0  0.103279  0  0.917833  0  0  0.114963  0  0.980268  0  0  0.116567  0  0.978903  0  0.108017  0  0.119096  0.113758  0  0.981484  0
H  H28  1  0.38864055  0.15696092  0.64047000  1  0  0.106442  0  0.985186  0  0  0.113078  0  1.049829  0  0  0.116601  0  1.048258  0  0.145061  0  0.104334  0.110099  0  1.051725  0
H  H29  1  0.61135524  0.84303835  0.35952836  1  0  0.106476  0  0.984992  0  0  0.113077  0  1.049691  0  0  0.116599  0  1.048121  0  0.145043  0  0.104362  0.110102  0  1.051586  0
H  H30  1  0.10726931  0.44932548  0.71276850  1  0  0.11923  0  0.970405  0  0  0.128925  0  1.030977  0  0  0.132745  0  1.028565  0  0.117378  0  0.109873  0.125719  0  1.033624  0
H  H31  1  0.89273022  0.55067686  0.28722970  1  0  0.119222  0  0.970434  0  0  0.128915  0  1.03102  0  0  0.132732  0  1.028606  0  0.117397  0  0.109871  0.125708  0  1.033667  0
H  H32  1  0.82387414  0.26827939  0.07681959  1  0  0.095956  0  0.998728  0  0  0.106079  0  1.064698  0  0  0.108061  0  1.065341  0  0.077313  0  0.093479  0.104648  0  1.064258  0
H  H33  1  0.17612735  0.73172295  0.92317830  1  0  0.096018  0  0.998687  0  0  0.10614  0  1.064653  0  0  0.108122  0  1.065296  0  0.077349  0  0.093485  0.104708  0  1.064216  0
H  H34  1  0.53185190  0.48973180  0.66501655  1  0  0.098334  0  0.965979  0  0  0.108314  0  1.026741  0  0  0.110543  0  1.02748  0  0.102232  0  0.104492  0.106621  0  1.026413  0
H  H35  1  0.46814225  0.51026132  0.33499487  1  0  0.098336  0  0.965868  0  0  0.108295  0  1.026647  0  0  0.110525  0  1.027385  0  0.102543  0  0.10448  0.106595  0  1.026327  0
H  H36  1  0.32351310  0.83452733  0.00028140  1  0  0.088756  0  0.941974  0  0  0.102347  0  0.994683  0  0  0.105003  0  0.993893  0  0.054764  0  0.097762  0.100253  0  0.995617  0
H  H37  1  0.67649057  0.16547091  0.99971799  1  0  0.088735  0  0.941995  0  0  0.102344  0  0.994692  0  0  0.105001  0  0.993903  0  0.054796  0  0.097784  0.10025  0  0.995627  0
C  C38  1  0.63498086  0.57302724  0.03838357  1  0  -0.14364  0  3.780074  0  0  -0.17504  0  4.047708  0  0  -0.176558  0  4.065604  0  -0.090398  0  -0.111986  -0.173698  0  4.035506  0
C  C39  1  0.36501971  0.42697407  0.96161584  1  0  -0.143649  0  3.78001  0  0  -0.175013  0  4.047663  0  0  -0.176533  0  4.065559  0  -0.090382  0  -0.111975  -0.173695  0  4.035447  0
C  C40  1  0.49261719  0.67334574  0.85042103  1  0  0.219923  0  3.804577  0  0  0.207624  0  4.065885  0  0  0.218122  0  4.08178  0  0.433552  0  0.082679  0.200596  0  4.055004  0
C  C41  1  0.50738442  0.32665455  0.14957867  1  0  0.22009  0  3.804539  0  0  0.207794  0  4.065817  0  0  0.218295  0  4.081715  0  0.433416  0  0.08276  0.200793  0  4.054938  0
C  C42  1  0.97244082  0.23069095  0.29390248  1  0  0.661565  0  3.874877  0  0  0.611561  0  4.173031  0  0  0.644974  0  4.167343  0  1.580782  0  0.198076  0.589149  0  4.175349  0
C  C43  1  0.02756089  0.76930729  0.70609630  1  0  0.661429  0  3.874812  0  0  0.611383  0  4.173055  0  0  0.644787  0  4.167362  0  1.580828  0  0.197937  0.588981  0  4.175373  0
C  C44  1  0.53263361  0.56221581  0.97290507  1  0  -0.025078  0  3.802489  0  0  -0.012389  0  4.032037  0  0  -0.01442  0  4.05611  0  0.029847  0  -0.019084  -0.01145  0  4.016207  0
C  C45  1  0.46736799  0.43778448  0.02709372  1  0  -0.025025  0  3.802443  0  0  -0.012343  0  4.031978  0  0  -0.014374  0  4.056052  0  -0.019241  0  -0.019065  -0.011405  0  4.016149  0
C  C46  1  0.03235711  0.30320468  0.66274793  1  0  0.183626  0  3.740157  0  0  0.17854  0  3.982061  0  0  0.185379  0  4.003643  0  0.498987  0  0.125304  0.17382  0  3.967481  0
C  C47  1  0.96763943  0.69679868  0.33725120  1  0  0.183671  0  3.740357  0  0  0.178546  0  3.982379  0  0  0.185384  0  4.003964  0  0.499249  0  0.125348  0.173826  0  3.967798  0
C  C48  1  0.67174157  0.46189731  0.15489286  1  0  -0.065486  0  3.832934  0  0  -0.076697  0  4.089561  0  0  -0.076496  0  4.1091  0  -0.020477  0  -0.103532  -0.076389  0  4.075735  0
C  C49  1  0.32825998  0.53810400  0.84510639  1  0  -0.065503  0  3.832869  0  0  -0.07671  0  4.089489  0  0  -0.076508  0  4.109029  0  -0.020486  0  -0.103536  -0.076399  0  4.075672  0
C  C50  1  0.89408352  0.35920667  0.66337216  1  0  0.182602  0  3.750749  0  0  0.177872  0  3.991811  0  0  0.184542  0  4.013138  0  0.507254  0  0.123991  0.173507  0  3.976872  0
C  C51  1  0.10591302  0.64079669  0.33662514  1  0  0.182582  0  3.750722  0  0  0.177776  0  3.991941  0  0  0.184445  0  4.01327  0  0.50713  0  0.123964  0.17341  0  3.977003  0
C  C52  1  0.63697523  0.00377903  0.62936264  1  0  0.647259  0  3.929716  0  0  0.601161  0  4.22806  0  0  0.63437  0  4.222001  0  1.593223  0  0.193269  0.578483  0  4.231248  0
C  C53  1  0.36302333  0.99622331  0.37063662  1  0  0.647168  0  3.929802  0  0  0.601036  0  4.228162  0  0  0.63424  0  4.222108  0  1.593212  0  0.193208  0.578359  0  4.231344  0
C  C54  1  0.39198425  0.66242877  0.78762435  1  0  -0.217562  0  3.766152  0  0  -0.237513  0  4.018959  0  0  -0.243096  0  4.037804  0  -0.087004  0  -0.1188  -0.233814  0  4.006296  0
C  C55  1  0.60801637  0.33757152  0.21237642  1  0  -0.217625  0  3.766138  0  0  -0.237579  0  4.018936  0  0  -0.243162  0  4.037782  0  -0.086848  0  -0.11881  -0.233877  0  4.00627  0
C  C56  1  0.72640633  0.52344284  0.68695280  1  0  0.005818  0  3.717559  0  0  -0.013474  0  3.96826  0  0  -0.010751  0  3.988807  0  -0.046026  0  -0.063985  -0.015522  0  3.95427  0
C  C57  1  0.27359136  0.47655745  0.31304570  1  0  0.005829  0  3.717552  0  0  -0.013443  0  3.968247  0  0  -0.010722  0  3.988799  0  -0.046081  0  -0.063982  -0.015496  0  3.954253  0
C  C58  1  0.53154555  0.90107229  0.68018530  1  0  -0.063361  0  3.639017  0  0  -0.120975  0  3.89853  0  0  -0.117773  0  3.899698  0  0.39285  0  -0.069826  -0.123118  0  3.897632  0
C  C59  1  0.46845410  0.09892801  0.31981563  1  0  -0.063365  0  3.639181  0  0  -0.120927  0  3.898565  0  0  -0.117725  0  3.899738  0  0.392847  0  -0.069811  -0.123044  0  3.89767  0
C  C60  1  0.85720473  0.47562806  0.68615504  1  0  -0.139456  0  3.677351  0  0  -0.158765  0  3.924737  0  0  -0.165911  0  3.945353  0  -0.042106  0  -0.080168  -0.153302  0  3.910073  0
C  C61  1  0.14279480  0.52437428  0.31383951  1  0  -0.13941  0  3.677355  0  0  -0.158701  0  3.924757  0  0  -0.165847  0  3.945373  0  -0.041831  0  -0.080162  -0.153253  0  3.910082  0
C  C62  1  0.04420728  0.02984389  0.02111985  1  0  -0.024561  0  3.782164  0  0  -0.013224  0  4.01554  0  0  -0.014837  0  4.038936  0  0.039455  0  -0.020513  -0.012426  0  3.999996  0
C  C63  1  0.95579535  0.97015538  0.97888106  1  0  -0.024486  0  3.782064  0  0  -0.013161  0  4.015465  0  0  -0.014775  0  4.03886  0  -0.02292  0  -0.020492  -0.012362  0  3.999923  0
C  C64  1  0.25910677  0.30799302  0.68389801  1  0  0.007538  0  3.722838  0  0  -0.00891  0  3.967733  0  0  -0.005685  0  3.987494  0  -0.009615  0  -0.062319  -0.011034  0  3.954289  0
C  C65  1  0.74089086  0.69200829  0.31610186  1  0  0.007507  0  3.722845  0  0  -0.008938  0  3.967727  0  0  -0.005714  0  3.987491  0  -0.009643  0  -0.062307  -0.011063  0  3.954284  0
C  C66  1  0.18519637  0.14251392  0.62893677  1  0  0.144135  0  3.688409  0  0  0.111743  0  3.942396  0  0  0.118845  0  3.961864  0  0.468269  0  0.053295  0.106759  0  3.929068  0
C  C67  1  0.81480029  0.85748740  0.37106326  1  0  0.144178  0  3.68848  0  0  0.111753  0  3.942451  0  0  0.118852  0  3.96192  0  0.468467  0  0.053329  0.106774  0  3.929128  0
C  C68  1  0.67909257  0.34165488  0.63962095  1  0  0.125541  0  3.713156  0  0  0.097411  0  3.959868  0  0  0.103593  0  3.978948  0  0.498505  0  0.046929  0.093157  0  3.946871  0
C  C69  1  0.32090533  0.65834131  0.36038302  1  0  0.125572  0  3.71332  0  0  0.097431  0  3.960005  0  0  0.103629  0  3.979092  0  0.498651  0  0.046901  0.093177  0  3.947005  0
C  C70  1  0.17732947  0.97979047  0.02887810  1  0  -0.135213  0  3.776284  0  0  -0.165887  0  4.044739  0  0  -0.167864  0  4.063394  0  0.014083  0  -0.111527  -0.164161  0  4.031846  0
C  C71  1  0.82267328  0.02020675  0.97112463  1  0  -0.135183  0  3.776151  0  0  -0.165843  0  4.044604  0  0  -0.167818  0  4.063259  0  0.013902  0  -0.111508  -0.16412  0  4.031712  0
C  C72  1  0.99356459  0.13953106  0.05557758  1  0  0.225052  0  3.787209  0  0  0.212447  0  4.049954  0  0  0.222706  0  4.065766  0  0.452713  0  0.081178  0.205137  0  4.039167  0
C  C73  1  0.00644006  0.86046718  0.94442165  1  0  0.225094  0  3.787163  0  0  0.212472  0  4.049913  0  0  0.222732  0  4.065729  0  0.452741  0  0.081234  0.205161  0  4.039127  0
C  C74  1  0.04140632  0.28853225  0.14634472  1  0  -0.058024  0  3.64969  0  0  -0.11472  0  3.911567  0  0  -0.110941  0  3.911868  0  0.419102  0  -0.062268  -0.11786  0  3.911897  0
C  C75  1  0.95859529  0.71146804  0.85365499  1  0  -0.057996  0  3.649662  0  0  -0.114725  0  3.911636  0  0  -0.110913  0  3.911886  0  0.418913  0  -0.062277  -0.117898  0  3.912005  0
C  C76  1  0.28800302  0.19764288  0.65122633  1  0  -0.12026  0  3.723565  0  0  -0.131818  0  3.972964  0  0  -0.139415  0  3.994887  0  -0.04736  0  -0.080523  -0.126126  0  3.958185  0
C  C77  1  0.71199576  0.80235536  0.34877384  1  0  -0.120259  0  3.723403  0  0  -0.131795  0  3.972854  0  0  -0.139392  0  3.994779  0  -0.047388  0  -0.080582  -0.126107  0  3.958074  0
C  C78  1  0.13049298  0.36145073  0.69001082  1  0  -0.129922  0  3.664452  0  0  -0.150837  0  3.912574  0  0  -0.157634  0  3.933029  0  -0.037162  0  -0.074177  -0.147045  0  3.900029  0
C  C79  1  0.86950661  0.63855059  0.30998783  1  0  -0.129938  0  3.664508  0  0  -0.150841  0  3.912674  0  0  -0.157632  0  3.933125  0  -0.037373  0  -0.074192  -0.147052  0  3.900136  0
C  C80  1  0.86319458  0.18620742  0.04882736  1  0  -0.218144  0  3.795002  0  0  -0.242075  0  4.055089  0  0  -0.247982  0  4.076629  0  -0.076074  0  -0.124097  -0.237437  0  4.040221  0
C  C81  1  0.13681007  0.81379082  0.95117188  1  0  -0.218304  0  3.79503  0  0  -0.242226  0  4.055116  0  0  -0.248135  0  4.076655  0  -0.076228  0  -0.124164  -0.237588  0  4.040252  0
C  C82  1  0.63503280  0.45501349  0.66430310  1  0  -0.118498  0  3.740153  0  0  -0.131326  0  3.990841  0  0  -0.13866  0  4.014339  0  -0.070067  0  -0.082218  -0.126187  0  3.975191  0
C  C83  1  0.36496309  0.54498372  0.33570072  1  0  -0.118525  0  3.740083  0  0  -0.131337  0  3.990779  0  0  -0.138669  0  4.014268  0  -0.070437  0  -0.082207  -0.126192  0  3.975135  0
C  C84  1  0.22156170  0.87394995  0.99428750  1  0  -0.049618  0  3.822218  0  0  -0.062806  0  4.082031  0  0  -0.062688  0  4.102858  0  -0.091432  0  -0.102693  -0.063034  0  4.067724  0
C  C85  1  0.77844198  0.12604829  0.00571371  1  0  -0.049616  0  3.822165  0  0  -0.062832  0  4.081996  0  0  -0.062712  0  4.10282  0  -0.091242  0  -0.102707  -0.063059  0  4.067689  0
N  N86  1  0.06098977  0.19416920  0.63436168  1  0  -0.358909  0  3.249222  0  0  -0.283971  0  3.51117  0  0  -0.305186  0  3.530826  0  -1.219693  0  -0.321868  -0.26875  0  3.497814  0
N  N87  1  0.93900688  0.80583211  0.36563835  1  0  -0.35888  0  3.249343  0  0  -0.283926  0  3.51133  0  0  -0.30514  0  3.530989  0  -1.219876  0  -0.321854  -0.268699  0  3.497958  0
N  N88  1  0.80522469  0.29499800  0.63953963  1  0  -0.362567  0  3.258398  0  0  -0.290122  0  3.518898  0  0  -0.310531  0  3.538503  0  -1.234343  0  -0.32097  -0.275939  0  3.505329  0
N  N89  1  0.19477299  0.70500230  0.36046070  1  0  -0.362551  0  3.25846  0  0  -0.290078  0  3.51899  0  0  -0.310486  0  3.538589  0  -1.234234  0  -0.320925  -0.275895  0  3.505418  0
O  O90  1  0.95984680  0.10198976  0.36584916  1  0  -0.65773  0  2.037494  0  0  -0.578714  0  2.293891  0  0  -0.610296  0  2.282915  0  -1.174208  0  -0.325376  -0.555853  0  2.300504  0
O  O91  1  0.04014996  0.89800951  0.63414540  1  0  -0.65764  0  2.037379  0  0  -0.578665  0  2.293852  0  0  -0.610246  0  2.282879  0  -1.174274  0  -0.325332  -0.555803  0  2.300461  0
O  O92  1  0.93331514  0.31766296  0.34036833  1  0  -0.636806  0  1.947712  0  0  -0.581679  0  2.18405  0  0  -0.609081  0  2.175641  0  -1.186888  0  -0.324472  -0.561485  0  2.188825  0
O  O93  1  0.06668957  0.68233426  0.65963318  1  0  -0.636788  0  1.947827  0  0  -0.581593  0  2.184142  0  0  -0.608996  0  2.17573  0  -1.18694  0  -0.324402  -0.561397  0  2.18891  0
O  O94  1  0.56418666  0.78563152  0.80239027  1  0  -0.251915  0  2.392963  0  0  -0.182112  0  2.630132  0  0  -0.199202  0  2.631956  0  -1.082819  0  -0.175041  -0.170045  0  2.628418  0
O  O95  1  0.43581385  0.21437083  0.19760869  1  0  -0.252015  0  2.393038  0  0  -0.182205  0  2.630154  0  0  -0.199295  0  2.631981  0  -1.082808  0  -0.175115  -0.170203  0  2.628486  0
O  O96  1  0.75001742  0.95566124  0.66753787  1  0  -0.619016  0  2.033628  0  0  -0.552901  0  2.290991  0  0  -0.583504  0  2.280589  0  -1.133868  0  -0.331312  -0.53168  0  2.297344  0
O  O97  1  0.24998119  0.04434008  0.33246277  1  0  -0.618954  0  2.033697  0  0  -0.552824  0  2.291063  0  0  -0.583426  0  2.280663  0  -1.133911  0  -0.331258  -0.531601  0  2.297409  0
O  O98  1  0.08464845  0.19172636  0.09355988  1  0  -0.250722  0  2.389114  0  0  -0.181153  0  2.624468  0  0  -0.19834  0  2.627214  0  -1.083973  0  -0.175023  -0.168574  0  2.622159  0
O  O99  1  0.91535407  0.80827496  0.90643739  1  0  -0.250725  0  2.389213  0  0  -0.181102  0  2.624548  0  0  -0.198298  0  2.627286  0  -1.083904  0  -0.175012  -0.168511  0  2.622247  0
O  O100  1  0.60706395  0.12644996  0.55055583  1  0  -0.646155  0  1.941836  0  0  -0.59602  0  2.1671  0  0  -0.620775  0  2.157421  0  -1.200809  0  -0.330753  -0.578578  0  2.1734  0
O  O101  1  0.39293466  0.87355135  0.44944297  1  0  -0.646106  0  1.941799  0  0  -0.595965  0  2.167064  0  0  -0.620712  0  2.157382  0  -1.200749  0  -0.330736  -0.578522  0  2.173365  0
