# generated using pymatgen
data_CoH5C5O4
_symmetry_space_group_name_H-M   'P 1'
_cell_length_a   6.55131019
_cell_length_b   15.28383713
_cell_length_c   15.28077143
_cell_angle_alpha   117.97733546
_cell_angle_beta   98.21924425
_cell_angle_gamma   98.23642599
_symmetry_Int_Tables_number   1
_chemical_formula_structural   CoH5C5O4
_chemical_formula_sum   'Co6 H30 C30 O24'
_cell_volume   1298.06377714
_cell_formula_units_Z   6
loop_
 _symmetry_equiv_pos_site_id
 _symmetry_equiv_pos_as_xyz
  1  'x, y, z'
loop_
 _atom_site_type_symbol
 _atom_site_label
 _atom_site_symmetry_multiplicity
 _atom_site_fract_x
 _atom_site_fract_y
 _atom_site_fract_z
 _atom_site_occupancy
 _atom_site_pbe_bader_charge
 _atom_site_pbe_bader_spin_density
 _atom_site_pbe_cm5_charge
 _atom_site_pbe_ddec_charge
 _atom_site_pbe_ddec_spin_density
 _atom_site_pbe_ddec_sum_bond_order
 _atom_site_pbe_magmom
Co  Co0  1  0.03492099  0.39909204  0.72123561  1  1.256356  2.545999  0.616013  0.883658  2.76276  2.53393  2.535
Co  Co1  1  0.31378453  0.27877471  0.67789400  1  1.256056  2.545595  0.615707  0.883145  2.761879  2.53316  2.534
Co  Co2  1  0.63567035  0.32207766  0.60085966  1  1.25498  2.545179  0.615276  0.883167  2.761054  2.533461  2.534
Co  Co3  1  0.96506538  0.60088282  0.27875472  1  1.255481  2.545953  0.616033  0.883619  2.762703  2.534385  2.534
Co  Co4  1  0.68621300  0.72121618  0.32209407  1  1.256076  2.545646  0.6159  0.8837  2.761983  2.532983  2.534
Co  Co5  1  0.36430484  0.67790253  0.39912594  1  1.255103  2.545184  0.615345  0.883286  2.761044  2.533793  2.534
H  H6  1  0.68935691  0.54713057  0.56992886  1  0.118748  0.00074  0.110297  0.136055  0.000223  0.992471  0.0
H  H7  1  0.11925351  0.43012726  0.97722486  1  0.120241  0.000749  0.110345  0.136437  0.000231  0.992811  0.0
H  H8  1  0.14192605  0.02253451  0.45280036  1  0.113843  0.000749  0.110179  0.136516  0.000222  0.993122  0.0
H  H9  1  0.31067045  0.45287711  0.43009970  1  0.11861  0.00074  0.110194  0.135984  0.000223  0.99266  0.0
H  H10  1  0.88068839  0.56984835  0.02278465  1  0.120512  0.000749  0.110313  0.13629  0.000231  0.993182  0.0
H  H11  1  0.85801225  0.97740600  0.54717676  1  0.11405  0.000749  0.110176  0.13644  0.000222  0.993288  0.0
H  H12  1  0.37528109  0.69427434  0.85703473  1  0.019418  0.003209  0.092009  0.083671  0.001301  0.988401  0.002
H  H13  1  0.51875278  0.14263594  0.83699883  1  0.016552  0.003215  0.092128  0.083765  0.001299  0.98863  0.002
H  H14  1  0.68128536  0.16286054  0.30563948  1  0.032485  0.003204  0.092269  0.083683  0.001301  0.987525  0.002
H  H15  1  0.62458965  0.30571883  0.14293016  1  0.019692  0.003211  0.092083  0.083708  0.001302  0.988337  0.002
H  H16  1  0.48139787  0.85734351  0.16299471  1  0.016892  0.003213  0.092045  0.083669  0.001298  0.98851  0.002
H  H17  1  0.31869504  0.83724942  0.69432874  1  0.031593  0.003206  0.092209  0.083583  0.001301  0.987243  0.002
H  H18  1  0.39532741  0.63058123  0.93055310  1  0.063226  0.000153  0.09418  0.089949  -2.4e-05  1.022816  0.0
H  H19  1  0.46516684  0.06936450  0.69978878  1  0.060412  0.000148  0.094684  0.090525  -2.4e-05  1.023283  0.0
H  H20  1  0.76533780  0.30005241  0.36934762  1  0.066434  0.00016  0.094321  0.089706  -1.8e-05  1.022896  0.0
H  H21  1  0.60473723  0.36944783  0.06941778  1  0.063481  0.000153  0.094118  0.089967  -2.4e-05  1.022703  0.0
H  H22  1  0.53469522  0.93063019  0.30021358  1  0.060734  0.000148  0.094654  0.090492  -2.4e-05  1.023309  0.0
H  H23  1  0.23484896  0.70003008  0.63070303  1  0.067375  0.000159  0.094346  0.089696  -1.8e-05  1.022129  0.0
H  H24  1  0.14053477  0.63490316  0.87520025  1  0.078957  0.000923  0.106583  0.113487  0.000151  0.982344  0.001
H  H25  1  0.26566701  0.12444468  0.75959286  1  0.072152  0.000919  0.106386  0.113996  0.00015  0.980922  0.001
H  H26  1  0.50589707  0.24043770  0.36480109  1  0.065831  0.000923  0.106676  0.113638  0.00015  0.98114  0.001
H  H27  1  0.85947658  0.36506941  0.12480889  1  0.078797  0.000921  0.106568  0.113492  0.00015  0.982246  0.001
H  H28  1  0.73441677  0.87561490  0.24054076  1  0.07213  0.000919  0.10643  0.113979  0.00015  0.980925  0.001
H  H29  1  0.49423878  0.75973029  0.63521120  1  0.067227  0.00092  0.106614  0.11354  0.000149  0.980995  0.001
H  H30  1  0.41124440  0.51196799  0.76955552  1  0.626527  0.000556  0.311961  0.349349  0.000253  0.944624  0.0
H  H31  1  0.64173375  0.23050747  0.74237126  1  0.631648  0.000546  0.311721  0.34897  0.000248  0.944718  0.0
H  H32  1  0.89913881  0.25762000  0.48808229  1  0.610834  0.000529  0.311843  0.349213  0.000251  0.944038  0.0
H  H33  1  0.58877382  0.48803969  0.23044956  1  0.62665  0.000556  0.311958  0.34939  0.000254  0.944518  0.0
H  H34  1  0.35822961  0.76946128  0.25759514  1  0.62996  0.000548  0.311806  0.34907  0.000251  0.944668  0.0
H  H35  1  0.10082631  0.74238004  0.51190413  1  0.610888  0.000532  0.311872  0.349287  0.000253  0.943684  0.0
C  C36  1  0.93743867  0.46988471  0.57019489  1  0.644187  0.011937  0.07676  0.311888  0.00752  4.079902  0.007
C  C37  1  0.36714957  0.42985081  0.89970603  1  0.604714  0.01216  0.075438  0.309068  0.007562  4.081647  0.007
C  C38  1  0.46734276  0.10022720  0.53011595  1  0.592827  0.012226  0.075411  0.309148  0.007589  4.081477  0.007
C  C39  1  0.06261519  0.53013595  0.42984991  1  0.643326  0.011946  0.076518  0.311741  0.007524  4.080014  0.007
C  C40  1  0.63282323  0.57013702  0.10029150  1  0.604156  0.012158  0.075633  0.309489  0.007559  4.081204  0.007
C  C41  1  0.53264603  0.89973697  0.46985774  1  0.591353  0.012232  0.075435  0.309564  0.007588  4.081414  0.007
C  C42  1  0.11567303  0.44253142  0.52830185  1  -0.054754  0.020357  -0.036569  -0.166879  0.010446  4.006167  0.014
C  C43  1  0.58738340  0.47172804  0.91427624  1  -0.055278  0.020375  -0.035684  -0.163929  0.010456  4.004846  0.014
C  C44  1  0.67302771  0.08577019  0.55746014  1  0.025774  0.020301  -0.035661  -0.16384  0.010514  4.004469  0.014
C  C45  1  0.88438625  0.55749382  0.47173824  1  -0.053039  0.020353  -0.036455  -0.166632  0.010447  4.005725  0.014
C  C46  1  0.41257557  0.52824758  0.08571535  1  -0.061182  0.020399  -0.035875  -0.164344  0.010462  4.004365  0.014
C  C47  1  0.32696576  0.91418788  0.44250706  1  0.026315  0.020296  -0.035921  -0.16446  0.010514  4.004542  0.014
C  C48  1  0.24232422  0.38053399  0.55216284  1  1.488809  0.007471  0.220086  0.602911  0.00363  4.101306  0.004
C  C49  1  0.69033955  0.44784965  0.82845711  1  1.489672  0.007239  0.219079  0.60144  0.003547  4.104226  0.004
C  C50  1  0.86174101  0.17165119  0.61944581  1  1.477156  0.007415  0.219366  0.602099  0.003614  4.102277  0.004
C  C51  1  0.75765472  0.61945690  0.44783978  1  1.487934  0.007473  0.22035  0.603052  0.003629  4.101446  0.004
C  C52  1  0.30962890  0.55213894  0.17155883  1  1.489261  0.007239  0.219298  0.601672  0.003543  4.103465  0.004
C  C53  1  0.13822423  0.82831527  0.38053207  1  1.477291  0.007415  0.21939  0.602174  0.003609  4.101729  0.004
C  C54  1  0.82690637  0.52682177  0.53974886  1  -0.060519  0.022908  -0.09767  -0.192007  0.011912  3.938085  0.014
C  C55  1  0.28703829  0.46027694  0.98706046  1  -0.012202  0.022683  -0.097422  -0.192476  0.011904  3.939396  0.014
C  C56  1  0.29987238  0.01278046  0.47314530  1  -0.080846  0.022996  -0.096546  -0.191687  0.011952  3.937565  0.014
C  C57  1  0.17314753  0.47319888  0.46028939  1  -0.059827  0.022906  -0.097439  -0.191741  0.011912  3.938178  0.014
C  C58  1  0.71291683  0.53969410  0.01293137  1  -0.018425  0.022702  -0.09761  -0.192696  0.011908  3.93984  0.014
C  C59  1  0.70008440  0.98717837  0.52682913  1  -0.080958  0.022996  -0.096714  -0.192017  0.011952  3.937933  0.014
C  C60  1  0.30087553  0.62952820  0.86440323  1  0.389548  0.001952  -0.142572  -0.110062  0.000898  3.903581  0.001
C  C61  1  0.43685122  0.13538248  0.76496542  1  0.40331  0.001922  -0.142782  -0.111289  0.000895  3.903345  0.001
C  C62  1  0.67163706  0.23496722  0.37032985  1  0.38528  0.001962  -0.142738  -0.109838  0.000913  3.900714  0.001
C  C63  1  0.69911232  0.37047413  0.13558699  1  0.389161  0.001954  -0.14242  -0.110008  0.000899  3.90308  0.001
C  C64  1  0.56317843  0.86462673  0.23506792  1  0.401965  0.001928  -0.142591  -0.111066  0.000897  3.902673  0.001
C  C65  1  0.32844390  0.76512825  0.62966401  1  0.383809  0.001963  -0.142554  -0.109519  0.000913  3.898792  0.001
O  O66  1  0.86945738  0.44584986  0.63678032  1  -1.130945  0.162036  -0.352573  -0.566604  0.087368  2.555977  0.143
O  O67  1  0.23271469  0.36322363  0.80908856  1  -1.135086  0.162085  -0.351484  -0.564409  0.08753  2.554513  0.144
O  O68  1  0.42343262  0.19080285  0.55411319  1  -1.131659  0.162216  -0.352028  -0.565594  0.087544  2.555223  0.144
O  O69  1  0.13054506  0.55413568  0.36322976  1  -1.130165  0.16205  -0.352488  -0.566585  0.087385  2.555784  0.143
O  O70  1  0.76725699  0.63675885  0.19090313  1  -1.135261  0.162049  -0.351667  -0.564769  0.087522  2.554668  0.143
O  O71  1  0.57653456  0.80915826  0.44586427  1  -1.131463  0.162248  -0.352172  -0.56589  0.087559  2.555206  0.144
O  O72  1  0.15331156  0.32800578  0.59040599  1  -1.16621  0.100936  -0.323059  -0.618475  0.051677  2.610301  0.093
O  O73  1  0.56318215  0.40969014  0.73768441  1  -1.168072  0.100931  -0.32263  -0.618268  0.051689  2.610523  0.093
O  O74  1  0.82524507  0.26236246  0.67199415  1  -1.163717  0.100889  -0.322728  -0.618533  0.051641  2.610944  0.093
O  O75  1  0.84664097  0.67195992  0.40956747  1  -1.165756  0.100946  -0.323227  -0.61879  0.051686  2.610989  0.093
O  O76  1  0.43684258  0.59032746  0.26232704  1  -1.168181  0.100925  -0.322734  -0.618526  0.051694  2.610787  0.093
O  O77  1  0.17471281  0.73760781  0.32798571  1  -1.164019  0.100881  -0.322777  -0.618541  0.051646  2.610783  0.093
O  O78  1  0.42286129  0.37597809  0.53365496  1  -1.139812  0.073957  -0.280865  -0.488745  0.038028  2.313815  0.065
O  O79  1  0.88938230  0.46627245  0.84241644  1  -1.137718  0.074046  -0.280908  -0.488695  0.037983  2.315133  0.065
O  O80  1  0.04686221  0.15774504  0.62400682  1  -1.134695  0.074014  -0.281093  -0.489355  0.038063  2.315549  0.065
O  O81  1  0.57713796  0.62402272  0.46636798  1  -1.140017  0.073929  -0.281038  -0.488894  0.038019  2.313902  0.065
O  O82  1  0.11057818  0.53368485  0.15759022  1  -1.137366  0.074037  -0.281074  -0.488726  0.037978  2.315064  0.065
O  O83  1  0.95311488  0.84224203  0.37598145  1  -1.134909  0.074016  -0.281028  -0.489307  0.038064  2.315486  0.065
O  O84  1  0.27849307  0.53527433  0.77168821  1  -1.133547  0.047196  -0.394289  -0.428156  0.02457  2.487729  0.041
O  O85  1  0.50691788  0.22823482  0.76360007  1  -1.138697  0.047106  -0.394594  -0.428067  0.024565  2.48596  0.041
O  O86  1  0.74305260  0.23648357  0.46464681  1  -1.115622  0.047132  -0.3946  -0.428207  0.024536  2.484794  0.041
O  O87  1  0.72153552  0.46473564  0.22832645  1  -1.133649  0.047215  -0.394353  -0.428192  0.024579  2.487566  0.041
O  O88  1  0.49310184  0.77175454  0.23642204  1  -1.13633  0.047135  -0.394758  -0.428204  0.024576  2.486035  0.041
O  O89  1  0.25691201  0.76351800  0.53528860  1  -1.115874  0.047155  -0.394619  -0.428341  0.024539  2.484337  0.041
