# generated using pymatgen
data_CaH14C12N2O5
_symmetry_space_group_name_H-M   'P 1'
_cell_length_a   7.49970890
_cell_length_b   11.14409235
_cell_length_c   15.76800153
_cell_angle_alpha   90.00034927
_cell_angle_beta   90.00156029
_cell_angle_gamma   89.99854834
_symmetry_Int_Tables_number   1
_chemical_formula_structural   CaH14C12N2O5
_chemical_formula_sum   'Ca4 H56 C48 N8 O20'
_cell_volume   1317.84933561
_cell_formula_units_Z   4
loop_
 _symmetry_equiv_pos_site_id
 _symmetry_equiv_pos_as_xyz
  1  'x, y, z'
loop_
 _atom_site_type_symbol
 _atom_site_label
 _atom_site_symmetry_multiplicity
 _atom_site_fract_x
 _atom_site_fract_y
 _atom_site_fract_z
 _atom_site_occupancy
 _atom_site_hle17_bader_spin_density
 _atom_site_hle17_ddec_charge
 _atom_site_hle17_ddec_spin_density
 _atom_site_hle17_ddec_sum_bond_order
 _atom_site_hle17_magmom
 _atom_site_hse06_10hf_bader_spin_density
 _atom_site_hse06_10hf_ddec_charge
 _atom_site_hse06_10hf_ddec_spin_density
 _atom_site_hse06_10hf_ddec_sum_bond_order
 _atom_site_hse06_10hf_magmom
 _atom_site_hse06_bader_spin_density
 _atom_site_hse06_ddec_charge
 _atom_site_hse06_ddec_spin_density
 _atom_site_hse06_ddec_sum_bond_order
 _atom_site_hse06_magmom
 _atom_site_pbe_bader_spin_density
 _atom_site_pbe_cm5_charge
 _atom_site_pbe_ddec_charge
 _atom_site_pbe_ddec_spin_density
 _atom_site_pbe_ddec_sum_bond_order
 _atom_site_pbe_magmom
Ca  Ca0  1  0.98928347  0.79657599  0.23195827  1  0  1.53156  0  1.156004  0  0  1.402089  0  1.509974  0  0  1.448764  0  1.463038  0  0  0.937933  1.367227  0  1.542924  0
Ca  Ca1  1  0.01071281  0.29658367  0.76803590  1  0  1.531612  0  1.156048  0  0  1.40209  0  1.510061  0  0  1.44876  0  1.463127  0  0  0.937921  1.367209  0  1.543052  0
Ca  Ca2  1  0.51070585  0.29657922  0.73194389  1  0  1.531531  0  1.156045  0  0  1.401935  0  1.51024  0  0  1.448685  0  1.463174  0  0  0.937933  1.367079  0  1.54319  0
Ca  Ca3  1  0.48927710  0.79656698  0.26805155  1  0  1.531606  0  1.155949  0  0  1.402053  0  1.510067  0  0  1.448769  0  1.463051  0  0  0.937932  1.367183  0  1.543037  0
H  H4  1  0.14857726  0.39287956  0.00581675  1  0  0.324927  0  0.921203  0  0  0.310947  0  0.982384  0  0  0.318233  0  0.976072  0  0  0.294799  0.305722  0  0.986914  0
H  H5  1  0.85142075  0.89288260  0.99419876  1  0  0.324992  0  0.92123  0  0  0.311081  0  0.98231  0  0  0.318361  0  0.976013  0  0  0.29491  0.305855  0  0.986841  0
H  H6  1  0.35142340  0.89287133  0.50581403  1  0  0.325008  0  0.921265  0  0  0.311078  0  0.982366  0  0  0.318366  0  0.976055  0  0  0.294871  0.305853  0  0.986895  0
H  H7  1  0.64856261  0.39287467  0.49417231  1  0  0.324979  0  0.921311  0  0  0.311063  0  0.98242  0  0  0.318353  0  0.976094  0  0  0.294882  0.305839  0  0.986949  0
H  H8  1  0.15145532  0.48968545  0.09056203  1  0  0.315836  0  0.906975  0  0  0.304221  0  0.966336  0  0  0.310749  0  0.960802  0  0  0.298264  0.299504  0  0.970398  0
H  H9  1  0.84852575  0.98969319  0.90945961  1  0  0.315904  0  0.906674  0  0  0.304276  0  0.966078  0  0  0.310803  0  0.960542  0  0  0.29834  0.299556  0  0.970152  0
H  H10  1  0.34855190  0.98967279  0.59056307  1  0  0.315804  0  0.906864  0  0  0.304172  0  0.96627  0  0  0.310699  0  0.960738  0  0  0.298247  0.299457  0  0.970325  0
H  H11  1  0.65143183  0.48968252  0.40943130  1  0  0.315717  0  0.906972  0  0  0.304089  0  0.96635  0  0  0.310614  0  0.96082  0  0  0.29825  0.299377  0  0.970398  0
H  H12  1  0.41410933  0.58138403  0.14424797  1  0  0.114145  0  0.955431  0  0  0.124066  0  1.017555  0  0  0.128031  0  1.015242  0  0  0.117531  0.121272  0  1.019222  0
H  H13  1  0.58590699  0.08141667  0.85578523  1  0  0.114033  0  0.955339  0  0  0.123967  0  1.017494  0  0  0.127931  0  1.015182  0  0  0.117443  0.121167  0  1.019172  0
H  H14  1  0.08591221  0.08139673  0.64424027  1  0  0.114024  0  0.955416  0  0  0.12394  0  1.01756  0  0  0.127899  0  1.015259  0  0  0.117431  0.121145  0  1.019228  0
H  H15  1  0.91407611  0.58138064  0.35574409  1  0  0.11407  0  0.955365  0  0  0.124006  0  1.017466  0  0  0.127949  0  1.015205  0  0  0.117505  0.121211  0  1.019133  0
H  H16  1  0.43164426  0.32183363  0.94023996  1  0  0.123077  0  0.962946  0  0  0.13095  0  1.026459  0  0  0.13519  0  1.023768  0  0  0.114313  0.127872  0  1.028523  0
H  H17  1  0.56832308  0.82181915  0.05976129  1  0  0.122923  0  0.963068  0  0  0.130839  0  1.026542  0  0  0.13508  0  1.023848  0  0  0.114267  0.127762  0  1.028605  0
H  H18  1  0.06835720  0.82184033  0.44023746  1  0  0.12308  0  0.962867  0  0  0.13099  0  1.02634  0  0  0.135232  0  1.023644  0  0  0.114296  0.127912  0  1.028404  0
H  H19  1  0.93164080  0.32183578  0.55974857  1  0  0.123045  0  0.962861  0  0  0.130858  0  1.02651  0  0  0.135096  0  1.023826  0  0  0.114283  0.127784  0  1.028572  0
H  H20  1  0.91419919  0.48809483  0.02900496  1  0  0.093193  0  1.008167  0  0  0.101452  0  1.077343  0  0  0.105325  0  1.074573  0  0  0.105472  0.098685  0  1.079353  0
H  H21  1  0.08579793  0.98813505  0.97099068  1  0  0.093276  0  1.008175  0  0  0.10165  0  1.077192  0  0  0.105519  0  1.07443  0  0  0.105579  0.098888  0  1.079189  0
H  H22  1  0.58580605  0.98810284  0.52901781  1  0  0.093155  0  1.008397  0  0  0.101503  0  1.077449  0  0  0.105372  0  1.07469  0  0  0.10553  0.09874  0  1.079446  0
H  H23  1  0.41416841  0.48811000  0.47098543  1  0  0.093122  0  1.00828  0  0  0.10151  0  1.077301  0  0  0.105387  0  1.074521  0  0  0.105507  0.098736  0  1.079336  0
H  H24  1  0.03108613  0.22934526  0.36932715  1  0  0.125148  0  0.973915  0  0  0.141215  0  1.041008  0  0  0.143221  0  1.041255  0  0  0.096561  0.139741  0  1.040953  0
H  H25  1  0.96895266  0.72936290  0.63067688  1  0  0.125184  0  0.973798  0  0  0.14122  0  1.04092  0  0  0.143223  0  1.041171  0  0  0.096563  0.139745  0  1.040866  0
H  H26  1  0.46893740  0.72935655  0.86932848  1  0  0.125156  0  0.973966  0  0  0.141212  0  1.041051  0  0  0.143214  0  1.041306  0  0  0.096553  0.139737  0  1.040998  0
H  H27  1  0.53106273  0.22935609  0.13068950  1  0  0.125117  0  0.973902  0  0  0.141159  0  1.041009  0  0  0.143164  0  1.041259  0  0  0.096548  0.139683  0  1.040956  0
H  H28  1  0.99243646  0.07634665  0.39796192  1  0  0.134814  0  0.978317  0  0  0.151861  0  1.040314  0  0  0.153043  0  1.041818  0  0  0.099744  0.150952  0  1.039371  0
H  H29  1  0.00760138  0.57636440  0.60202813  1  0  0.1349  0  0.978033  0  0  0.151851  0  1.040141  0  0  0.153035  0  1.041637  0  0  0.099731  0.150938  0  1.039205  0
H  H30  1  0.50756657  0.57635510  0.89796488  1  0  0.134929  0  0.978138  0  0  0.1519  0  1.040224  0  0  0.153083  0  1.041724  0  0  0.09975  0.150987  0  1.039285  0
H  H31  1  0.49244193  0.07636044  0.10204102  1  0  0.13488  0  0.978051  0  0  0.151866  0  1.040114  0  0  0.153048  0  1.041616  0  0  0.099758  0.150954  0  1.039174  0
H  H32  1  0.81186158  0.17331336  0.37267304  1  0  0.14033  0  0.944431  0  0  0.159843  0  1.005212  0  0  0.162174  0  1.004822  0  0  0.103941  0.158182  0  1.005503  0
H  H33  1  0.18817797  0.67332375  0.62731807  1  0  0.140195  0  0.944441  0  0  0.15962  0  1.005341  0  0  0.16194  0  1.004966  0  0  0.103846  0.157961  0  1.005629  0
H  H34  1  0.68815638  0.67330795  0.87268912  1  0  0.140286  0  0.944369  0  0  0.159756  0  1.005199  0  0  0.162085  0  1.004814  0  0  0.103875  0.158096  0  1.005493  0
H  H35  1  0.31185250  0.17331660  0.12731593  1  0  0.140296  0  0.944461  0  0  0.15975  0  1.005303  0  0  0.162081  0  1.004917  0  0  0.103904  0.158089  0  1.005595  0
H  H36  1  0.84781761  0.32737009  0.28538163  1  0  0.103786  0  0.970699  0  0  0.123691  0  1.03461  0  0  0.123972  0  1.03577  0  0  0.107036  0.123385  0  1.033866  0
H  H37  1  0.15219086  0.82738095  0.71462092  1  0  0.103806  0  0.970727  0  0  0.123747  0  1.034579  0  0  0.124028  0  1.035739  0  0  0.107057  0.12344  0  1.033836  0
H  H38  1  0.65217095  0.82738144  0.78538456  1  0  0.103882  0  0.970578  0  0  0.123724  0  1.034545  0  0  0.124003  0  1.035707  0  0  0.107022  0.123417  0  1.033804  0
H  H39  1  0.34779084  0.32737767  0.21462179  1  0  0.103935  0  0.970663  0  0  0.123839  0  1.03455  0  0  0.124118  0  1.035712  0  0  0.107087  0.123533  0  1.033808  0
H  H40  1  0.75985776  0.33350100  0.18080472  1  0  0.093826  0  0.961835  0  0  0.114213  0  1.025887  0  0  0.113792  0  1.027946  0  0  0.100972  0.114374  0  1.0246  0
H  H41  1  0.24012781  0.83351932  0.81920356  1  0  0.09392  0  0.961698  0  0  0.114295  0  1.025759  0  0  0.113876  0  1.027817  0  0  0.100974  0.114456  0  1.02447  0
H  H42  1  0.74011259  0.83352609  0.68080626  1  0  0.094096  0  0.961728  0  0  0.114376  0  1.025848  0  0  0.113957  0  1.027908  0  0  0.100987  0.114537  0  1.024561  0
H  H43  1  0.25988764  0.33353191  0.31920519  1  0  0.093913  0  0.961907  0  0  0.11429  0  1.025937  0  0  0.113869  0  1.027999  0  0  0.10093  0.114451  0  1.024649  0
H  H44  1  0.98471158  0.37335614  0.19865000  1  0  0.10348  0  0.948553  0  0  0.119406  0  1.019077  0  0  0.120376  0  1.018703  0  0  0.102213  0.118621  0  1.01941  0
H  H45  1  0.01526583  0.87335573  0.80134704  1  0  0.103578  0  0.948625  0  0  0.119535  0  1.019074  0  0  0.120505  0  1.018701  0  0  0.102247  0.118748  0  1.019408  0
H  H46  1  0.51524897  0.87335548  0.69865750  1  0  0.103657  0  0.948687  0  0  0.119573  0  1.01915  0  0  0.120542  0  1.018778  0  0  0.102301  0.118786  0  1.019483  0
H  H47  1  0.48474178  0.37335728  0.30133700  1  0  0.103579  0  0.948801  0  0  0.119578  0  1.019155  0  0  0.120545  0  1.018783  0  0  0.102257  0.118792  0  1.019489  0
H  H48  1  0.01670786  0.06744234  0.10989877  1  0  0.109746  0  0.97772  0  0  0.123612  0  1.048664  0  0  0.125074  0  1.047929  0  0  0.111793  0.122417  0  1.049349  0
H  H49  1  0.98331431  0.56743325  0.89008680  1  0  0.109784  0  0.97753  0  0  0.123615  0  1.048522  0  0  0.125078  0  1.04779  0  0  0.111781  0.122416  0  1.049213  0
H  H50  1  0.48331624  0.56743903  0.60990410  1  0  0.109647  0  0.977561  0  0  0.123521  0  1.048528  0  0  0.124981  0  1.047793  0  0  0.111778  0.12233  0  1.049208  0
H  H51  1  0.51669260  0.06744194  0.39010049  1  0  0.109679  0  0.977657  0  0  0.123574  0  1.048567  0  0  0.125034  0  1.047834  0  0  0.111776  0.122379  0  1.049254  0
H  H52  1  0.00733303  0.22243920  0.07809159  1  0  0.102345  0  0.949538  0  0  0.120092  0  1.017715  0  0  0.120771  0  1.017737  0  0  0.103924  0.119461  0  1.017836  0
H  H53  1  0.99266202  0.72242753  0.92190289  1  0  0.102355  0  0.94941  0  0  0.120119  0  1.01756  0  0  0.120798  0  1.017584  0  0  0.103906  0.11949  0  1.017678  0
H  H54  1  0.49270213  0.72243394  0.57808943  1  0  0.102287  0  0.949376  0  0  0.120062  0  1.017537  0  0  0.120738  0  1.017556  0  0  0.103923  0.119434  0  1.017654  0
H  H55  1  0.50732358  0.22244177  0.42191266  1  0  0.102299  0  0.949568  0  0  0.120046  0  1.017743  0  0  0.120717  0  1.01777  0  0  0.103889  0.119416  0  1.017863  0
H  H56  1  0.80819932  0.13657970  0.08774526  1  0  0.096464  0  0.938566  0  0  0.120403  0  0.997328  0  0  0.120021  0  0.998473  0  0  0.103703  0.120508  0  0.996652  0
H  H57  1  0.19180960  0.63657632  0.91225710  1  0  0.096389  0  0.938502  0  0  0.120353  0  0.997242  0  0  0.119992  0  0.998363  0  0  0.103684  0.120458  0  0.996567  0
H  H58  1  0.69183174  0.63656615  0.58775568  1  0  0.09632  0  0.938642  0  0  0.120342  0  0.997348  0  0  0.119928  0  0.998527  0  0  0.103658  0.120451  0  0.996671  0
H  H59  1  0.30819052  0.13658539  0.41225682  1  0  0.096358  0  0.938548  0  0  0.120327  0  0.997288  0  0  0.11995  0  0.998425  0  0  0.103642  0.120433  0  0.996616  0
C  C60  1  0.67519478  0.54094041  0.09394136  1  0  -0.047437  0  3.815805  0  0  -0.02227  0  4.050397  0  0  -0.027126  0  4.070621  0  0  -0.017899  -0.019303  0  4.036943  0
C  C61  1  0.32480838  0.04098066  0.90608088  1  0  -0.047721  0  3.815567  0  0  -0.022369  0  4.050076  0  0  -0.027236  0  4.070322  0  0  -0.017921  -0.019402  0  4.036619  0
C  C62  1  0.82481487  0.04095439  0.59393550  1  0  -0.047662  0  3.815751  0  0  -0.02246  0  4.05038  0  0  -0.027317  0  4.070609  0  0  -0.017977  -0.01949  0  4.036924  0
C  C63  1  0.17516429  0.54094605  0.40605059  1  0  -0.047838  0  3.815857  0  0  -0.022633  0  4.050522  0  0  -0.027493  0  4.070757  0  0  -0.018078  -0.019668  0  4.037068  0
C  C64  1  0.77708143  0.62495200  0.14963474  1  0  0.675558  0  3.890501  0  0  0.629901  0  4.174705  0  0  0.664608  0  4.165377  0  0  0.220395  0.606281  0  4.180286  0
C  C65  1  0.22294660  0.12499083  0.85036820  1  0  0.675636  0  3.890324  0  0  0.62974  0  4.174861  0  0  0.664447  0  4.165553  0  0  0.220411  0.606119  0  4.180432  0
C  C66  1  0.72294161  0.12496773  0.64963326  1  0  0.67575  0  3.890189  0  0  0.629964  0  4.174581  0  0  0.664669  0  4.165273  0  0  0.220486  0.606341  0  4.18016  0
C  C67  1  0.27705042  0.62495716  0.35035319  1  0  0.675826  0  3.890164  0  0  0.630059  0  4.174542  0  0  0.664767  0  4.165222  0  0  0.220495  0.606439  0  4.18012  0
C  C68  1  0.49036532  0.52817113  0.09894584  1  0  -0.186747  0  3.663584  0  0  -0.215977  0  3.912602  0  0  -0.218574  0  3.929859  0  0  -0.087152  -0.214001  0  3.901025  0
C  C69  1  0.50963832  0.02818842  0.90107444  1  0  -0.18651  0  3.663524  0  0  -0.215826  0  3.912555  0  0  -0.218424  0  3.92983  0  0  -0.087099  -0.213848  0  3.900966  0
C  C70  1  0.00964895  0.02818065  0.59894350  1  0  -0.186442  0  3.66325  0  0  -0.215669  0  3.912246  0  0  -0.218266  0  3.929507  0  0  -0.08698  -0.213693  0  3.900663  0
C  C71  1  0.99033602  0.52816544  0.40104000  1  0  -0.186613  0  3.663371  0  0  -0.215784  0  3.912381  0  0  -0.218382  0  3.929629  0  0  -0.087073  -0.213811  0  3.900811  0
C  C72  1  0.40021516  0.44635254  0.04558575  1  0  0.30725  0  3.865114  0  0  0.304603  0  4.118122  0  0  0.313532  0  4.13836  0  0  0.096668  0.298276  0  4.104315  0
C  C73  1  0.59979152  0.94636315  0.95443317  1  0  0.307111  0  3.865458  0  0  0.30449  0  4.118472  0  0  0.313418  0  4.13871  0  0  0.096619  0.298164  0  4.104661  0
C  C74  1  0.09979511  0.94635671  0.54558166  1  0  0.307237  0  3.865095  0  0  0.304593  0  4.118124  0  0  0.313523  0  4.13836  0  0  0.096679  0.298265  0  4.10432  0
C  C75  1  0.90018758  0.44635807  0.45440618  1  0  0.307361  0  3.864989  0  0  0.304593  0  4.1182  0  0  0.313526  0  4.138435  0  0  0.096616  0.298264  0  4.104395  0
C  C76  1  0.49928034  0.38237653  0.98415161  1  0  -0.188981  0  3.651489  0  0  -0.214371  0  3.897363  0  0  -0.216575  0  3.913032  0  0  -0.088447  -0.212666  0  3.886884  0
C  C77  1  0.50069674  0.88238526  0.01586005  1  0  -0.188949  0  3.651846  0  0  -0.214362  0  3.897665  0  0  -0.216565  0  3.913333  0  0  -0.088405  -0.21266  0  3.887189  0
C  C78  1  0.00071737  0.88238798  0.48414570  1  0  -0.189108  0  3.651499  0  0  -0.214563  0  3.897396  0  0  -0.216761  0  3.913055  0  0  -0.088483  -0.21286  0  3.886921  0
C  C79  1  0.99928237  0.38239086  0.51583996  1  0  -0.188892  0  3.651155  0  0  -0.214288  0  3.897148  0  0  -0.216489  0  3.912815  0  0  -0.088405  -0.212588  0  3.886669  0
C  C80  1  0.68413640  0.39792037  0.97867910  1  0  -0.056717  0  3.81407  0  0  -0.033584  0  4.051682  0  0  -0.038785  0  4.072215  0  0  -0.020255  -0.030311  0  4.037894  0
C  C81  1  0.31584143  0.89793323  0.02131677  1  0  -0.056528  0  3.814418  0  0  -0.03341  0  4.052083  0  0  -0.038607  0  4.072612  0  0  -0.020233  -0.030139  0  4.038298  0
C  C82  1  0.81586056  0.89792551  0.47868045  1  0  -0.056736  0  3.814207  0  0  -0.033564  0  4.051801  0  0  -0.038766  0  4.072327  0  0  -0.020232  -0.030292  0  4.038018  0
C  C83  1  0.18414393  0.39793078  0.52130591  1  0  -0.056699  0  3.814038  0  0  -0.033513  0  4.051674  0  0  -0.038716  0  4.072205  0  0  -0.020173  -0.030236  0  4.037882  0
C  C84  1  0.77177673  0.47506675  0.03446697  1  0  -0.12929  0  3.777611  0  0  -0.169716  0  4.032145  0  0  -0.170039  0  4.051694  0  0  -0.101081  -0.16929  0  4.019019  0
C  C85  1  0.22821554  0.97509371  0.96553812  1  0  -0.129493  0  3.778076  0  0  -0.170043  0  4.032559  0  0  -0.170361  0  4.05211  0  0  -0.101305  -0.169611  0  4.019426  0
C  C86  1  0.72821998  0.97507770  0.53446581  1  0  -0.129239  0  3.778078  0  0  -0.16974  0  4.032538  0  0  -0.17006  0  4.052083  0  0  -0.101148  -0.169308  0  4.019404  0
C  C87  1  0.27176430  0.47508187  0.46552215  1  0  -0.129217  0  3.778213  0  0  -0.169774  0  4.032725  0  0  -0.170099  0  4.052289  0  0  -0.101162  -0.169343  0  4.019581  0
C  C88  1  0.96442567  0.10808780  0.26587785  1  0  0.599147  0  3.761676  0  0  0.557715  0  4.044235  0  0  0.588404  0  4.042394  0  0  0.254383  0.536934  0  4.044898  0
C  C89  1  0.03563232  0.60811159  0.73411550  1  0  0.59965  0  3.761096  0  0  0.557994  0  4.044  0  0  0.588688  0  4.042156  0  0  0.254521  0.53721  0  4.044659  0
C  C90  1  0.53560863  0.60810744  0.76588244  1  0  0.599739  0  3.76117  0  0  0.558057  0  4.044099  0  0  0.588756  0  4.042253  0  0  0.254472  0.537271  0  4.044766  0
C  C91  1  0.46438002  0.10809824  0.23412613  1  0  0.599685  0  3.761416  0  0  0.558142  0  4.04423  0  0  0.588845  0  4.042375  0  0  0.254469  0.53735  0  4.044905  0
C  C92  1  0.79451712  0.34174497  0.91040345  1  0  0.668165  0  3.897498  0  0  0.623258  0  4.182408  0  0  0.657777  0  4.173478  0  0  0.216507  0.599789  0  4.187708  0
C  C93  1  0.20545081  0.84175044  0.08959599  1  0  0.668213  0  3.897376  0  0  0.623306  0  4.182319  0  0  0.657826  0  4.17338  0  0  0.216669  0.599833  0  4.187628  0
C  C94  1  0.70546471  0.84173675  0.41040844  1  0  0.668177  0  3.897303  0  0  0.623298  0  4.182176  0  0  0.657818  0  4.17324  0  0  0.216641  0.599829  0  4.187481  0
C  C95  1  0.29452988  0.34174699  0.58958720  1  0  0.668238  0  3.897175  0  0  0.623339  0  4.182073  0  0  0.657856  0  4.173148  0  0  0.216609  0.599865  0  4.187373  0
C  C96  1  0.94988559  0.14953359  0.35657292  1  0  -0.441247  0  3.665049  0  0  -0.518572  0  3.900018  0  0  -0.524776  0  3.903277  0  0  -0.239706  -0.514107  0  3.89771  0
C  C97  1  0.05015752  0.64954828  0.64341871  1  0  -0.441375  0  3.664485  0  0  -0.518434  0  3.899553  0  0  -0.524627  0  3.90281  0  0  -0.239683  -0.51397  0  3.89725  0
C  C98  1  0.55013101  0.64954042  0.85658087  1  0  -0.441448  0  3.664718  0  0  -0.518554  0  3.899778  0  0  -0.524759  0  3.903036  0  0  -0.239685  -0.51409  0  3.897481  0
C  C99  1  0.44986943  0.14954235  0.14342916  1  0  -0.441337  0  3.664743  0  0  -0.518453  0  3.899731  0  0  -0.524651  0  3.902969  0  0  -0.239679  -0.513989  0  3.897433  0
C  C100  1  0.87839184  0.31173525  0.21857498  1  0  -0.172819  0  3.655433  0  0  -0.27399  0  3.903534  0  0  -0.27076  0  3.915236  0  0  -0.137812  -0.275841  0  3.895564  0
C  C101  1  0.12160520  0.81174451  0.78142624  1  0  -0.173036  0  3.65532  0  0  -0.274211  0  3.903405  0  0  -0.270979  0  3.915098  0  0  -0.137857  -0.27606  0  3.895438  0
C  C102  1  0.62159081  0.81174982  0.71857878  1  0  -0.173307  0  3.655503  0  0  -0.274335  0  3.90368  0  0  -0.271099  0  3.915363  0  0  -0.1379  -0.276187  0  3.895715  0
C  C103  1  0.37839823  0.31174879  0.28142624  1  0  -0.173256  0  3.655789  0  0  -0.274372  0  3.903935  0  0  -0.271137  0  3.91563  0  0  -0.137916  -0.276227  0  3.895964  0
C  C104  1  0.94172900  0.15123038  0.11465255  1  0  -0.170801  0  3.643376  0  0  -0.271283  0  3.892439  0  0  -0.267021  0  3.901461  0  0  -0.137074  -0.273811  0  3.886428  0
C  C105  1  0.05828471  0.65122817  0.88534226  1  0  -0.170689  0  3.642809  0  0  -0.271116  0  3.891772  0  0  -0.266866  0  3.900776  0  0  -0.136997  -0.273647  0  3.88577  0
C  C106  1  0.55830039  0.65123168  0.61466060  1  0  -0.170438  0  3.642865  0  0  -0.270939  0  3.891762  0  0  -0.266646  0  3.900792  0  0  -0.137009  -0.273479  0  3.885751  0
C  C107  1  0.44171599  0.15123584  0.38534816  1  0  -0.170642  0  3.643118  0  0  -0.271068  0  3.892195  0  0  -0.266798  0  3.901211  0  0  -0.137022  -0.273606  0  3.886187  0
N  N108  1  0.21947011  0.42788246  0.05550463  1  0  -0.68229  0  3.106137  0  0  -0.647243  0  3.336308  0  0  -0.666921  0  3.335281  0  0  -0.598202  -0.63323  0  3.336876  0
N  N109  1  0.78052793  0.92788809  0.94451548  1  0  -0.682288  0  3.106073  0  0  -0.647312  0  3.336179  0  0  -0.666985  0  3.335155  0  0  -0.598328  -0.633301  0  3.336745  0
N  N110  1  0.28053608  0.92786917  0.55550415  1  0  -0.682322  0  3.106132  0  0  -0.647321  0  3.336271  0  0  -0.666999  0  3.335246  0  0  -0.598267  -0.633309  0  3.336836  0
N  N111  1  0.71944996  0.42788522  0.44448551  1  0  -0.682158  0  3.106342  0  0  -0.647131  0  3.336485  0  0  -0.666805  0  3.335458  0  0  -0.598179  -0.633119  0  3.337046  0
N  N112  1  0.92963439  0.18740160  0.20344186  1  0  -0.146611  0  3.43551  0  0  -0.045275  0  3.665559  0  0  -0.066608  0  3.688984  0  0  -0.279725  -0.031058  0  3.649428  0
N  N113  1  0.07039664  0.68740021  0.79655057  1  0  -0.146725  0  3.435541  0  0  -0.045412  0  3.665817  0  0  -0.066746  0  3.689244  0  0  -0.279709  -0.031188  0  3.649672  0
N  N114  1  0.57039472  0.68740897  0.70345071  1  0  -0.146918  0  3.435489  0  0  -0.045522  0  3.665672  0  0  -0.066851  0  3.689073  0  0  -0.279725  -0.031299  0  3.649537  0
N  N115  1  0.42959364  0.18740719  0.29655695  1  0  -0.146611  0  3.435382  0  0  -0.045551  0  3.665859  0  0  -0.066894  0  3.689283  0  0  -0.279652  -0.031307  0  3.649692  0
O  O116  1  0.93758199  0.60064904  0.16863307  1  0  -0.664764  0  1.898225  0  0  -0.611512  0  2.120754  0  0  -0.63647  0  2.110993  0  0  -0.348591  -0.593956  0  2.126885  0
O  O117  1  0.06246162  0.10066713  0.83135138  1  0  -0.664846  0  1.897874  0  0  -0.611519  0  2.120548  0  0  -0.636467  0  2.110764  0  0  -0.348688  -0.593953  0  2.126667  0
O  O118  1  0.56245104  0.10065586  0.66864219  1  0  -0.664916  0  1.897938  0  0  -0.61163  0  2.120573  0  0  -0.636595  0  2.110799  0  0  -0.348768  -0.594071  0  2.126697  0
O  O119  1  0.43753789  0.60063519  0.33134226  1  0  -0.664916  0  1.897992  0  0  -0.611617  0  2.120608  0  0  -0.636562  0  2.110799  0  0  -0.348699  -0.594057  0  2.126736  0
O  O120  1  0.70052004  0.72196560  0.17509932  1  0  -0.767525  0  2.009367  0  0  -0.701552  0  2.259278  0  0  -0.730946  0  2.246678  0  0  -0.41371  -0.680436  0  2.267055  0
O  O121  1  0.29948836  0.22199842  0.82491102  1  0  -0.767327  0  2.009769  0  0  -0.701252  0  2.25973  0  0  -0.730655  0  2.247149  0  0  -0.413548  -0.680133  0  2.267498  0
O  O122  1  0.79948349  0.22198540  0.67509122  1  0  -0.767488  0  2.009622  0  0  -0.701343  0  2.259447  0  0  -0.730744  0  2.246863  0  0  -0.413597  -0.680221  0  2.267224  0
O  O123  1  0.20051557  0.72198131  0.32490516  1  0  -0.767513  0  2.009713  0  0  -0.701472  0  2.259639  0  0  -0.730867  0  2.247048  0  0  -0.413653  -0.680352  0  2.267409  0
O  O124  1  0.71831037  0.29993664  0.84374699  1  0  -0.764692  0  2.013622  0  0  -0.703562  0  2.268221  0  0  -0.732938  0  2.256935  0  0  -0.402451  -0.682517  0  2.275066  0
O  O125  1  0.28165912  0.79993419  0.15625481  1  0  -0.764812  0  2.013706  0  0  -0.70369  0  2.268336  0  0  -0.733062  0  2.257045  0  0  -0.40257  -0.682641  0  2.275183  0
O  O126  1  0.78165721  0.79992622  0.34374853  1  0  -0.764802  0  2.013698  0  0  -0.703657  0  2.268235  0  0  -0.733044  0  2.256991  0  0  -0.4026  -0.682605  0  2.275063  0
O  O127  1  0.21833761  0.29994462  0.65625581  1  0  -0.764861  0  2.013489  0  0  -0.703684  0  2.267999  0  0  -0.733054  0  2.256706  0  0  -0.40255  -0.682658  0  2.274906  0
O  O128  1  0.00856742  0.00154172  0.24931447  1  0  -0.665989  0  1.964886  0  0  -0.612369  0  2.20891  0  0  -0.637908  0  2.199211  0  0  -0.363906  -0.594295  0  2.214979  0
O  O129  1  0.99148121  0.50154386  0.75067272  1  0  -0.66637  0  1.964397  0  0  -0.612643  0  2.208495  0  0  -0.638197  0  2.1988  0  0  -0.364015  -0.594555  0  2.214565  0
O  O130  1  0.49147510  0.50154276  0.74931547  1  0  -0.66625  0  1.964524  0  0  -0.612562  0  2.208702  0  0  -0.638131  0  2.199004  0  0  -0.363935  -0.594484  0  2.214772  0
O  O131  1  0.50851887  0.00154372  0.25068948  1  0  -0.666381  0  1.964852  0  0  -0.612629  0  2.20887  0  0  -0.638186  0  2.19916  0  0  -0.363987  -0.594551  0  2.21495  0
O  O132  1  0.96364922  0.34208634  0.91772824  1  0  -0.676869  0  1.947828  0  0  -0.622227  0  2.174342  0  0  -0.647587  0  2.16507  0  0  -0.350119  -0.604342  0  2.180034  0
O  O133  1  0.03632403  0.84208387  0.08225915  1  0  -0.676745  0  1.947913  0  0  -0.622143  0  2.174443  0  0  -0.647507  0  2.165191  0  0  -0.350085  -0.604263  0  2.180136  0
O  O134  1  0.53633968  0.84207115  0.41774752  1  0  -0.676703  0  1.947612  0  0  -0.62216  0  2.17423  0  0  -0.647517  0  2.164943  0  0  -0.350113  -0.604284  0  2.179928  0
O  O135  1  0.46364690  0.34207214  0.58224684  1  0  -0.676818  0  1.947878  0  0  -0.622228  0  2.174445  0  0  -0.647591  0  2.165156  0  0  -0.350172  -0.604347  0  2.180139  0
