# generated using pymatgen
data_CuH4C5(S2Br)2
_symmetry_space_group_name_H-M   'P 1'
_cell_length_a   9.29615745
_cell_length_b   9.96781790
_cell_length_c   10.96671403
_cell_angle_alpha   89.99989629
_cell_angle_beta   90.00002871
_cell_angle_gamma   99.44937385
_symmetry_Int_Tables_number   1
_chemical_formula_structural   CuH4C5(S2Br)2
_chemical_formula_sum   'Cu4 H16 C20 S16 Br8'
_cell_volume   1002.41329796
_cell_formula_units_Z   4
loop_
 _symmetry_equiv_pos_site_id
 _symmetry_equiv_pos_as_xyz
  1  'x, y, z'
loop_
 _atom_site_type_symbol
 _atom_site_label
 _atom_site_symmetry_multiplicity
 _atom_site_fract_x
 _atom_site_fract_y
 _atom_site_fract_z
 _atom_site_occupancy
 _atom_site_pbe_bader_spin_density
 _atom_site_pbe_cm5_charge
 _atom_site_pbe_ddec_charge
 _atom_site_pbe_ddec_spin_density
 _atom_site_pbe_ddec_sum_bond_order
 _atom_site_pbe_magmom
Cu  Cu0  1  0.10810660  0.95689589  0.92178073  1  0  0.253031  0.242104  0  2.751107  0
Cu  Cu1  1  0.60810682  0.45689405  0.57821688  1  0  0.253035  0.242071  0  2.751536  0
Cu  Cu2  1  0.89187236  0.04311243  0.07824249  1  0  0.253132  0.242193  0  2.751612  0
Cu  Cu3  1  0.39188406  0.54308897  0.42178537  1  0  0.253031  0.242032  0  2.751581  0
H  H4  1  0.43765594  0.06065668  0.78576646  1  0  0.095132  0.123692  0  0.999493  0
H  H5  1  0.93764952  0.56065185  0.71424634  1  0  0.095112  0.123653  0  0.999501  0
H  H6  1  0.56234456  0.93935182  0.21422667  1  0  0.095122  0.123651  0  0.999418  0
H  H7  1  0.06234566  0.43935051  0.28576229  1  0  0.095129  0.12366  0  0.999473  0
H  H8  1  0.46554541  0.24110503  0.76602100  1  0  0.082821  0.120523  0  1.036585  0
H  H9  1  0.96552959  0.74109504  0.73398217  1  0  0.082804  0.120566  0  1.03658  0
H  H10  1  0.53445663  0.75889333  0.23398489  1  0  0.082811  0.120522  0  1.036435  0
H  H11  1  0.03446020  0.25890728  0.26601278  1  0  0.082787  0.120514  0  1.036631  0
H  H12  1  0.41667380  0.08837164  0.01249014  1  0  0.091539  0.119982  0  1.007684  0
H  H13  1  0.91667006  0.58835860  0.48751386  1  0  0.091636  0.120162  0  1.007596  0
H  H14  1  0.58334655  0.91162686  0.98749569  1  0  0.09161  0.120182  0  1.007662  0
H  H15  1  0.08335149  0.41162773  0.51248747  1  0  0.091552  0.120023  0  1.007671  0
H  H16  1  0.59048544  0.16775203  0.95601503  1  0  0.09561  0.135684  0  0.998813  0
H  H17  1  0.09047317  0.66775291  0.54399794  1  0  0.095627  0.135716  0  0.998846  0
H  H18  1  0.40952811  0.83224439  0.04396989  1  0  0.095641  0.135768  0  0.998816  0
H  H19  1  0.90952659  0.33225762  0.45601889  1  0  0.095645  0.135727  0  0.998888  0
C  C20  1  0.41608258  0.15698444  0.82488107  1  0  -0.154105  -0.166332  0  3.865441  0
C  C21  1  0.91608773  0.65697872  0.67511053  1  0  -0.154052  -0.16638  0  3.865413  0
C  C22  1  0.58389775  0.84301271  0.17510203  1  0  -0.154017  -0.1662  0  3.864908  0
C  C23  1  0.08392004  0.34302172  0.32487986  1  0  -0.154041  -0.166283  0  3.865487  0
C  C24  1  0.47264634  0.16988373  0.95395250  1  0  -0.150452  -0.164904  0  3.867194  0
C  C25  1  0.97263864  0.66988709  0.54603626  1  0  -0.150584  -0.165132  0  3.866999  0
C  C26  1  0.52736075  0.83009334  0.04601145  1  0  -0.150556  -0.165277  0  3.867044  0
C  C27  1  0.02736119  0.33011734  0.45395231  1  0  -0.150496  -0.164975  0  3.867164  0
C  C28  1  0.19218743  0.28122935  0.89816372  1  0  -0.020346  -0.058269  0  4.013626  0
C  C29  1  0.69217491  0.78120928  0.60183880  1  0  -0.020534  -0.058459  0  4.013947  0
C  C30  1  0.80781964  0.71878632  0.10184856  1  0  -0.020493  -0.058408  0  4.013841  0
C  C31  1  0.30781732  0.21878188  0.39815798  1  0  -0.020417  -0.058355  0  4.013624  0
C  C32  1  0.28693512  0.35448385  0.98102521  1  0  -0.011726  -0.056837  0  4.036173  0
C  C33  1  0.78691611  0.85447798  0.51899614  1  0  -0.011688  -0.056754  0  4.036267  0
C  C34  1  0.71309367  0.64553301  0.01898160  1  0  -0.011692  -0.056842  0  4.035912  0
C  C35  1  0.21307192  0.14552025  0.48100519  1  0  -0.011708  -0.05674  0  4.03606  0
C  C36  1  0.05283083  0.46044730  0.98517779  1  0  -0.014589  -0.076441  0  4.048832  0
C  C37  1  0.55282123  0.96043339  0.51482991  1  0  -0.014557  -0.076427  0  4.048454  0
C  C38  1  0.94719831  0.53955230  0.01484361  1  0  -0.014571  -0.076392  0  4.048569  0
C  C39  1  0.44718059  0.03955075  0.48516139  1  0  -0.014575  -0.076374  0  4.048473  0
S  S40  1  0.21966226  0.14165225  0.81384510  1  0  0.009062  0.111067  0  3.461465  0
S  S41  1  0.71966387  0.64164445  0.68614862  1  0  0.009091  0.11112  0  3.461647  0
S  S42  1  0.78033318  0.85837754  0.18615624  1  0  0.008888  0.110926  0  3.461489  0
S  S43  1  0.28034468  0.35836716  0.31383994  1  0  0.008958  0.111073  0  3.461472  0
S  S44  1  0.45872779  0.33037548  0.02684688  1  0  0.051628  0.098123  0  2.945692  0
S  S45  1  0.95870454  0.83038767  0.47314550  1  0  0.051626  0.098121  0  2.945369  0
S  S46  1  0.54128896  0.66958847  0.97314625  1  0  0.051562  0.098154  0  2.945577  0
S  S47  1  0.04127528  0.16960644  0.52684216  1  0  0.051609  0.098056  0  2.945321  0
S  S48  1  0.02216906  0.32860626  0.88237873  1  0  0.133335  0.227157  0  3.040995  0
S  S49  1  0.52215731  0.82860347  0.61763847  1  0  0.133296  0.227158  0  3.040743  0
S  S50  1  0.97783179  0.67140427  0.11763993  1  0  0.133312  0.227154  0  3.041111  0
S  S51  1  0.47783464  0.17139887  0.38237107  1  0  0.133349  0.227163  0  3.041108  0
S  S52  1  0.22311610  0.48883628  0.05036800  1  0  0.13678  0.217064  0  3.121476  0
S  S53  1  0.72309354  0.98882716  0.44963430  1  0  0.136891  0.217132  0  3.121398  0
S  S54  1  0.77691684  0.51116030  0.94964154  1  0  0.136896  0.217113  0  3.120681  0
S  S55  1  0.27690301  0.01116404  0.55034424  1  0  0.136828  0.217082  0  3.12127  0
Br  Br56  1  0.14218105  0.02027760  0.14196036  1  0  -0.279107  -0.397532  0  1.69194  0
Br  Br57  1  0.64218379  0.52026060  0.35803870  1  0  -0.279095  -0.397525  0  1.69207  0
Br  Br58  1  0.85780809  0.97977244  0.85804462  1  0  -0.279133  -0.397575  0  1.691861  0
Br  Br59  1  0.35779812  0.47973962  0.64197631  1  0  -0.279072  -0.397534  0  1.691784  0
Br  Br60  1  0.23140082  0.78612595  0.84208608  1  0  -0.318577  -0.47505  0  1.517248  0
Br  Br61  1  0.73137462  0.28613199  0.65790908  1  0  -0.318589  -0.475006  0  1.517513  0
Br  Br62  1  0.76859277  0.21387335  0.15793167  1  0  -0.318578  -0.475083  0  1.517512  0
Br  Br63  1  0.26858276  0.71384365  0.34209226  1  0  -0.318568  -0.475004  0  1.517352  0
