# generated using pymatgen
data_CoH62C56N2(ClO3)2
_symmetry_space_group_name_H-M   'P 1'
_cell_length_a   9.05920639
_cell_length_b   13.53463675
_cell_length_c   23.95899841
_cell_angle_alpha   91.42889274
_cell_angle_beta   98.01926157
_cell_angle_gamma   95.33360501
_symmetry_Int_Tables_number   1
_chemical_formula_structural   CoH62C56N2(ClO3)2
_chemical_formula_sum   'Co2 H124 C112 N4 Cl4 O12'
_cell_volume   2894.22333929
_cell_formula_units_Z   2
loop_
 _symmetry_equiv_pos_site_id
 _symmetry_equiv_pos_as_xyz
  1  'x, y, z'
loop_
 _atom_site_type_symbol
 _atom_site_label
 _atom_site_symmetry_multiplicity
 _atom_site_fract_x
 _atom_site_fract_y
 _atom_site_fract_z
 _atom_site_occupancy
 _atom_site_pbe_bader_charge
 _atom_site_pbe_bader_spin_density
 _atom_site_pbe_cm5_charge
 _atom_site_pbe_ddec_charge
 _atom_site_pbe_ddec_spin_density
 _atom_site_pbe_ddec_sum_bond_order
 _atom_site_pbe_magmom
Co  Co0  1  0.03048022  0.79637559  0.20668036  1  1.057983  2.469517  0.541867  0.612175  2.771906  2.990629  2.404
Co  Co1  1  0.96952139  0.20362245  0.79332035  1  1.058036  -2.469506  0.541878  0.61219  -2.771901  2.990533  -2.404
H  H2  1  0.00661920  0.11971229  0.41631310  1  0.609276  -1e-06  0.306022  0.332196  -2e-06  0.96172  0.0
H  H3  1  0.99340026  0.88028583  0.58368893  1  0.60882  1e-06  0.306069  0.332237  2e-06  0.961579  0.0
H  H4  1  0.72675538  0.65749221  0.99790462  1  0.608598  -2.1e-05  0.315887  0.34314  -2.7e-05  0.934035  0.0
H  H5  1  0.27326366  0.34251110  0.00209790  1  0.60871  2.1e-05  0.315883  0.343136  2.7e-05  0.934087  0.0
H  H6  1  0.13532487  0.88763240  0.32233483  1  0.125177  0.00234  0.118017  0.08794  0.000931  1.022061  0.001
H  H7  1  0.86467325  0.11236492  0.67766277  1  0.125387  -0.002341  0.118041  0.087978  -0.000931  1.022068  -0.001
H  H8  1  0.02274582  0.91150970  0.41061049  1  0.148843  0.000864  0.113937  0.118406  0.000377  1.030047  0.001
H  H9  1  0.97725937  0.08849881  0.58938643  1  0.148818  -0.000864  0.113992  0.11843  -0.000377  1.030003  -0.001
H  H10  1  0.60347081  0.77439522  0.32162951  1  0.118362  0.001136  0.122459  0.136491  0.00058  0.9891  0.0
H  H11  1  0.39652806  0.22561538  0.67837380  1  0.118382  -0.001136  0.122481  0.136551  -0.00058  0.989012  0.0
H  H12  1  0.72994545  0.76129518  0.23603044  1  0.115356  0.002595  0.119913  0.082842  0.001134  1.027537  0.002
H  H13  1  0.27004709  0.23869311  0.76397253  1  0.115481  -0.002595  0.119962  0.083001  -0.001134  1.027476  -0.002
H  H14  1  0.59245915  0.07258203  0.59629515  1  0.080002  5e-06  0.102184  0.110854  1.1e-05  1.038606  0.0
H  H15  1  0.40753798  0.92741600  0.40370408  1  0.07992  -5e-06  0.102145  0.110796  -1.1e-05  1.038694  0.0
H  H16  1  0.72905418  0.78241406  0.63382183  1  0.044656  -3e-06  0.102262  0.105645  -1e-06  1.014348  0.0
H  H17  1  0.27092442  0.21757866  0.36617760  1  0.044538  3e-06  0.10227  0.105697  1e-06  1.014446  0.0
H  H18  1  0.74143681  0.69298680  0.51093695  1  0.07019  -4e-06  0.105256  0.120891  -3e-06  0.96555  0.0
H  H19  1  0.25857303  0.30701421  0.48906632  1  0.070062  4e-06  0.10525  0.120884  3e-06  0.965474  0.0
H  H20  1  0.85229126  0.69965338  0.57740663  1  0.045164  -6e-06  0.099227  0.104449  -2e-06  1.00227  0.0
H  H21  1  0.14771757  0.30034022  0.42259560  1  0.045219  6e-06  0.099138  0.104306  2e-06  1.002399  0.0
H  H22  1  0.41472442  0.02662080  0.65041048  1  0.006304  3.4e-05  0.078896  0.104688  4.5e-05  1.046587  0.0
H  H23  1  0.58525209  0.97337346  0.34958428  1  0.006641  -3.4e-05  0.078875  0.104587  -4.5e-05  1.046789  0.0
H  H24  1  0.58284056  0.08886221  0.68850888  1  0.035473  -0.000488  0.075294  0.113079  -0.000164  1.051253  0.0
H  H25  1  0.41713730  0.91113348  0.31148974  1  0.035435  0.000488  0.075394  0.113152  0.000164  1.05108  0.0
H  H26  1  0.45565421  0.01761104  0.72440601  1  0.024974  -7e-06  0.086543  0.12294  1e-05  1.027239  0.0
H  H27  1  0.54432089  0.98238098  0.27558906  1  0.02475  7e-06  0.086552  0.122933  -1e-05  1.027127  0.0
H  H28  1  0.76244144  0.85045237  0.72444588  1  0.001024  2e-06  0.083327  0.113635  5e-06  1.015015  0.0
H  H29  1  0.23755111  0.14955306  0.27555325  1  0.000875  -2e-06  0.083336  0.113619  -5e-06  1.015069  0.0
H  H30  1  0.65384545  0.91401889  0.76729917  1  0.00552  -1.3e-05  0.088826  0.127339  1.3e-05  1.004172  0.0
H  H31  1  0.34613758  0.08598203  0.23269981  1  0.005469  1.3e-05  0.088823  0.127416  -1.3e-05  1.004195  0.0
H  H32  1  0.78944081  0.98194059  0.73339286  1  0.040518  -0.00014  0.08107  0.11164  -0.000146  1.039613  0.0
H  H33  1  0.21053611  0.01806477  0.26660423  1  0.04019  0.00014  0.08108  0.111625  0.000146  1.039704  0.0
H  H34  1  0.37252573  0.84441652  0.63872495  1  0.032723  -4e-06  0.086061  0.128108  -1e-06  1.011367  0.0
H  H35  1  0.62746278  0.15557555  0.36127289  1  0.032821  4e-06  0.086102  0.128146  1e-06  1.011345  0.0
H  H36  1  0.41349397  0.83429719  0.71304166  1  0.020252  -0.0  0.085965  0.11894  3e-06  0.999397  0.0
H  H37  1  0.58649442  0.16569416  0.28695449  1  0.020231  0.0  0.08593  0.118884  -3e-06  0.999335  0.0
H  H38  1  0.50976551  0.76688984  0.66734278  1  0.010925  -1.5e-05  0.082297  0.110156  -7e-06  1.046293  0.0
H  H39  1  0.49022441  0.23310446  0.33265517  1  0.011245  1.5e-05  0.082264  0.110085  7e-06  1.046327  0.0
H  H40  1  0.66201549  0.05717956  0.44860542  1  0.050394  1e-06  0.098289  0.106369  -2e-06  1.015672  0.0
H  H41  1  0.33799739  0.94281112  0.55139529  1  0.050362  -1e-06  0.098301  0.106333  2e-06  1.015717  0.0
H  H42  1  0.56026810  0.11254219  0.49686606  1  0.081846  4e-06  0.098009  0.107102  2e-06  1.013896  0.0
H  H43  1  0.43974163  0.88744996  0.50313452  1  0.081825  -4e-06  0.097961  0.107045  -2e-06  1.01387  0.0
H  H44  1  0.68020152  0.23619593  0.56749200  1  0.07781  7e-06  0.099851  0.112811  1e-05  1.038872  0.0
H  H45  1  0.31979425  0.76380067  0.43250337  1  0.077765  -7e-06  0.099896  0.11293  -1e-05  1.038756  0.0
H  H46  1  0.11262712  0.37852319  0.54599408  1  0.048717  2e-06  0.096882  0.097768  2e-06  1.020358  0.0
H  H47  1  0.88737625  0.62147112  0.45400873  1  0.048712  -2e-06  0.096904  0.097758  -2e-06  1.020308  0.0
H  H48  1  0.96660264  0.52289352  0.55799921  1  0.034504  -2.1e-05  0.084775  0.119182  -9e-06  1.014174  0.0
H  H49  1  0.03337751  0.47710299  0.44199578  1  0.035058  2.1e-05  0.084828  0.119238  9e-06  1.014187  0.0
H  H50  1  0.85614353  0.55805605  0.60979056  1  0.01456  -1e-06  0.082178  0.109566  1e-06  1.020432  0.0
H  H51  1  0.14383877  0.44193971  0.39020578  1  0.014627  1e-06  0.082179  0.10954  -1e-06  1.020451  0.0
H  H52  1  0.76842483  0.49652330  0.54544765  1  0.007861  -2e-06  0.084699  0.116501  1e-06  1.000453  0.0
H  H53  1  0.23155863  0.50346427  0.45455068  1  0.008324  2e-06  0.084664  0.116465  -1e-06  1.000462  0.0
H  H54  1  0.12263744  0.42665325  0.63406052  1  0.012152  -4e-06  0.081613  0.109389  5e-06  1.025316  0.0
H  H55  1  0.87735724  0.57335145  0.36593871  1  0.01214  4e-06  0.081556  0.109358  -5e-06  1.025316  0.0
H  H56  1  0.02738367  0.34182174  0.67534002  1  0.048707  -8.4e-05  0.079349  0.110671  2.7e-05  1.053766  0.0
H  H57  1  0.97261934  0.65817855  0.32465997  1  0.048744  8.4e-05  0.079341  0.110672  -2.7e-05  1.053781  0.0
H  H58  1  0.01076780  0.47103055  0.68252066  1  0.006539  3e-05  0.083579  0.114765  3e-05  1.010319  0.0
H  H59  1  0.98922975  0.52897043  0.31748031  1  0.006586  -3e-05  0.083555  0.114727  -3e-05  1.010359  0.0
H  H60  1  0.63626707  0.37439562  0.60611677  1  0.02607  -1.9e-05  0.085214  0.121055  -3e-06  1.004834  0.0
H  H61  1  0.36372948  0.62559794  0.39388359  1  0.026334  1.9e-05  0.085219  0.121069  3e-06  1.004812  0.0
H  H62  1  0.73713478  0.43722557  0.66743341  1  0.010305  -2.7e-05  0.08264  0.112846  4e-06  1.041049  0.0
H  H63  1  0.26286087  0.56276944  0.33256818  1  0.010227  2.7e-05  0.082656  0.112832  -4e-06  1.041053  0.0
H  H64  1  0.74284513  0.30771783  0.65795312  1  0.017573  -0.000376  0.076942  0.113296  -0.000126  1.041976  0.0
H  H65  1  0.25715384  0.69227722  0.34204781  1  0.017714  0.000376  0.076972  0.113354  0.000126  1.041964  0.0
H  H66  1  0.10131190  0.58893556  0.20858084  1  0.116967  0.00278  0.116143  0.088309  0.001119  1.018617  0.001
H  H67  1  0.89869757  0.41106331  0.79141694  1  0.117012  -0.002781  0.116184  0.088357  -0.001119  1.018593  -0.001
H  H68  1  0.99465980  0.42630563  0.15909349  1  0.123051  0.001021  0.122502  0.134087  0.000461  0.973362  0.001
H  H69  1  0.00534622  0.57369249  0.84090410  1  0.123095  -0.001021  0.12246  0.134102  -0.000461  0.973249  -0.001
H  H70  1  0.62436686  0.57680454  0.08091104  1  0.133373  0.000851  0.115503  0.119315  0.000377  1.025945  0.0
H  H71  1  0.37564634  0.42319736  0.91908532  1  0.13326  -0.000851  0.115507  0.119363  -0.000377  1.025851  0.0
H  H72  1  0.74638982  0.73311576  0.13135931  1  0.1283  0.002634  0.116522  0.086704  0.001137  1.027613  0.002
H  H73  1  0.25362210  0.26688461  0.86863946  1  0.12825  -0.002634  0.116516  0.086709  -0.001136  1.027629  -0.002
H  H74  1  0.35588555  0.11588934  0.98878660  1  0.066515  -3.9e-05  0.102044  0.106236  -1.4e-05  1.036097  0.0
H  H75  1  0.64411873  0.88411162  0.01121764  1  0.06656  3.9e-05  0.102064  0.106296  1.4e-05  1.036098  0.0
H  H76  1  0.66046495  0.22827876  0.87741706  1  0.092083  -3e-06  0.093824  0.100789  9.3e-05  1.052835  0.0
H  H77  1  0.33952982  0.77172669  0.12258177  1  0.092059  3e-06  0.093801  0.100747  -9.3e-05  1.052877  0.0
H  H78  1  0.31200984  0.20696956  0.06438604  1  0.050517  9e-06  0.104839  0.115091  8e-06  0.960325  0.0
H  H79  1  0.68799391  0.79302774  0.93561559  1  0.05045  -9e-06  0.104847  0.115151  -8e-06  0.960379  0.0
H  H80  1  0.49448588  0.21505031  0.10106515  1  0.069347  -5e-06  0.105628  0.11754  -1e-05  0.986812  0.0
H  H81  1  0.50552523  0.78495226  0.89893404  1  0.069386  5e-06  0.105634  0.117598  1e-05  0.98674  0.0
H  H82  1  0.29576975  0.11683228  0.83207933  1  0.004609  -0.000444  0.070068  0.099229  -0.000195  1.083047  0.0
H  H83  1  0.70421625  0.88317379  0.16792324  1  0.004671  0.000443  0.0701  0.09932  0.000194  1.08309  0.0
H  H84  1  0.38399940  0.01901816  0.80489814  1  0.023887  -3.7e-05  0.083899  0.11857  2.2e-05  1.009884  0.0
H  H85  1  0.61599179  0.98099397  0.19509898  1  0.023011  3.7e-05  0.083929  0.118589  -2.2e-05  1.01003  0.0
H  H86  1  0.48048014  0.14025233  0.81261256  1  0.034445  -0.000754  0.075165  0.115249  -0.000406  1.045205  0.0
H  H87  1  0.51950154  0.85976341  0.18738706  1  0.034028  0.000754  0.075201  0.115312  0.000406  1.045254  0.0
H  H88  1  0.40697275  0.96318496  0.95689958  1  0.003496  -0.000165  0.081923  0.114976  -4.8e-05  1.032523  0.0
H  H89  1  0.59305435  0.03681256  0.04309739  1  0.003427  0.000165  0.081931  0.115036  4.8e-05  1.032605  0.0
H  H90  1  0.34092908  0.91998075  0.88669357  1  0.043058  -2.4e-05  0.086361  0.124783  3e-06  0.999451  0.0
H  H91  1  0.65909692  0.08001675  0.11330418  1  0.04296  2.4e-05  0.086327  0.124754  -3e-06  0.999472  0.0
H  H92  1  0.25303761  0.01489015  0.91689618  1  0.068074  -0.001276  0.078471  0.125541  -0.000746  1.027542  0.0
H  H93  1  0.74697274  0.98509828  0.08310520  1  0.067892  0.001277  0.078445  0.12551  0.000746  1.027489  0.0
H  H94  1  0.67420529  0.00130722  0.93159499  1  0.007502  -9.6e-05  0.083785  0.118936  -6.7e-05  1.006526  0.0
H  H95  1  0.32581487  0.99871414  0.06839417  1  0.008161  9.6e-05  0.083731  0.11875  6.7e-05  1.006593  0.0
H  H96  1  0.70081585  0.06606432  0.86978581  1  0.04739  -0.000281  0.076949  0.118354  2.1e-05  1.054389  0.0
H  H97  1  0.29917560  0.93395913  0.13020068  1  0.047987  0.000281  0.07703  0.118417  -2e-05  1.05442  0.0
H  H98  1  0.59873734  0.94717743  0.86394115  1  0.010161  -1.4e-05  0.080841  0.108477  -0.0  1.024379  0.0
H  H99  1  0.40127556  0.05283938  0.13605047  1  0.012211  1.4e-05  0.080828  0.108446  0.0  1.024443  0.0
H  H100  1  0.83951777  0.43230866  0.97264925  1  0.063525  -6e-06  0.101034  0.115072  -8e-06  0.985037  0.0
H  H101  1  0.16048730  0.56769011  0.02735331  1  0.063575  6e-06  0.101045  0.115112  8e-06  0.98502  0.0
H  H102  1  0.83617601  0.36589443  0.90788799  1  0.048853  7.4e-05  0.095827  0.102611  7.7e-05  0.993791  0.0
H  H103  1  0.16382255  0.63410581  0.09211260  1  0.048845  -7.4e-05  0.095821  0.10261  -7.7e-05  0.993801  0.0
H  H104  1  0.63563793  0.39403216  0.82695009  1  0.067938  -0.00025  0.090598  0.098348  -7.2e-05  1.060547  0.0
H  H105  1  0.36436027  0.60596506  0.17305377  1  0.067927  0.00025  0.090579  0.098361  7.2e-05  1.06053  0.0
H  H106  1  0.47754895  0.68455510  0.82327965  1  0.007707  -3e-06  0.096669  0.097829  1e-06  1.026256  0.0
H  H107  1  0.52245046  0.31544287  0.17672428  1  0.007639  3e-06  0.096659  0.09789  -1e-06  1.026218  0.0
H  H108  1  0.25433458  0.51258718  0.76138997  1  0.02563  4.3e-05  0.078343  0.109897  7.6e-05  1.036857  0.0
H  H109  1  0.74565939  0.48742047  0.23860970  1  0.025888  -4.3e-05  0.078337  0.109913  -7.6e-05  1.036878  0.0
H  H110  1  0.29537051  0.55093174  0.69439543  1  -0.007764  -1e-06  0.084449  0.116048  1e-06  1.012385  0.0
H  H111  1  0.70463342  0.44907521  0.30560599  1  -0.007826  1e-06  0.084442  0.116045  -1e-06  1.012421  0.0
H  H112  1  0.32883653  0.63650468  0.75297807  1  0.023908  -6.8e-05  0.084772  0.115641  -3e-05  1.019923  0.0
H  H113  1  0.67116740  0.36350226  0.24702376  1  0.024007  6.8e-05  0.084786  0.115667  3e-05  1.020054  0.0
H  H114  1  0.41260129  0.36934003  0.75626004  1  -0.002165  -0.000101  0.079484  0.106177  -2.4e-05  1.039308  0.0
H  H115  1  0.58738293  0.63066080  0.24374485  1  -0.002155  0.000101  0.079513  0.106275  2.4e-05  1.039336  0.0
H  H116  1  0.59418625  0.38746437  0.73665899  1  0.036448  -0.001136  0.077115  0.116758  -0.000641  1.057312  0.0
H  H117  1  0.40580151  0.61252982  0.26334469  1  0.036375  0.001136  0.077078  0.116739  0.000641  1.057383  0.0
H  H118  1  0.43623443  0.40881693  0.68749986  1  0.015017  -5.1e-05  0.085198  0.11889  1.1e-05  1.005004  0.0
H  H119  1  0.56375271  0.59118097  0.31250345  1  0.014924  5.1e-05  0.08519  0.118945  -1.1e-05  1.005048  0.0
H  H120  1  0.56268695  0.58235323  0.67522450  1  0.036488  -1e-06  0.084102  0.115762  5e-06  1.003973  0.0
H  H121  1  0.43731956  0.41763961  0.32477802  1  0.036444  1e-06  0.084105  0.115705  -5e-06  1.003936  0.0
H  H122  1  0.71396327  0.56580622  0.72934091  1  0.031758  -2.2e-05  0.082241  0.113343  4e-06  1.013895  0.0
H  H123  1  0.28603527  0.43418504  0.27066451  1  0.031692  2.2e-05  0.082234  0.113312  -4e-06  1.013794  0.0
H  H124  1  0.60596647  0.66762126  0.73460287  1  0.013459  -2e-06  0.085055  0.116521  -3e-06  1.030376  0.0
H  H125  1  0.39404145  0.33237381  0.26539976  1  0.013454  2e-06  0.085059  0.116436  3e-06  1.030439  0.0
C  C126  1  0.01708089  0.86582407  0.32365254  1  0.428718  -0.002243  0.054208  0.093022  -0.000399  3.898958  -0.001
C  C127  1  0.98291910  0.13417024  0.67634842  1  0.42854  0.002239  0.054153  0.092934  0.000397  3.899018  0.001
C  C128  1  0.95397863  0.87843237  0.37269802  1  0.02936  0.003832  -0.063472  -0.110088  0.001975  3.906838  0.003
C  C129  1  0.04601891  0.12156862  0.62730212  1  0.029483  -0.003834  -0.063495  -0.110069  -0.001976  3.906587  -0.003
C  C130  1  0.80354884  0.84398029  0.37284977  1  -0.025871  -0.007034  0.010153  0.001265  -0.003928  3.96475  -0.004
C  C131  1  0.19645865  0.15602813  0.62715352  1  -0.025665  0.007031  0.010099  0.001074  0.003926  3.964686  0.004
C  C132  1  0.72090249  0.80128066  0.32301667  1  0.043029  0.003092  -0.060103  -0.114264  0.001635  3.911395  0.003
C  C133  1  0.27909102  0.19872322  0.67698666  1  0.04273  -0.003094  -0.060118  -0.114234  -0.001636  3.911453  -0.003
C  C134  1  0.79099688  0.79362665  0.27557362  1  0.427353  -0.001678  0.051757  0.091735  -0.000251  3.920343  -0.001
C  C135  1  0.20899322  0.20636828  0.72443103  1  0.42699  0.00168  0.051596  0.091368  0.00025  3.92029  0.001
C  C136  1  0.72720809  0.84753329  0.42388064  1  1.496619  -0.002461  0.246232  0.512459  -0.001357  4.092485  -0.001
C  C137  1  0.27281028  0.15249010  0.57611933  1  1.499135  0.002457  0.246511  0.513103  0.001355  4.092842  0.001
C  C138  1  0.75306278  0.91527640  0.51731523  1  0.333843  1.4e-05  0.074631  0.128501  6e-06  3.969918  0.0
C  C139  1  0.24696017  0.08472243  0.48269074  1  0.334126  -1.4e-05  0.074504  0.128369  -6e-06  3.970027  0.0
C  C140  1  0.69239062  0.00159872  0.53231823  1  0.071543  -6.6e-05  -0.007862  0.049897  -3.7e-05  3.95233  0.0
C  C141  1  0.30762741  0.99839719  0.46768284  1  0.071422  6.6e-05  -0.007828  0.049894  3.7e-05  3.952391  0.0
C  C142  1  0.64415307  0.00647558  0.58549247  1  -0.05049  -4.5e-05  -0.093126  -0.187501  -1.4e-05  3.942595  0.0
C  C143  1  0.35584679  0.99351803  0.41450555  1  -0.050624  4.5e-05  -0.093064  -0.187374  1.4e-05  3.942552  0.0
C  C144  1  0.65234733  0.92815704  0.62241283  1  0.029377  -2.3e-05  -0.004494  0.072721  -2e-06  3.895927  0.0
C  C145  1  0.34764922  0.07183650  0.37758836  1  0.029681  2.3e-05  -0.004541  0.072693  2e-06  3.896066  0.0
C  C146  1  0.71883555  0.84472196  0.60587640  1  -0.114594  9e-06  -0.094553  -0.185072  9e-06  3.96543  0.0
C  C147  1  0.28116128  0.15527384  0.39412318  1  -0.11426  -9e-06  -0.094528  -0.185174  -9e-06  3.965526  0.0
C  C148  1  0.76907151  0.83557623  0.55356654  1  -0.021939  -4.9e-05  -0.023944  0.00314  -2.5e-05  4.031371  0.0
C  C149  1  0.23094251  0.16442256  0.44643815  1  -0.022224  4.9e-05  -0.02396  0.003241  2.5e-05  4.031159  0.0
C  C150  1  0.83050427  0.73969300  0.53812973  1  -0.035606  -1e-06  -0.155431  -0.225488  -2e-06  3.988774  0.0
C  C151  1  0.16950082  0.26030575  0.46187408  1  -0.035496  1e-06  -0.155325  -0.225364  2e-06  3.988766  0.0
C  C152  1  0.58337566  0.92711922  0.67723493  1  0.055086  -4.1e-05  -0.014065  0.237126  -1.6e-05  3.802931  0.0
C  C153  1  0.41660785  0.07287730  0.32276107  1  0.054986  4.1e-05  -0.013999  0.237242  1.6e-05  3.802556  0.0
C  C154  1  0.50556332  0.02085176  0.68527821  1  -0.058227  -0.00038  -0.252026  -0.422482  -0.000243  3.915566  0.0
C  C155  1  0.49441606  0.97913878  0.31471871  1  -0.058394  0.00038  -0.252177  -0.422534  0.000243  3.915475  0.0
C  C156  1  0.70463074  0.91766334  0.72824166  1  -0.026975  -0.000108  -0.24087  -0.408448  -1e-05  3.885936  0.0
C  C157  1  0.29535469  0.08233912  0.27175497  1  -0.0267  0.000108  -0.240879  -0.408505  1e-05  3.885958  0.0
C  C158  1  0.46306358  0.83756021  0.67364873  1  -0.051428  -1.1e-05  -0.242761  -0.412254  -9e-06  3.88063  0.0
C  C159  1  0.53692369  0.16243112  0.32634778  1  -0.05162  1e-05  -0.242726  -0.412175  9e-06  3.88055  0.0
C  C160  1  0.66846947  0.08546614  0.49214258  1  -0.016284  2e-06  -0.158623  -0.21706  1e-06  3.933893  0.0
C  C161  1  0.33154440  0.91453198  0.50785791  1  -0.015675  -2e-06  -0.158628  -0.216983  -1e-06  3.933763  0.0
C  C162  1  0.78844598  0.17135988  0.50405800  1  0.003906  9.1e-05  -0.024696  0.025564  4.5e-05  3.971151  0.0
C  C163  1  0.21156049  0.82863301  0.49594160  1  0.003505  -9.1e-05  -0.024761  0.025533  -4.5e-05  3.971074  0.0
C  C164  1  0.77973126  0.24260295  0.54652825  1  -0.017734  3.2e-05  -0.102659  -0.196102  3.3e-05  3.984031  0.0
C  C165  1  0.22027061  0.75739736  0.45347001  1  -0.017641  -3.2e-05  -0.10277  -0.196282  -3.3e-05  3.984035  0.0
C  C166  1  0.89260534  0.31977652  0.56202844  1  -0.040447  6e-06  -0.022346  0.046183  1.4e-05  3.937916  0.0
C  C167  1  0.10739035  0.68021931  0.43796900  1  -0.040428  -6e-06  -0.022311  0.046108  -1.4e-05  3.937907  0.0
C  C168  1  0.01905369  0.32158204  0.53417817  1  -0.05014  -1.6e-05  -0.104016  -0.191287  -5e-06  4.007943  0.0
C  C169  1  0.98095269  0.67841823  0.46582365  1  -0.049539  1.6e-05  -0.103977  -0.191133  5e-06  4.007982  0.0
C  C170  1  0.96902045  0.74666570  0.50933129  1  -0.034939  -0.000112  -0.03548  -0.012033  -6.3e-05  4.026949  0.0
C  C171  1  0.03098625  0.25332863  0.49067127  1  -0.034496  0.000112  -0.035359  -0.0118  6.3e-05  4.027032  0.0
C  C172  1  0.91104501  0.17992119  0.47416255  1  0.437168  -1e-05  0.068905  0.1914  -1.1e-05  4.037853  0.0
C  C173  1  0.08896339  0.82007763  0.52583851  1  0.437208  1e-05  0.069036  0.191521  1.1e-05  4.03775  0.0
C  C174  1  0.87956012  0.40016262  0.60657873  1  0.076182  -4.1e-05  -0.016044  0.239253  -1.4e-05  3.809584  0.0
C  C175  1  0.12043539  0.59983170  0.39341992  1  0.075742  4.1e-05  -0.016037  0.239395  1.4e-05  3.809518  0.0
C  C176  1  0.86740989  0.50020070  0.57799656  1  -0.079287  -4e-06  -0.242278  -0.407443  -6e-06  3.906304  0.0
C  C177  1  0.13257457  0.49979429  0.42200238  1  -0.080036  3e-06  -0.242319  -0.407454  6e-06  3.906296  0.0
C  C178  1  0.01846512  0.41019967  0.65207304  1  -0.072399  1.6e-05  -0.245748  -0.408281  2e-05  3.89525  0.0
C  C179  1  0.98153160  0.58980355  0.34792668  1  -0.072569  -1.6e-05  -0.24567  -0.408267  -2e-05  3.895254  0.0
C  C180  1  0.74083324  0.37780042  0.63582228  1  -0.04688  -0.000419  -0.248637  -0.420424  -0.000257  3.911661  0.0
C  C181  1  0.25916645  0.62219167  0.36417821  1  -0.047155  0.000419  -0.248668  -0.420507  0.000257  3.911686  0.0
C  C182  1  0.99550610  0.58227317  0.18021521  1  0.404669  -0.005496  0.046422  0.080647  -0.00218  3.935116  -0.003
C  C183  1  0.00449935  0.41772046  0.81978435  1  0.404763  0.005495  0.046484  0.080708  0.002179  3.935164  0.003
C  C184  1  0.93643005  0.49288273  0.15267468  1  0.038155  0.005274  -0.062002  -0.120551  0.002743  3.918689  0.004
C  C185  1  0.06357831  0.50711613  0.84732346  1  0.038301  -0.005274  -0.061991  -0.120562  -0.002743  3.918484  -0.004
C  C186  1  0.80236745  0.48955738  0.11546123  1  0.043892  -0.011721  0.012582  0.012729  -0.006471  3.944638  -0.007
C  C187  1  0.19763860  0.51044072  0.88453761  1  0.043547  0.011718  0.012564  0.012743  0.00647  3.94484  0.007
C  C188  1  0.73043369  0.57648525  0.10844648  1  0.027266  0.00559  -0.06383  -0.110139  0.002895  3.919898  0.005
C  C189  1  0.26957971  0.42351813  0.89154992  1  0.02798  -0.005588  -0.063864  -0.110314  -0.002894  3.919847  -0.005
C  C190  1  0.79679155  0.66329671  0.13718619  1  0.3714  -0.005981  0.046095  0.080008  -0.002561  3.904042  -0.003
C  C191  1  0.20322047  0.33670438  0.86281301  1  0.370915  0.005979  0.046126  0.080132  0.002561  3.903906  0.003
C  C192  1  0.74439404  0.39374608  0.08441025  1  1.496356  -0.001745  0.245411  0.516027  -0.000904  4.082948  0.0
C  C193  1  0.25561809  0.60624762  0.91558756  1  1.496471  0.001745  0.245412  0.515906  0.000904  4.082704  0.0
C  C194  1  0.59192789  0.32584539  0.00154158  1  0.34432  -1.2e-05  0.07183  0.132853  -7e-06  3.968502  0.0
C  C195  1  0.40806984  0.67415709  0.99845776  1  0.3444  1.2e-05  0.071864  0.132837  7e-06  3.968397  0.0
C  C196  1  0.48255000  0.25442389  0.01546429  1  -0.000989  -7.2e-05  -0.023134  0.006232  -4.2e-05  4.01875  0.0
C  C197  1  0.51745008  0.74557932  0.98453686  1  -0.000676  7.2e-05  -0.023066  0.006482  4.2e-05  4.018639  0.0
C  C198  1  0.43935582  0.17241707  0.97762092  1  -0.094267  -0.000101  -0.099209  -0.198885  -5e-05  3.983862  0.0
C  C199  1  0.56064192  0.82758541  0.02237884  1  -0.094348  0.000101  -0.099312  -0.199143  5e-05  3.983968  0.0
C  C200  1  0.50465648  0.15892200  0.92881758  1  0.031031  -0.000106  -0.004373  0.077277  -1.9e-05  3.884006  0.0
C  C201  1  0.49533902  0.84108048  0.07118165  1  0.031158  0.000106  -0.004346  0.077233  1.9e-05  3.884097  0.0
C  C202  1  0.60867755  0.23531711  0.91566477  1  -0.05274  1.5e-05  -0.0912  -0.173211  2.3e-05  3.923716  0.0
C  C203  1  0.39131701  0.76468687  0.08433319  1  -0.05272  -1.5e-05  -0.091096  -0.17303  -2.3e-05  3.92389  0.0
C  C204  1  0.65310122  0.31976960  0.95100006  1  0.014425  -3.3e-05  -0.010777  0.045281  -1.6e-05  3.957603  0.0
C  C205  1  0.34690199  0.68023218  0.04899955  1  0.014384  3.3e-05  -0.010816  0.045229  1.6e-05  3.957556  0.0
C  C206  1  0.41938468  0.25429858  0.07101352  1  -0.038026  -4e-06  -0.15252  -0.228739  -2e-06  3.986147  0.0
C  C207  1  0.58062534  0.74570395  0.92898812  1  -0.038022  4e-06  -0.152554  -0.228931  2e-06  3.986228  0.0
C  C208  1  0.47176120  0.06315352  0.89181291  1  0.08222  -0.000143  -0.012605  0.241769  -5.8e-05  3.795156  0.0
C  C209  1  0.52823730  0.93685494  0.10818492  1  0.081124  0.000143  -0.012592  0.241919  5.8e-05  3.795034  0.0
C  C210  1  0.40460475  0.08741186  0.83175682  1  -0.076988  -0.000996  -0.251178  -0.422454  -0.000565  3.898358  -0.001
C  C211  1  0.59538514  0.91259876  0.16824145  1  -0.075638  0.000996  -0.25127  -0.422685  0.000565  3.898735  0.001
C  C212  1  0.36204789  0.98666528  0.91484702  1  -0.104673  -0.001561  -0.247375  -0.416788  -0.000944  3.889347  -0.001
C  C213  1  0.63796928  0.01333291  0.08515030  1  -0.103962  0.001561  -0.247332  -0.416835  0.000944  3.889386  0.001
C  C214  1  0.62043821  0.01732912  0.88921950  1  -0.056635  -0.000459  -0.244709  -0.409796  -0.000357  3.882495  0.0
C  C215  1  0.37957248  0.98268767  0.11077285  1  -0.059439  0.000459  -0.244711  -0.409622  0.000357  3.882519  0.0
C  C216  1  0.76570313  0.40064391  0.93503676  1  0.007753  4e-05  -0.154058  -0.209799  3.9e-05  3.938396  0.0
C  C217  1  0.23429736  0.59935412  0.06496388  1  0.007782  -4e-05  -0.154069  -0.209852  -3.9e-05  3.938317  0.0
C  C218  1  0.69092684  0.48293331  0.90341628  1  -0.014837  5e-05  -0.026736  0.016109  3.4e-05  3.953583  0.0
C  C219  1  0.30907274  0.51706619  0.09658519  1  -0.014316  -5e-05  -0.026756  0.016121  -3.4e-05  3.953702  0.0
C  C220  1  0.62612706  0.46621598  0.84680853  1  -0.032271  -0.000243  -0.106784  -0.203671  -0.000116  3.996021  0.0
C  C221  1  0.37387132  0.53378275  0.15319411  1  -0.032172  0.000243  -0.10669  -0.203634  0.000116  3.996127  0.0
C  C222  1  0.55170358  0.53797129  0.81609058  1  -0.015809  -4.1e-05  -0.024788  0.04425  -3e-06  3.937145  0.0
C  C223  1  0.44829279  0.46202889  0.18391324  1  -0.016416  4.1e-05  -0.024822  0.044299  3e-06  3.937299  0.0
C  C224  1  0.53852749  0.62738643  0.84486211  1  -0.009061  3e-06  -0.1037  -0.187916  3e-06  4.014957  0.0
C  C225  1  0.46146856  0.37261154  0.15514082  1  -0.00901  -3e-06  -0.103735  -0.188126  -3e-06  4.015085  0.0
C  C226  1  0.39940809  0.35236190  0.09904167  1  -0.024113  -6.6e-05  -0.035652  -0.008649  -3.3e-05  4.034254  0.0
C  C227  1  0.60059576  0.64763613  0.90096040  1  -0.024096  6.6e-05  -0.035602  -0.008618  3.3e-05  4.034173  0.0
C  C228  1  0.68211887  0.57581909  0.92958643  1  0.421078  -4.2e-05  0.072272  0.198018  -2.8e-05  4.030394  0.0
C  C229  1  0.31788175  0.42417964  0.07041674  1  0.420652  4.2e-05  0.072357  0.198131  2.8e-05  4.030238  0.0
C  C230  1  0.49236461  0.52492804  0.75306817  1  0.059106  -0.000233  -0.013347  0.24355  -0.000107  3.802163  0.0
C  C231  1  0.50762688  0.47506917  0.24693409  1  0.059361  0.000233  -0.013435  0.243333  0.000107  3.802448  0.0
C  C232  1  0.33388048  0.55870588  0.73999903  1  -0.042691  -0.000129  -0.244553  -0.408525  -5.9e-05  3.89725  0.0
C  C233  1  0.66612193  0.44129809  0.26000267  1  -0.042961  0.000129  -0.244531  -0.408503  5.9e-05  3.897439  0.0
C  C234  1  0.48434246  0.41652233  0.73229591  1  -0.050926  -0.001619  -0.249717  -0.417686  -0.001037  3.906995  -0.001
C  C235  1  0.51564609  0.58347781  0.26770709  1  -0.050764  0.001619  -0.249687  -0.417807  0.001038  3.907163  0.001
C  C236  1  0.60006305  0.58909401  0.72102874  1  -0.096003  -2.4e-05  -0.242524  -0.414149  3e-06  3.902285  0.0
C  C237  1  0.39994256  0.41090029  0.27897543  1  -0.095874  2.4e-05  -0.242449  -0.41382  -3e-06  3.902187  0.0
N  N238  1  0.93753317  0.82361512  0.27561478  1  -1.23979  0.067763  -0.336698  -0.22303  0.036623  3.656922  0.048
N  N239  1  0.06245537  0.17637691  0.72438556  1  -1.239533  -0.067771  -0.336599  -0.22286  -0.036625  3.657001  -0.048
N  N240  1  0.92827942  0.66707872  0.17229585  1  -1.226399  0.072631  -0.339105  -0.227572  0.039529  3.650145  0.052
N  N241  1  0.07172783  0.33292014  0.82770265  1  -1.226468  -0.072629  -0.339175  -0.227688  -0.039527  3.650199  -0.052
Cl  Cl242  1  0.26698065  0.77431764  0.23356615  1  -0.614421  0.176756  -0.257537  -0.443058  0.095573  1.315216  0.117
Cl  Cl243  1  0.73301720  0.22567742  0.76643389  1  -0.614451  -0.176739  -0.257561  -0.443082  -0.095564  1.315195  -0.117
Cl  Cl244  1  0.99368418  0.91049534  0.14570656  1  -0.575805  0.214417  -0.28998  -0.436783  0.115785  1.199012  0.145
Cl  Cl245  1  0.00632603  0.08950055  0.85429287  1  -0.575839  -0.214419  -0.289994  -0.436804  -0.115787  1.198994  -0.145
O  O246  1  0.60780310  0.80020632  0.42811536  1  -1.125807  -0.002519  -0.263456  -0.448674  -0.00131  2.141301  -0.002
O  O247  1  0.39217013  0.19983754  0.57188648  1  -1.127515  0.002516  -0.26368  -0.448967  0.001308  2.141919  0.002
O  O248  1  0.80565008  0.91061036  0.46486274  1  -1.076594  -0.000766  -0.129366  -0.223387  -0.000341  2.613106  -0.001
O  O249  1  0.19438566  0.08938408  0.53514380  1  -1.077631  0.000765  -0.129327  -0.223629  0.00034  2.613534  0.001
O  O250  1  0.90820203  0.11466951  0.42906573  1  -1.152118  2.7e-05  -0.358098  -0.437102  1.5e-05  2.341396  0.0
O  O251  1  0.09181469  0.88532491  0.57093526  1  -1.151631  -2.7e-05  -0.358061  -0.437036  -1.5e-05  2.341458  0.0
O  O252  1  0.78484469  0.31327776  0.09798690  1  -1.116271  -0.002845  -0.268004  -0.438483  -0.001482  2.083004  -0.002
O  O253  1  0.21515165  0.68673148  0.90200791  1  -1.116424  0.002847  -0.268148  -0.438639  0.001483  2.082156  0.002
O  O254  1  0.64437977  0.40889936  0.03798764  1  -1.076773  -0.000783  -0.133825  -0.232354  -0.00036  2.592026  -0.001
O  O255  1  0.35561489  0.59110536  0.96200992  1  -1.077067  0.000783  -0.133778  -0.232202  0.00036  2.5923  0.001
O  O256  1  0.75490529  0.59477152  0.98353156  1  -1.139045  -0.0  -0.355227  -0.439525  1e-06  2.344109  0.0
O  O257  1  0.24510007  0.40522949  0.01647023  1  -1.139047  0.0  -0.355277  -0.43957  -1e-06  2.344002  0.0
