# generated using pymatgen
data_CoH6(C2O3)2
_symmetry_space_group_name_H-M   'P 1'
_cell_length_a   7.70944022
_cell_length_b   9.00355588
_cell_length_c   8.82540096
_cell_angle_alpha   90.00086193
_cell_angle_beta   90.00068101
_cell_angle_gamma   90.00106898
_symmetry_Int_Tables_number   1
_chemical_formula_structural   CoH6(C2O3)2
_chemical_formula_sum   'Co4 H24 C16 O24'
_cell_volume   612.59204786
_cell_formula_units_Z   4
loop_
 _symmetry_equiv_pos_site_id
 _symmetry_equiv_pos_as_xyz
  1  'x, y, z'
loop_
 _atom_site_type_symbol
 _atom_site_label
 _atom_site_symmetry_multiplicity
 _atom_site_fract_x
 _atom_site_fract_y
 _atom_site_fract_z
 _atom_site_occupancy
 _atom_site_hle17_ddec_charge
 _atom_site_hle17_ddec_spin_density
 _atom_site_hle17_ddec_sum_bond_order
 _atom_site_hle17_magmom
 _atom_site_hse06_10hf_ddec_charge
 _atom_site_hse06_10hf_ddec_spin_density
 _atom_site_hse06_10hf_ddec_sum_bond_order
 _atom_site_hse06_10hf_magmom
 _atom_site_hse06_ddec_charge
 _atom_site_hse06_ddec_spin_density
 _atom_site_hse06_ddec_sum_bond_order
 _atom_site_hse06_magmom
 _atom_site_pbe_cm5_charge
 _atom_site_pbe_ddec_charge
 _atom_site_pbe_ddec_spin_density
 _atom_site_pbe_ddec_sum_bond_order
 _atom_site_pbe_magmom
Co  Co0  1  0.09459472  0.07396950  0.89243415  1  1.121864  -2.874797  1.827325  -2.622  1.088647  -2.866693  2.225875  -2.686  1.16202  -2.907267  2.155506  -2.751  0.648209  1.027077  -2.820072  2.279234  -2.618
Co  Co1  1  0.40540679  0.92601478  0.39242849  1  1.121761  2.874816  1.827382  2.622  1.088568  2.8667  2.225909  2.686  1.161891  2.907277  2.155566  2.751  0.648162  1.026997  2.820082  2.279268  2.618
Co  Co2  1  0.59459207  0.42602384  0.10757645  1  1.121886  -2.874838  1.827409  -2.622  1.088553  -2.866702  2.225952  -2.686  1.161904  -2.907271  2.155626  -2.751  0.648195  1.026995  -2.820086  2.279291  -2.618
Co  Co3  1  0.90540431  0.57397723  0.60757912  1  1.121811  2.874816  1.827232  2.622  1.088643  2.866706  2.225742  2.686  1.16197  2.907285  2.155394  2.751  0.64822  1.027075  2.820091  2.279101  2.618
H  H4  1  0.02780027  0.35404917  0.85819718  1  0.43589  0.000103  0.853829  0.001  0.403809  -0.000159  0.929616  0.0  0.415154  -9.8e-05  0.913119  0.0  0.303727  0.395112  -1.9e-05  0.942293  0.0
H  H5  1  0.47220597  0.64595014  0.35819719  1  0.435955  -0.000103  0.853714  -0.001  0.403856  0.000159  0.929553  0.0  0.4152  9.8e-05  0.913057  0.0  0.303751  0.395156  1.9e-05  0.942234  0.0
H  H6  1  0.52780483  0.14596201  0.14180478  1  0.435946  0.000103  0.853781  0.001  0.403853  -0.000159  0.929561  0.0  0.415204  -9.8e-05  0.913057  0.0  0.303778  0.395161  -1.8e-05  0.942227  0.0
H  H7  1  0.97219589  0.85403959  0.64180093  1  0.435974  -0.000103  0.853717  -0.001  0.403888  0.000159  0.929496  0.0  0.415239  9.7e-05  0.912992  0.0  0.3038  0.395193  1.8e-05  0.942169  0.0
H  H8  1  0.99459501  0.33786126  0.03619192  1  0.431562  9.6e-05  0.849532  0.0  0.402252  -6.3e-05  0.920775  0.0  0.413124  7.4e-05  0.905152  0.0  0.301381  0.394135  -0.000198  0.93247  0.0
H  H9  1  0.50540820  0.66214648  0.53620186  1  0.431521  -9.7e-05  0.849486  0.0  0.402265  6.3e-05  0.920711  0.0  0.41313  -7.4e-05  0.905099  0.0  0.301418  0.394161  0.000198  0.932395  0.0
H  H10  1  0.49457593  0.16213614  0.96380590  1  0.431589  9.7e-05  0.849571  0.0  0.4023  -6.3e-05  0.920716  0.0  0.413173  7.4e-05  0.90509  0.0  0.301416  0.39418  -0.000198  0.932415  0.0
H  H11  1  0.00540838  0.83784925  0.46379926  1  0.431501  -9.7e-05  0.849513  0.0  0.402223  6.3e-05  0.920779  0.0  0.413092  -7.4e-05  0.905161  0.0  0.301373  0.394112  0.000198  0.932471  0.0
H  H12  1  0.76509961  0.08955870  0.03989977  1  0.402366  -0.000617  0.876408  -0.001  0.379388  -0.00066  0.942246  -0.001  0.390437  -0.000421  0.930253  -0.001  0.304251  0.371034  -0.000821  0.951373  -0.002
H  H13  1  0.73490105  0.91045021  0.53989424  1  0.402436  0.000616  0.876327  0.001  0.379421  0.00066  0.942189  0.001  0.390467  0.00042  0.930199  0.001  0.304237  0.371072  0.000821  0.951297  0.002
H  H14  1  0.26509248  0.41044842  0.96010243  1  0.402399  -0.000616  0.87636  -0.001  0.379444  -0.00066  0.942139  -0.001  0.390492  -0.000421  0.930147  -0.001  0.304244  0.371091  -0.000821  0.951263  -0.002
H  H15  1  0.23491383  0.58954135  0.46010930  1  0.402298  0.000617  0.876501  0.001  0.37942  0.00066  0.942153  0.001  0.390467  0.000421  0.930162  0.001  0.304289  0.371073  0.000821  0.951264  0.002
H  H16  1  0.84775651  0.99047287  0.25969966  1  0.073901  -0.000222  0.908348  0.0  0.084703  -0.000268  0.963103  0.0  0.087096  -0.000237  0.961321  0.0  0.118821  0.0828  -0.000245  0.964434  0.0
H  H17  1  0.65224450  0.00951610  0.75970498  1  0.073933  0.000224  0.908184  0.0  0.084702  0.000268  0.963019  0.0  0.08712  0.000237  0.961202  0.0  0.118844  0.082804  0.000245  0.964346  0.0
H  H18  1  0.34775699  0.50950935  0.74030848  1  0.073858  -0.000222  0.908208  0.0  0.084622  -0.000268  0.963075  0.0  0.087067  -0.000237  0.961221  0.0  0.118821  0.082724  -0.000245  0.964408  0.0
H  H19  1  0.15224378  0.49048703  0.24029263  1  0.073946  0.000223  0.908157  0.0  0.0847  0.000269  0.963007  0.0  0.087136  0.000237  0.961168  0.0  0.118851  0.082801  0.000245  0.964333  0.0
H  H20  1  0.86014608  0.74385524  0.02215290  1  0.148504  -2.7e-05  0.915404  0.0  0.161056  3.5e-05  0.97328  0.0  0.164312  4.8e-05  0.971591  0.0  0.114234  0.158666  3.1e-05  0.974514  0.0
H  H21  1  0.63983229  0.25616894  0.52217983  1  0.148317  2.9e-05  0.915104  0.0  0.160836  -3.5e-05  0.973079  0.0  0.164091  -4.7e-05  0.971394  0.0  0.114135  0.158454  -3.1e-05  0.974322  0.0
H  H22  1  0.36015781  0.75615938  0.97782478  1  0.148393  -2.8e-05  0.915195  0.0  0.160887  3.5e-05  0.973169  0.0  0.164139  4.7e-05  0.971489  0.0  0.114178  0.158501  3.1e-05  0.974414  0.0
H  H23  1  0.13984744  0.24384177  0.47782897  1  0.148359  2.9e-05  0.915087  0.0  0.160862  -3.5e-05  0.97307  0.0  0.164118  -4.7e-05  0.971382  0.0  0.114173  0.15848  -3.1e-05  0.974307  0.0
H  H24  1  0.90946180  0.70596874  0.21339292  1  0.1228  0.00028  0.938915  0.0  0.136695  0.000296  0.999657  0.0  0.138439  0.000199  0.999717  0.0  0.109404  0.135421  0.000399  0.99971  0.001
H  H25  1  0.59054896  0.29401285  0.71343122  1  0.122743  -0.00028  0.938791  0.0  0.136631  -0.000296  0.999527  0.0  0.138386  -0.000199  0.999572  0.0  0.109381  0.135361  -0.000399  0.999585  -0.001
H  H26  1  0.40946403  0.79402667  0.78657961  1  0.122727  0.00028  0.938817  0.0  0.136603  0.000296  0.999579  0.0  0.138362  0.000199  0.99962  0.0  0.109387  0.135334  0.000399  0.999626  0.001
H  H27  1  0.09054385  0.20598043  0.28658387  1  0.122782  -0.000281  0.938852  0.0  0.136654  -0.000296  0.999605  0.0  0.138406  -0.000199  0.99965  0.0  0.109332  0.135386  -0.000399  0.999658  -0.001
C  C28  1  0.90934860  0.94035238  0.15931551  1  0.138186  0.001074  3.636975  0.002  0.116689  0.000357  3.886371  0.001  0.11927  0.000321  3.894003  0.001  -0.002005  0.114578  0.000364  3.881722  0.001
C  C29  1  0.59065107  0.05964726  0.65932091  1  0.138352  -0.001075  3.636612  -0.002  0.116775  -0.000357  3.88614  -0.001  0.119361  -0.000321  3.893731  -0.001  -0.002101  0.11466  -0.000364  3.881491  -0.001
C  C30  1  0.40934116  0.55964968  0.84068762  1  0.1385  0.001074  3.636633  0.002  0.116848  0.000357  3.88614  0.001  0.119429  0.000324  3.893716  0.001  -0.002103  0.114732  0.000365  3.881506  0.001
C  C31  1  0.09065836  0.44035380  0.34067605  1  0.13834  -0.001074  3.63657  -0.002  0.116798  -0.000357  3.886083  -0.001  0.119364  -0.000321  3.8937  -0.001  -0.002061  0.114684  -0.000364  3.881442  -0.001
C  C32  1  0.64897387  0.77065644  0.18091417  1  0.733162  0.000438  3.779199  0.0  0.692291  0.000902  4.077449  0.001  0.729701  0.000592  4.068758  0.0  0.225265  0.664473  0.001846  4.083001  0.002
C  C33  1  0.85102349  0.22934242  0.68092481  1  0.733002  -0.000437  3.779442  0.0  0.692145  -0.000903  4.077615  -0.001  0.729556  -0.000596  4.068928  0.0  0.225253  0.664321  -0.001846  4.083192  -0.002
C  C34  1  0.14897639  0.72933488  0.81909186  1  0.733215  0.000439  3.77913  0.0  0.69239  0.000902  4.077297  0.001  0.729801  0.00059  4.068604  0.0  0.225317  0.664568  0.001845  4.082856  0.002
C  C35  1  0.35102803  0.27065716  0.31907603  1  0.733064  -0.000434  3.779162  0.0  0.692135  -0.000902  4.077418  -0.001  0.729542  -0.000594  4.068734  0.0  0.22525  0.664308  -0.001845  4.082999  -0.002
C  C36  1  0.10497260  0.93956105  0.18718987  1  0.630102  0.001216  3.827519  0.002  0.582051  0.000261  4.140664  0.0  0.617842  0.000287  4.134003  0.001  0.214654  0.555802  0.000256  4.145465  0.0
C  C37  1  0.39502487  0.06043896  0.68719850  1  0.630097  -0.001215  3.827604  -0.002  0.581984  -0.000262  4.140841  0.0  0.61777  -0.000288  4.134183  -0.001  0.214598  0.555741  -0.000256  4.145628  0.0
C  C38  1  0.60496478  0.56044069  0.81281570  1  0.629818  0.001214  3.827664  0.002  0.581996  0.00026  4.140511  0.0  0.617771  0.000285  4.133861  0.001  0.214657  0.555744  0.000255  4.145328  0.0
C  C39  1  0.89503174  0.43955576  0.31280280  1  0.630096  -0.001212  3.827483  -0.002  0.58196  -0.000261  4.140768  0.0  0.617741  -0.000289  4.134121  -0.001  0.214646  0.555711  -0.000254  4.145573  0.0
C  C40  1  0.83896157  0.78276172  0.13871775  1  -0.320654  0.001895  3.615956  0.002  -0.365428  0.001249  3.85837  0.001  -0.371538  0.001015  3.863191  0.001  -0.165769  -0.360984  0.00151  3.855511  0.002
C  C41  1  0.66103781  0.21724094  0.63873867  1  -0.320356  -0.001895  3.61531  -0.002  -0.365078  -0.001247  3.857717  -0.001  -0.3712  -0.001017  3.862541  -0.001  -0.165662  -0.360641  -0.001509  3.854879  -0.002
C  C42  1  0.33896699  0.71724480  0.86126423  1  -0.320465  0.001898  3.615514  0.002  -0.365141  0.001249  3.857949  0.001  -0.371267  0.001018  3.862771  0.001  -0.165627  -0.360697  0.00151  3.855098  0.002
C  C43  1  0.16104189  0.28276233  0.36126696  1  -0.320445  -0.001895  3.615417  -0.002  -0.365127  -0.001248  3.85782  -0.001  -0.371246  -0.001015  3.862648  -0.001  -0.165615  -0.360688  -0.00151  3.854973  -0.002
O  O44  1  0.57141210  0.88904825  0.22012531  1  -0.634238  0.033512  2.111178  0.056  -0.598655  0.024907  2.387724  0.037  -0.632524  0.019963  2.373657  0.029  -0.317167  -0.571373  0.029055  2.396444  0.043
O  O45  1  0.92858708  0.11095233  0.72013277  1  -0.634312  -0.033504  2.111417  -0.056  -0.598647  -0.024903  2.387865  -0.037  -0.632529  -0.019957  2.373805  -0.029  -0.317172  -0.571359  -0.029049  2.396589  -0.043
O  O46  1  0.07141536  0.61095074  0.77987084  1  -0.634282  0.033509  2.111396  0.056  -0.598753  0.024909  2.387993  0.037  -0.632631  0.019964  2.373927  0.029  -0.317198  -0.571469  0.029057  2.396715  0.043
O  O47  1  0.42860280  0.38903959  0.27987909  1  -0.634344  -0.033508  2.111548  -0.056  -0.598597  -0.024908  2.388  -0.037  -0.632481  -0.019961  2.373946  -0.029  -0.317174  -0.571309  -0.029053  2.396724  -0.043
O  O48  1  0.57457668  0.64435023  0.18366400  1  -0.656227  -0.027515  2.152577  -0.047  -0.614589  -0.022476  2.420245  -0.035  -0.648753  -0.018785  2.407192  -0.028  -0.310307  -0.587203  -0.026472  2.42807  -0.042
O  O49  1  0.92542590  0.35564646  0.68366029  1  -0.656167  0.027515  2.152531  0.047  -0.614568  0.022475  2.420176  0.035  -0.648728  0.018783  2.40712  0.028  -0.310327  -0.587186  0.026469  2.428029  0.042
O  O50  1  0.07456771  0.85563881  0.81635031  1  -0.656259  -0.027521  2.1523  -0.047  -0.614656  -0.022477  2.419941  -0.035  -0.648826  -0.018784  2.406894  -0.028  -0.310353  -0.587268  -0.026474  2.427772  -0.042
O  O51  1  0.42543279  0.14435207  0.31633114  1  -0.656139  0.027507  2.152219  0.047  -0.614537  0.022469  2.419919  0.035  -0.648692  0.018778  2.406861  0.028  -0.310299  -0.587149  0.026464  2.42776  0.042
O  O52  1  0.07892479  0.31333084  0.95414067  1  -0.815888  -0.021348  1.939722  -0.036  -0.772872  -0.020014  2.148983  -0.03  -0.79747  -0.016709  2.112983  -0.025  -0.546412  -0.753306  -0.023756  2.175569  -0.036
O  O53  1  0.42108662  0.68666995  0.45414073  1  -0.815832  0.021353  1.939542  0.036  -0.772903  0.020017  2.148953  0.03  -0.797486  0.016711  2.112963  0.025  -0.546487  -0.753358  0.02376  2.175519  0.036
O  O54  1  0.57891860  0.18666337  0.04584937  1  -0.815987  -0.02135  1.939638  -0.036  -0.772924  -0.020015  2.148843  -0.03  -0.797527  -0.01671  2.112828  -0.025  -0.546507  -0.753359  -0.023758  2.175442  -0.036
O  O55  1  0.92107436  0.81333342  0.54585232  1  -0.815886  0.021349  1.939555  0.036  -0.772862  0.020014  2.148898  0.03  -0.797448  0.016709  2.112874  0.025  -0.546488  -0.753323  0.023756  2.175481  0.036
O  O56  1  0.15670936  0.88107885  0.31176309  1  -0.633411  0.029718  2.073931  0.048  -0.588862  0.024235  2.338308  0.035  -0.622501  0.01979  2.324519  0.027  -0.308269  -0.563467  0.028298  2.347496  0.041
O  O57  1  0.34328978  0.11892640  0.81177543  1  -0.633449  -0.029713  2.073953  -0.048  -0.588876  -0.024232  2.338332  -0.035  -0.622535  -0.019788  2.324569  -0.027  -0.30826  -0.563487  -0.028296  2.347511  -0.041
O  O58  1  0.65671284  0.61892036  0.68824529  1  -0.63342  0.02972  2.073991  0.048  -0.588956  0.024237  2.338271  0.035  -0.622604  0.019792  2.324504  0.027  -0.30829  -0.563562  0.028299  2.34747  0.041
O  O59  1  0.84328331  0.38108306  0.18822646  1  -0.633499  -0.029722  2.074115  -0.048  -0.588898  -0.024239  2.338538  -0.035  -0.622541  -0.019794  2.32475  -0.027  -0.308267  -0.563503  -0.028302  2.34772  -0.041
O  O60  1  0.87574636  0.03145356  0.03001029  1  -0.589582  -0.02424  2.227936  -0.04  -0.54624  -0.022223  2.480495  -0.034  -0.570458  -0.018286  2.467531  -0.027  -0.391735  -0.526707  -0.026199  2.489307  -0.04
O  O61  1  0.62425546  0.96856186  0.53000218  1  -0.589756  0.02424  2.227843  0.04  -0.546265  0.022222  2.480374  0.034  -0.570482  0.018284  2.467411  0.027  -0.391614  -0.526734  0.026197  2.48918  0.04
O  O62  1  0.37573416  0.46856418  0.96999988  1  -0.589667  -0.024231  2.227706  -0.04  -0.546241  -0.022215  2.480214  -0.034  -0.570469  -0.018279  2.467262  -0.027  -0.391621  -0.526712  -0.026188  2.489026  -0.04
O  O63  1  0.12425671  0.53144573  0.46998773  1  -0.589625  0.024226  2.227922  0.04  -0.546245  0.022212  2.480342  0.034  -0.570461  0.018275  2.467392  0.027  -0.391702  -0.526717  0.026184  2.489153  0.04
O  O64  1  0.20402649  0.99785360  0.09005303  1  -0.588259  -0.038082  2.099197  -0.065  -0.560928  -0.027372  2.375605  -0.044  -0.594121  -0.022008  2.366072  -0.034  -0.298264  -0.536053  -0.032635  2.382053  -0.052
O  O65  1  0.29597876  0.00213825  0.59005976  1  -0.588324  0.03807  2.099334  0.065  -0.560894  0.027365  2.375672  0.044  -0.594097  0.022002  2.36619  0.034  -0.298217  -0.536023  0.032628  2.382112  0.052
O  O66  1  0.70402386  0.50215413  0.90994906  1  -0.588219  -0.038074  2.099314  -0.065  -0.560929  -0.027368  2.37562  -0.044  -0.594113  -0.022006  2.366086  -0.034  -0.298303  -0.536046  -0.032631  2.382057  -0.052
O  O67  1  0.79597786  0.49785159  0.40993597  1  -0.588266  0.038075  2.099008  0.065  -0.560873  0.027367  2.375416  0.044  -0.594057  0.022003  2.36589  0.034  -0.298277  -0.535995  0.032629  2.38186  0.052
