# generated using pymatgen
data_AlH5C11SNO5F
_symmetry_space_group_name_H-M   'P 1'
_cell_length_a   6.67454446
_cell_length_b   12.80110151
_cell_length_c   16.92979288
_cell_angle_alpha   85.28801490
_cell_angle_beta   82.86004753
_cell_angle_gamma   74.28726974
_symmetry_Int_Tables_number   1
_chemical_formula_structural   AlH5C11SNO5F
_chemical_formula_sum   'Al2 H10 C22 S2 N2 O10 F2'
_cell_volume   1379.87453833
_cell_formula_units_Z   2
loop_
 _symmetry_equiv_pos_site_id
 _symmetry_equiv_pos_as_xyz
  1  'x, y, z'
loop_
 _atom_site_type_symbol
 _atom_site_label
 _atom_site_symmetry_multiplicity
 _atom_site_fract_x
 _atom_site_fract_y
 _atom_site_fract_z
 _atom_site_occupancy
 _atom_site_pbe_bader_charge
 _atom_site_pbe_bader_spin_density
 _atom_site_pbe_cm5_charge
 _atom_site_pbe_ddec_charge
 _atom_site_pbe_ddec_spin_density
 _atom_site_pbe_ddec_sum_bond_order
 _atom_site_pbe_magmom
Al  Al0  1  0.50000113  0.49999955  0.50000114  1  2.502766  0  0.398872  1.643047  0  2.577432  0
Al  Al1  1  1.00000000  0.49999916  0.50000100  1  2.502629  0  0.399192  1.647639  0  2.571464  0
H  H2  1  0.20090176  0.62853726  0.45096738  1  0.616281  0  0.352426  0.432012  0  0.854028  0
H  H3  1  0.79910362  0.37145862  0.54903373  1  0.616226  0  0.352403  0.431988  0  0.853976  0
H  H4  1  0.85329733  0.49703740  0.73607042  1  0.09961  0  0.110103  0.115008  0  1.002223  0
H  H5  1  0.78937095  0.49991740  0.88607692  1  0.096169  0  0.103224  0.101504  0  1.039079  0
H  H6  1  0.42642820  0.50491849  0.89568413  1  0.077177  0  0.107202  0.109147  0  1.013275  0
H  H7  1  0.48929851  0.50364434  0.74500975  1  0.096716  0  0.109613  0.114588  0  1.004364  0
H  H8  1  0.57357627  0.49508224  0.10431795  1  0.077259  0  0.107197  0.109141  0  1.013284  0
H  H9  1  0.21063015  0.50008095  0.11392310  1  0.096154  0  0.103237  0.101494  0  1.039041  0
H  H10  1  0.14670973  0.50296415  0.26393031  1  0.099562  0  0.110117  0.115007  0  1.002211  0
H  H11  1  0.51070472  0.49635883  0.25499169  1  0.09656  0  0.109612  0.114614  0  1.004379  0
C  C12  1  0.65215779  0.69446982  0.50863054  1  1.63625  0  0.260962  0.669091  0  4.144433  0
C  C13  1  0.78810379  0.50318872  0.35608889  1  1.590472  0  0.26502  0.634196  0  4.10649  0
C  C14  1  0.34784535  0.30553031  0.49136219  1  1.636459  0  0.260891  0.669106  0  4.144558  0
C  C15  1  0.21189609  0.49681206  0.64391107  1  1.59042  0  0.265108  0.634351  0  4.106417  0
C  C16  1  0.17491765  0.49982693  0.73256568  1  -0.061007  0  -0.010644  -0.037354  0  3.95024  0
C  C17  1  0.97685792  0.49883778  0.77197766  1  0.010635  0  -0.077106  -0.077694  0  3.96242  0
C  C18  1  0.94145678  0.50023518  0.85432627  1  -0.041616  0  -0.080797  -0.136807  0  3.944002  0
C  C19  1  0.10567823  0.50188652  0.89868655  1  0.342942  0  0.090045  0.173209  0  4.035086  0
C  C20  1  0.30318976  0.50339835  0.85942840  1  0.008481  0  -0.078077  -0.139736  0  3.948762  0
C  C21  1  0.33749267  0.50262875  0.77674861  1  -0.042588  0  -0.077642  -0.078957  0  3.964588  0
C  C22  1  0.69681813  0.49660157  0.14057297  1  0.008339  0  -0.078063  -0.139659  0  3.948637  0
C  C23  1  0.89432476  0.49811104  0.10131223  1  0.342896  0  0.08995  0.172987  0  4.035126  0
C  C24  1  0.05854505  0.49976477  0.14567481  1  -0.041685  0  -0.080797  -0.136729  0  3.944012  0
C  C25  1  0.02314639  0.50116623  0.22802250  1  0.010384  0  -0.077164  -0.077729  0  3.962511  0
C  C26  1  0.82508592  0.50017550  0.26743282  1  -0.06073  0  -0.010577  -0.037217  0  3.95018  0
C  C27  1  0.66250828  0.49737601  0.22325463  1  -0.042179  0  -0.077652  -0.079071  0  3.964579  0
C  C28  1  0.59046721  0.11493619  0.51628048  1  0.533357  0  0.102383  0.258237  0  4.068559  0
C  C29  1  0.40952467  0.88506233  0.48371350  1  0.533438  0  0.102438  0.25844  0  4.068198  0
C  C30  1  0.40897025  0.18649877  0.49291158  1  -0.120799  0  -0.029661  -0.251265  0  3.965741  0
C  C31  1  0.59103012  0.81350070  0.50707483  1  -0.120497  0  -0.029655  -0.251303  0  3.965752  0
C  C32  1  0.40724937  0.99516273  0.48681529  1  -0.058597  0  -0.029713  -0.121627  0  4.121105  0
C  C33  1  0.59275298  0.00483587  0.51317343  1  -0.125405  0  -0.029839  -0.121793  0  4.121375  0
S  S34  1  0.23484302  0.11872957  0.46695492  1  0.326502  0  0.108198  0.190156  0  2.793456  0
S  S35  1  0.76515636  0.88126899  0.53303631  1  0.326288  0  0.108163  0.190204  0  2.793494  0
N  N36  1  0.08871614  0.50216841  0.98266543  1  -0.479107  0  -0.147925  -0.135178  0  3.277477  0
N  N37  1  0.91128566  0.49783156  0.01733447  1  -0.52574  0  -0.147854  -0.135051  0  3.277475  0
O  O38  1  0.51233339  0.64802992  0.49789383  1  -1.248304  0  -0.229819  -0.581668  0  2.341008  0
O  O39  1  0.93419731  0.51910142  0.39171548  1  -1.262481  0  -0.239856  -0.6016  0  2.353543  0
O  O40  1  0.15781848  0.35227973  0.48035867  1  -1.257071  0  -0.236312  -0.584168  0  2.312142  0
O  O41  1  0.38700058  0.50866854  0.61065755  1  -1.263959  0  -0.23664  -0.588978  0  2.338678  0
O  O42  1  0.48766617  0.35196846  0.50210508  1  -1.248564  0  -0.229797  -0.581697  0  2.341114  0
O  O43  1  0.06580699  0.48090260  0.60828409  1  -1.26243  0  -0.239906  -0.601648  0  2.353564  0
O  O44  1  0.84217964  0.64771860  0.51964269  1  -1.257122  0  -0.236337  -0.584198  0  2.312108  0
O  O45  1  0.61300439  0.49132816  0.38934354  1  -1.263977  0  -0.236655  -0.588939  0  2.33871  0
O  O46  1  0.23340575  0.55187492  0.46712435  1  -1.415435  0  -0.44869  -0.992497  0  2.189794  0
O  O47  1  0.76659129  0.44812257  0.53287828  1  -1.415431  0  -0.448645  -0.992478  0  2.189736  0
F  F48  1  0.74937974  0.14511562  0.54118826  1  -0.629531  0  -0.085232  -0.114988  0  1.396793  0
F  F49  1  0.25061433  0.85488453  0.45880494  1  -0.629719  0  -0.085303  -0.115134  0  1.39667  0
