# generated using pymatgen
data_ZnH11C24NCl2O9
_symmetry_space_group_name_H-M   'P 1'
_cell_length_a   14.04198528
_cell_length_b   15.18847556
_cell_length_c   16.98447102
_cell_angle_alpha   92.44229597
_cell_angle_beta   96.37734668
_cell_angle_gamma   89.66844025
_symmetry_Int_Tables_number   1
_chemical_formula_structural   ZnH11C24NCl2O9
_chemical_formula_sum   'Zn2 H22 C48 N2 Cl4 O18'
_cell_volume   3596.69827737
_cell_formula_units_Z   2
loop_
 _symmetry_equiv_pos_site_id
 _symmetry_equiv_pos_as_xyz
  1  'x, y, z'
loop_
 _atom_site_type_symbol
 _atom_site_label
 _atom_site_symmetry_multiplicity
 _atom_site_fract_x
 _atom_site_fract_y
 _atom_site_fract_z
 _atom_site_occupancy
 _atom_site_pbe_bader_charge
 _atom_site_pbe_bader_spin_density
 _atom_site_pbe_cm5_charge
 _atom_site_pbe_ddec_charge
 _atom_site_pbe_ddec_spin_density
 _atom_site_pbe_ddec_sum_bond_order
 _atom_site_pbe_magmom
Zn  Zn0  1  0.60592986  0.49647199  0.49566318  1  1.316842  0  0.689105  0.890957  0  2.311792  0
Zn  Zn1  1  0.39406625  0.50347268  0.50430324  1  1.316955  0  0.688929  0.890792  0  2.311999  0
H  H2  1  0.89459845  0.33403083  0.35645476  1  0.030898  0  0.10747  0.117646  0  1.013099  0
H  H3  1  0.10538743  0.66600493  0.64352166  1  0.030964  0  0.107377  0.117586  0  1.013179  0
H  H4  1  0.36576773  0.43020123  0.24184087  1  0.112601  0  0.117859  0.145263  0  0.965772  0
H  H5  1  0.63421743  0.56982989  0.75813298  1  0.112579  0  0.117865  0.145298  0  0.965749  0
H  H6  1  0.47267716  0.59731763  0.98687864  1  0.091003  0  0.105378  0.113306  0  0.993013  0
H  H7  1  0.52736597  0.40271387  0.01310972  1  0.091908  0  0.105382  0.113406  0  0.992763  0
H  H8  1  0.35565993  0.78090158  0.53614739  1  0.101493  0  0.106138  0.115256  0  1.001034  0
H  H9  1  0.64439300  0.21903165  0.46403856  1  0.102353  0  0.106204  0.115129  0  1.001292  0
H  H10  1  0.65418539  0.77523941  0.50695011  1  0.039942  0  0.097705  0.083492  0  1.061827  0
H  H11  1  0.34588146  0.22470931  0.49321412  1  0.041056  0  0.0977  0.083177  0  1.062299  0
H  H12  1  0.73580984  0.07738623  0.46770239  1  0.066675  0  0.111855  0.136433  0  0.977888  0
H  H13  1  0.26435040  0.92255529  0.53260322  1  0.068677  0  0.111675  0.136071  0  0.977899  0
H  H14  1  0.68746521  0.64327936  0.55802490  1  0.663729  0  0.308638  0.377794  0  0.96971  0
H  H15  1  0.31249609  0.35668791  0.44200299  1  0.664247  0  0.3087  0.377729  0  0.969756  0
H  H16  1  0.76325383  0.36531870  0.36075804  1  0.619445  0  0.346012  0.375544  0  0.872215  0
H  H17  1  0.23673571  0.63472491  0.63921603  1  0.618389  0  0.345959  0.375436  0  0.871825  0
H  H18  1  0.14231843  0.30689601  0.37335024  1  0.629269  0  0.316099  0.36109  0  0.95384  0
H  H19  1  0.85766213  0.69313083  0.62665307  1  0.629517  0  0.31603  0.36088  0  0.953916  0
H  H20  1  0.61960054  0.58450017  0.96415746  1  0.624548  0  0.309595  0.339542  0  0.946038  0
H  H21  1  0.38043837  0.41552993  0.03581926  1  0.624065  0  0.309595  0.339522  0  0.946118  0
H  H22  1  0.75320197  0.84983784  0.49362302  1  0.577413  0  0.325257  0.354433  0  0.910308  0
H  H23  1  0.24688653  0.15012895  0.50678704  1  0.579377  0  0.325898  0.355565  0  0.908904  0
C  C24  1  0.49557314  0.32717573  0.47264538  1  1.564789  0  0.228372  0.616226  0  4.120574  0
C  C25  1  0.50443367  0.67275513  0.52739940  1  1.565457  0  0.228732  0.616691  0  4.119632  0
C  C26  1  0.42011927  0.81719990  0.52746017  1  -0.005461  0  -0.080759  -0.139898  0  3.919284  0
C  C27  1  0.57994143  0.18274669  0.47274991  1  -0.073271  0  -0.080937  -0.140011  0  3.919336  0
C  C28  1  0.50558834  0.77062961  0.52339836  1  -0.0195  0  -0.02395  -0.035078  0  4.027234  0
C  C29  1  0.49447572  0.22932701  0.47676348  1  -0.019223  0  -0.023376  -0.03432  0  4.027429  0
C  C30  1  0.58962410  0.81476056  0.51113696  1  -0.045706  0  -0.096359  -0.156898  0  3.993319  0
C  C31  1  0.41045965  0.18519969  0.48907284  1  -0.045123  0  -0.096931  -0.157264  0  3.99402  0
C  C32  1  0.58930796  0.90591012  0.50166158  1  0.034356  0  -0.015491  -0.03093  0  4.041341  0
C  C33  1  0.41081603  0.09405852  0.49862777  1  0.027665  0  -0.014589  -0.029317  0  4.039753  0
C  C34  1  0.50178974  0.95390614  0.50527730  1  0.049515  0  0.001514  0.00758  0  3.932768  0
C  C35  1  0.49834637  0.04605933  0.49510087  1  -0.016851  0  0.001145  0.007006  0  3.932933  0
C  C36  1  0.41639699  0.90862651  0.51896360  1  -0.020434  0  -0.003677  0.101751  0  4.065541  0
C  C37  1  0.58372319  0.09133113  0.48134271  1  0.040502  0  -0.003838  0.101392  0  4.065397  0
C  C38  1  0.67398161  0.95393666  0.48768312  1  0.42488  0  0.083341  0.272652  0  4.09388  0
C  C39  1  0.32614508  0.04601422  0.51261126  1  0.431661  0  0.082795  0.270855  0  4.09489  0
C  C40  1  0.67060698  0.04298177  0.47783335  1  0.034439  0  -0.109096  -0.272793  0  3.968314  0
C  C41  1  0.32952343  0.95697226  0.52244912  1  0.028873  0  -0.108722  -0.271689  0  3.968442  0
C  C42  1  0.80472538  0.57697221  0.53165052  1  1.078143  0  0.215376  0.447072  0  4.053585  0
C  C43  1  0.19526393  0.42305440  0.46833715  1  1.077716  0  0.215314  0.446937  0  4.053401  0
C  C44  1  0.79233856  0.45882567  0.43883232  1  1.079108  0  0.214034  0.417802  0  4.051592  0
C  C45  1  0.20766594  0.54121197  0.56114893  1  1.079375  0  0.214278  0.417803  0  4.051468  0
C  C46  1  0.54400164  0.46447153  0.64536910  1  1.617221  0  0.218023  0.611908  0  4.16855  0
C  C47  1  0.45600599  0.53550952  0.35462016  1  1.618557  0  0.217839  0.611505  0  4.168691  0
C  C48  1  0.89231788  0.44672507  0.44283404  1  -0.004316  0  -0.02721  -0.08788  0  4.123149  0
C  C49  1  0.10768604  0.55332104  0.55713739  1  -0.006734  0  -0.027115  -0.087674  0  4.123315  0
C  C50  1  0.94933831  0.50484873  0.49634477  1  0.07208  0  0.008479  0.065772  0  3.965988  0
C  C51  1  0.05066419  0.49519937  0.50362659  1  0.002865  0  0.008103  0.065506  0  3.966383  0
C  C52  1  0.90578338  0.57231460  0.54116771  1  0.037098  0  -0.029681  -0.211588  0  4.005421  0
C  C53  1  0.09420818  0.42771986  0.45881453  1  0.03671  0  -0.029596  -0.211724  0  4.005564  0
C  C54  1  0.93620391  0.37974802  0.39792279  1  0.011596  0  -0.124553  -0.287236  0  4.023521  0
C  C55  1  0.06378698  0.62028704  0.60205352  1  0.012644  0  -0.124592  -0.287361  0  4.023671  0
C  C56  1  0.03414395  0.36921953  0.40559283  1  0.577547  0  0.088523  0.319442  0  4.085731  0
C  C57  1  0.96584327  0.63081368  0.59439306  1  0.577463  0  0.088273  0.319041  0  4.085974  0
C  C58  1  0.54814843  0.45300749  0.73313191  1  0.005884  0  -0.012263  -0.037899  0  3.975258  0
C  C59  1  0.45185014  0.54700519  0.26685212  1  0.007546  0  -0.012176  -0.03774  0  3.974777  0
C  C60  1  0.49907729  0.38474589  0.76478776  1  0.145847  0  -0.001428  0.04064  0  4.047778  0
C  C61  1  0.50093348  0.61526867  0.23519634  1  0.146772  0  -0.001539  0.040467  0  4.047537  0
C  C62  1  0.49098754  0.38800247  0.84628543  1  0.086711  0  0.007695  0.056715  0  4.032566  0
C  C63  1  0.50903260  0.61201861  0.15369861  1  0.085793  0  0.007815  0.056969  0  4.032064  0
C  C64  1  0.52954935  0.45827126  0.89669931  1  0.073952  0  -0.036671  -0.079016  0  4.045886  0
C  C65  1  0.47048300  0.54175370  0.10328604  1  0.072022  0  -0.036793  -0.079016  0  4.046328  0
C  C66  1  0.58397905  0.52267520  0.86390208  1  0.425213  0  0.084147  0.285026  0  4.062757  0
C  C67  1  0.41604195  0.47735898  0.13607478  1  0.425453  0  0.084135  0.284827  0  4.064223  0
C  C68  1  0.59339594  0.51902159  0.78288353  1  0.05474  0  -0.096016  -0.212757  0  3.942426  0
C  C69  1  0.40660425  0.48099949  0.21708560  1  0.052906  0  -0.095812  -0.21258  0  3.942751  0
C  C70  1  0.51414692  0.46313978  0.98070297  1  -0.133835  0  -0.096468  -0.130425  0  4.038132  0
C  C71  1  0.48589333  0.53688577  0.01928081  1  -0.043327  0  -0.096455  -0.13014  0  4.03792  0
N  N72  1  0.75035108  0.51913285  0.48392041  1  -1.255017  0  -0.341708  -0.423279  0  3.44995  0
N  N73  1  0.24964178  0.48089113  0.51606930  1  -1.25476  0  -0.341794  -0.423214  0  3.449899  0
Cl  Cl74  1  0.45064059  0.29827766  0.70469701  1  -0.193325  0  -0.017241  -0.064468  0  1.547569  0
Cl  Cl75  1  0.54936348  0.70171999  0.29530300  1  -0.193423  0  -0.017249  -0.064457  0  1.547653  0
Cl  Cl76  1  0.57266173  0.69261226  0.11315856  1  -0.195223  0  -0.006951  -0.07041  0  1.524199  0
Cl  Cl77  1  0.42737487  0.30741738  0.88683676  1  -0.197149  0  -0.006914  -0.070304  0  1.524591  0
O  O78  1  0.57616922  0.36472674  0.47829656  1  -1.154529  0  -0.30042  -0.523499  0  2.352133  0
O  O79  1  0.42381874  0.63524535  0.52163869  1  -1.154808  0  -0.300382  -0.523747  0  2.352538  0
O  O80  1  0.41513290  0.36900380  0.46546234  1  -1.193901  0  -0.317211  -0.578576  0  2.425694  0
O  O81  1  0.58487144  0.63090555  0.53460274  1  -1.194093  0  -0.317301  -0.578588  0  2.425098  0
O  O82  1  0.62177886  0.47401523  0.61534023  1  -1.14402  0  -0.313859  -0.530983  0  2.269698  0
O  O83  1  0.37823690  0.52588000  0.38463722  1  -1.145133  0  -0.313852  -0.53098  0  2.269735  0
O  O84  1  0.45950896  0.46818211  0.60992985  1  -1.168581  0  -0.316881  -0.561955  0  2.39277  0
O  O85  1  0.54049837  0.53185422  0.39005398  1  -1.168451  0  -0.316926  -0.5617  0  2.393081  0
O  O86  1  0.76153137  0.64146292  0.57142739  1  -1.19056  0  -0.334079  -0.490472  0  2.336287  0
O  O87  1  0.23844786  0.35855585  0.42855847  1  -1.190771  0  -0.334069  -0.490265  0  2.336347  0
O  O88  1  0.72927678  0.41009479  0.38951479  1  -1.119062  0  -0.319245  -0.418538  0  2.298239  0
O  O89  1  0.27072480  0.58994293  0.61047206  1  -1.117754  0  -0.31933  -0.418462  0  2.297554  0
O  O90  1  0.07180534  0.30384537  0.36193811  1  -1.128892  0  -0.358321  -0.442232  0  2.24125  0
O  O91  1  0.92818045  0.69618718  0.63804645  1  -1.129203  0  -0.3581  -0.441858  0  2.241289  0
O  O92  1  0.62940018  0.59008896  0.90838307  1  -1.151486  0  -0.357471  -0.435206  0  2.257803  0
O  O93  1  0.37062015  0.40995116  0.09159391  1  -1.15112  0  -0.357521  -0.43522  0  2.258216  0
O  O94  1  0.75985244  0.91215683  0.48410098  1  -1.095181  0  -0.353388  -0.431261  0  2.249438  0
O  O95  1  0.24028057  0.08779432  0.51629235  1  -1.096816  0  -0.354052  -0.432023  0  2.248577  0
