# generated using pymatgen
data_LiH11C6S(NO2)2
_symmetry_space_group_name_H-M   'P 1'
_cell_length_a   7.74372467
_cell_length_b   8.14853737
_cell_length_c   14.43171343
_cell_angle_alpha   94.79439219
_cell_angle_beta   90.00005298
_cell_angle_gamma   90.00008205
_symmetry_Int_Tables_number   1
_chemical_formula_structural   LiH11C6S(NO2)2
_chemical_formula_sum   'Li4 H44 C24 S4 N8 O16'
_cell_volume   907.45525448
_cell_formula_units_Z   4
loop_
 _symmetry_equiv_pos_site_id
 _symmetry_equiv_pos_as_xyz
  1  'x, y, z'
loop_
 _atom_site_type_symbol
 _atom_site_label
 _atom_site_symmetry_multiplicity
 _atom_site_fract_x
 _atom_site_fract_y
 _atom_site_fract_z
 _atom_site_occupancy
 _atom_site_hle17_bader_spin_density
 _atom_site_hle17_ddec_charge
 _atom_site_hle17_ddec_spin_density
 _atom_site_hle17_ddec_sum_bond_order
 _atom_site_hle17_magmom
 _atom_site_hse06_10hf_bader_spin_density
 _atom_site_hse06_10hf_ddec_charge
 _atom_site_hse06_10hf_ddec_spin_density
 _atom_site_hse06_10hf_ddec_sum_bond_order
 _atom_site_hse06_10hf_magmom
 _atom_site_hse06_bader_spin_density
 _atom_site_hse06_ddec_charge
 _atom_site_hse06_ddec_spin_density
 _atom_site_hse06_ddec_sum_bond_order
 _atom_site_hse06_magmom
 _atom_site_pbe_bader_spin_density
 _atom_site_pbe_cm5_charge
 _atom_site_pbe_ddec_charge
 _atom_site_pbe_ddec_spin_density
 _atom_site_pbe_ddec_sum_bond_order
 _atom_site_pbe_magmom
Li  Li0  1  0.78421094  0.32718948  0.26084396  1  0  0.850894  0  0.402702  0  0  0.806976  0  0.514511  0  0  0.815852  0  0.499065  0  0  0.519557  0.800641  0  0.525457  0
Li  Li1  1  0.28421019  0.67281012  0.23915576  1  0  0.850903  0  0.402703  0  0  0.807001  0  0.51448  0  0  0.815877  0  0.499037  0  0  0.519563  0.800664  0  0.525426  0
Li  Li2  1  0.21578876  0.67280985  0.73915640  1  0  0.850891  0  0.402702  0  0  0.806984  0  0.514493  0  0  0.81586  0  0.499049  0  0  0.519553  0.800647  0  0.525439  0
Li  Li3  1  0.71578951  0.32719045  0.76084396  1  0  0.850895  0  0.402709  0  0  0.806977  0  0.514515  0  0  0.815855  0  0.499068  0  0  0.519549  0.800639  0  0.525462  0
H  H4  1  0.06409608  0.14772534  0.23453921  1  0  0.442128  0  0.849344  0  0  0.41416  0  0.906488  0  0  0.423668  0  0.892616  0  0  0.302148  0.407485  0  0.916217  0
H  H5  1  0.56409504  0.85227394  0.26546107  1  0  0.442116  0  0.849361  0  0  0.414144  0  0.906513  0  0  0.423652  0  0.89264  0  0  0.302141  0.407469  0  0.916242  0
H  H6  1  0.93590621  0.85227397  0.76546391  1  0  0.442149  0  0.849305  0  0  0.414182  0  0.906448  0  0  0.42369  0  0.892576  0  0  0.302157  0.407506  0  0.916177  0
H  H7  1  0.43590337  0.14772665  0.73453658  1  0  0.442131  0  0.849336  0  0  0.414161  0  0.906484  0  0  0.423669  0  0.892611  0  0  0.30213  0.407485  0  0.916212  0
H  H8  1  0.90574008  0.02932475  0.25185256  1  0  0.435882  0  0.854713  0  0  0.407837  0  0.91298  0  0  0.417134  0  0.899257  0  0  0.302776  0.401261  0  0.922697  0
H  H9  1  0.40574109  0.97067503  0.24814723  1  0  0.435894  0  0.854696  0  0  0.40785  0  0.912961  0  0  0.417147  0  0.899237  0  0  0.302781  0.401274  0  0.92268  0
H  H10  1  0.09426220  0.97067456  0.74815057  1  0  0.435909  0  0.854678  0  0  0.407867  0  0.912941  0  0  0.417165  0  0.899213  0  0  0.302793  0.40129  0  0.922659  0
H  H11  1  0.59425991  0.02932556  0.75185042  1  0  0.435925  0  0.854656  0  0  0.407881  0  0.912923  0  0  0.417178  0  0.899198  0  0  0.302791  0.401304  0  0.922642  0
H  H12  1  0.72072387  0.55760314  0.60784701  1  0  0.326881  0  0.902168  0  0  0.31017  0  0.95767  0  0  0.31855  0  0.950877  0  0  0.32346  0.304257  0  0.962494  0
H  H13  1  0.22072433  0.44239717  0.89215335  1  0  0.326894  0  0.902157  0  0  0.310176  0  0.957663  0  0  0.318556  0  0.95087  0  0  0.323467  0.304263  0  0.962485  0
H  H14  1  0.27927583  0.44239744  0.39215202  1  0  0.326914  0  0.902145  0  0  0.310175  0  0.957667  0  0  0.318555  0  0.950874  0  0  0.323458  0.304263  0  0.962491  0
H  H15  1  0.77927537  0.55760339  0.10784776  1  0  0.326869  0  0.902178  0  0  0.310154  0  0.957685  0  0  0.318534  0  0.950894  0  0  0.32345  0.304241  0  0.962508  0
H  H16  1  0.52897868  0.28088996  0.54768788  1  0  0.090064  0  0.936801  0  0  0.10516  0  0.998488  0  0  0.106435  0  0.998895  0  0  0.103174  0.1042  0  0.998321  0
H  H17  1  0.02897707  0.71911007  0.95231169  1  0  0.090052  0  0.936801  0  0  0.105153  0  0.998486  0  0  0.106427  0  0.998894  0  0  0.103176  0.104188  0  0.998318  0
H  H18  1  0.47102232  0.71911062  0.45231116  1  0  0.090062  0  0.9368  0  0  0.105161  0  0.998485  0  0  0.106436  0  0.998892  0  0  0.103169  0.104198  0  0.998317  0
H  H19  1  0.97102134  0.28089172  0.04768879  1  0  0.09007  0  0.936789  0  0  0.105157  0  0.998474  0  0  0.106432  0  0.998882  0  0  0.103169  0.104193  0  0.998306  0
H  H20  1  0.73846309  0.20130291  0.55333789  1  0  0.098106  0  0.943075  0  0  0.115486  0  1.001949  0  0  0.117233  0  1.001391  0  0  0.106162  0.11421  0  1.002433  0
H  H21  1  0.23846288  0.79869496  0.94666236  1  0  0.098083  0  0.943023  0  0  0.115468  0  1.001906  0  0  0.117213  0  1.001349  0  0  0.10615  0.114186  0  1.002388  0
H  H22  1  0.26153662  0.79869767  0.44666045  1  0  0.098147  0  0.943001  0  0  0.115505  0  1.001911  0  0  0.117252  0  1.001352  0  0  0.106162  0.114224  0  1.002395  0
H  H23  1  0.76153554  0.20130436  0.05333938  1  0  0.098134  0  0.943038  0  0  0.115499  0  1.001919  0  0  0.117245  0  1.001361  0  0  0.106158  0.114217  0  1.002401  0
H  H24  1  0.55887227  0.01751462  0.44175631  1  0  0.094591  0  0.984719  0  0  0.118243  0  1.044025  0  0  0.119025  0  1.045165  0  0  0.088825  0.117606  0  1.043341  0
H  H25  1  0.05887168  0.98248588  0.05824403  1  0  0.094602  0  0.984686  0  0  0.118258  0  1.043983  0  0  0.119041  0  1.045124  0  0  0.08884  0.117619  0  1.0433  0
H  H26  1  0.44112872  0.98248595  0.55824411  1  0  0.094602  0  0.984667  0  0  0.118251  0  1.043981  0  0  0.119034  0  1.045121  0  0  0.088839  0.117614  0  1.043297  0
H  H27  1  0.94112932  0.01751591  0.94175644  1  0  0.094634  0  0.984645  0  0  0.118246  0  1.044001  0  0  0.119028  0  1.045141  0  0  0.088835  0.117608  0  1.043317  0
H  H28  1  0.72550528  0.10732145  0.38052243  1  0  0.092015  0  0.986767  0  0  0.111095  0  1.055593  0  0  0.112772  0  1.055115  0  0  0.094581  0.109822  0  1.05604  0
H  H29  1  0.22550336  0.89267683  0.11947788  1  0  0.092018  0  0.986768  0  0  0.111083  0  1.055624  0  0  0.112758  0  1.05515  0  0  0.094584  0.109809  0  1.056071  0
H  H30  1  0.27449572  0.89267788  0.61947723  1  0  0.092013  0  0.986759  0  0  0.111089  0  1.055597  0  0  0.112765  0  1.055121  0  0  0.094578  0.109816  0  1.056045  0
H  H31  1  0.77449505  0.10732250  0.88052317  1  0  0.092031  0  0.986726  0  0  0.111104  0  1.055571  0  0  0.112781  0  1.055095  0  0  0.094581  0.109831  0  1.056018  0
H  H32  1  0.51300036  0.18622160  0.37601460  1  0  0.089286  0  0.98141  0  0  0.105348  0  1.054995  0  0  0.107169  0  1.054171  0  0  0.089379  0.103937  0  1.055731  0
H  H33  1  0.01299704  0.81377760  0.12398566  1  0  0.08932  0  0.981391  0  0  0.105352  0  1.055012  0  0  0.107176  0  1.054186  0  0  0.089382  0.103939  0  1.055748  0
H  H34  1  0.48700063  0.81377651  0.62398500  1  0  0.089291  0  0.981376  0  0  0.105355  0  1.054958  0  0  0.107178  0  1.054132  0  0  0.089367  0.103944  0  1.055694  0
H  H35  1  0.98700008  0.18622418  0.87601551  1  0  0.08925  0  0.981481  0  0  0.105312  0  1.055062  0  0  0.107135  0  1.054236  0  0  0.089357  0.103901  0  1.055796  0
H  H36  1  0.91441247  0.91053028  0.47798000  1  0  0.12409  0  0.962602  0  0  0.146113  0  1.019914  0  0  0.147376  0  1.020238  0  0  0.101265  0.145126  0  1.019771  0
H  H37  1  0.41441306  0.08946952  0.02201910  1  0  0.124057  0  0.962654  0  0  0.146077  0  1.019979  0  0  0.147339  0  1.020304  0  0  0.101244  0.145089  0  1.019836  0
H  H38  1  0.08558723  0.08946905  0.52202036  1  0  0.124065  0  0.962615  0  0  0.14608  0  1.019943  0  0  0.147343  0  1.020266  0  0  0.101252  0.145093  0  1.019799  0
H  H39  1  0.58558535  0.91052982  0.97798056  1  0  0.124084  0  0.962616  0  0  0.146099  0  1.01995  0  0  0.147368  0  1.020266  0  0  0.101252  0.145112  0  1.019808  0
H  H40  1  0.97167047  0.82456767  0.58359452  1  0  0.128244  0  0.955286  0  0  0.146046  0  1.020446  0  0  0.148607  0  1.018685  0  0  0.103354  0.144147  0  1.021792  0
H  H41  1  0.47167057  0.17543301  0.91640530  1  0  0.128243  0  0.955286  0  0  0.146046  0  1.020447  0  0  0.148607  0  1.018686  0  0  0.103354  0.144147  0  1.021793  0
H  H42  1  0.02833181  0.17543166  0.41640583  1  0  0.128318  0  0.955265  0  0  0.146043  0  1.020506  0  0  0.148604  0  1.018743  0  0  0.103341  0.144137  0  1.021859  0
H  H43  1  0.52832913  0.82456756  0.08359443  1  0  0.128241  0  0.955295  0  0  0.146042  0  1.02046  0  0  0.148602  0  1.018699  0  0  0.103354  0.144142  0  1.021806  0
H  H44  1  0.76058089  0.90094914  0.56866290  1  0  0.12881  0  0.94342  0  0  0.151858  0  0.99979  0  0  0.153608  0  0.999311  0  0  0.102792  0.150547  0  1.000207  0
H  H45  1  0.26058219  0.09905246  0.93133686  1  0  0.128841  0  0.943419  0  0  0.151889  0  0.999783  0  0  0.153639  0  0.999304  0  0  0.102809  0.150578  0  1.000199  0
H  H46  1  0.23941882  0.09905019  0.43133745  1  0  0.128843  0  0.943481  0  0  0.15189  0  0.99983  0  0  0.15364  0  0.999352  0  0  0.102814  0.150579  0  1.000245  0
H  H47  1  0.73941752  0.90094934  0.06866293  1  0  0.12884  0  0.943419  0  0  0.15189  0  0.999779  0  0  0.153639  0  0.999302  0  0  0.10281  0.150577  0  1.000195  0
C  C48  1  0.71844051  0.41266822  0.47778381  1  0  0.405191  0  3.676005  0  0  0.378817  0  3.95211  0  0  0.393352  0  3.965779  0  0  0.228904  0.369249  0  3.942558  0
C  C49  1  0.21843798  0.58733127  0.02221725  1  0  0.405127  0  3.676153  0  0  0.378725  0  3.952311  0  0  0.393258  0  3.965978  0  0  0.228879  0.369151  0  3.942752  0
C  C50  1  0.28155790  0.58733235  0.52221591  1  0  0.405261  0  3.676077  0  0  0.378851  0  3.952187  0  0  0.393385  0  3.965855  0  0  0.228907  0.369279  0  3.942634  0
C  C51  1  0.78155785  0.41266929  0.97778385  1  0  0.405206  0  3.676071  0  0  0.378832  0  3.952157  0  0  0.393366  0  3.965828  0  0  0.228928  0.369258  0  3.942599  0
C  C52  1  0.64650992  0.25463003  0.50594551  1  0  -0.172168  0  3.72417  0  0  -0.207912  0  3.977854  0  0  -0.210438  0  3.98891  0  0  -0.150531  -0.206066  0  3.970068  0
C  C53  1  0.14650842  0.74536770  0.99405538  1  0  -0.172122  0  3.724134  0  0  -0.207857  0  3.977814  0  0  -0.210382  0  3.988875  0  0  -0.150522  -0.205993  0  3.969995  0
C  C54  1  0.35348849  0.74536931  0.49405346  1  0  -0.172204  0  3.724118  0  0  -0.207925  0  3.977788  0  0  -0.210452  0  3.988848  0  0  -0.15052  -0.206065  0  3.969983  0
C  C55  1  0.85348999  0.25463162  0.00594636  1  0  -0.172259  0  3.72429  0  0  -0.207945  0  3.977887  0  0  -0.21047  0  3.988945  0  0  -0.150536  -0.20608  0  3.970073  0
C  C56  1  0.60860939  0.13493802  0.42158025  1  0  -0.282145  0  3.729142  0  0  -0.362888  0  3.980626  0  0  -0.364847  0  3.990493  0  0  -0.244145  -0.361177  0  3.973726  0
C  C57  1  0.10860736  0.86506132  0.07842006  1  0  -0.282173  0  3.729074  0  0  -0.362897  0  3.980578  0  0  -0.364854  0  3.990434  0  0  -0.244162  -0.36119  0  3.973668  0
C  C58  1  0.39139031  0.86506131  0.57841941  1  0  -0.282143  0  3.729022  0  0  -0.36289  0  3.980524  0  0  -0.364845  0  3.990376  0  0  -0.244141  -0.361182  0  3.973621  0
C  C59  1  0.89139105  0.13494047  0.92158180  1  0  -0.28212  0  3.729149  0  0  -0.362851  0  3.980643  0  0  -0.364808  0  3.990499  0  0  -0.244123  -0.361144  0  3.973733  0
C  C60  1  0.81607461  0.67204048  0.48894132  1  0  0.255668  0  3.715202  0  0  0.238242  0  3.98759  0  0  0.24688  0  4.007805  0  0  0.098992  0.232546  0  3.973877  0
C  C61  1  0.31607425  0.32795917  0.01105842  1  0  0.255654  0  3.715126  0  0  0.238221  0  3.987486  0  0  0.246871  0  4.007705  0  0  0.098957  0.232523  0  3.973767  0
C  C62  1  0.18392767  0.32795885  0.51105904  1  0  0.255593  0  3.715105  0  0  0.23818  0  3.987401  0  0  0.246819  0  4.007617  0  0  0.09892  0.23248  0  3.973687  0
C  C63  1  0.68392416  0.67204140  0.98894131  1  0  0.255609  0  3.715237  0  0  0.238215  0  3.987582  0  0  0.246851  0  4.0078  0  0  0.09895  0.232517  0  3.973862  0
C  C64  1  0.86817761  0.83562161  0.53225840  1  0  -0.36089  0  3.707244  0  0  -0.438888  0  3.94174  0  0  -0.441818  0  3.949004  0  0  -0.232395  -0.436587  0  3.936799  0
C  C65  1  0.36817778  0.16437768  0.96774129  1  0  -0.360871  0  3.707288  0  0  -0.438866  0  3.941764  0  0  -0.441795  0  3.949027  0  0  -0.232378  -0.436566  0  3.936822  0
C  C66  1  0.13182468  0.16437772  0.46774126  1  0  -0.360929  0  3.707358  0  0  -0.438864  0  3.941802  0  0  -0.441794  0  3.949066  0  0  -0.232373  -0.436555  0  3.936866  0
C  C67  1  0.63182193  0.83562289  0.03225843  1  0  -0.360884  0  3.707286  0  0  -0.438881  0  3.941746  0  0  -0.441816  0  3.949006  0  0  -0.232384  -0.436583  0  3.936806  0
C  C68  1  0.82201090  0.60331912  0.39803569  1  0  -0.147503  0  3.794217  0  0  -0.144188  0  4.077092  0  0  -0.150639  0  4.096012  0  0  0.056993  -0.140185  0  4.064801  0
C  C69  1  0.32201080  0.39668053  0.10196474  1  0  -0.147586  0  3.794299  0  0  -0.144207  0  4.077082  0  0  -0.150703  0  4.09606  0  0  0.056986  -0.140196  0  4.064776  0
C  C70  1  0.17799009  0.39668021  0.60196466  1  0  -0.147507  0  3.794253  0  0  -0.144188  0  4.077113  0  0  -0.150652  0  4.09605  0  0  0.056999  -0.140175  0  4.064809  0
C  C71  1  0.67798891  0.60332003  0.89803568  1  0  -0.147537  0  3.794261  0  0  -0.144233  0  4.077126  0  0  -0.150683  0  4.096045  0  0  0.056985  -0.140218  0  4.064812  0
S  S72  1  0.89610700  0.68422474  0.29638085  1  0  1.354713  0  5.642402  0  0  1.254544  0  6.165639  0  0  1.303453  0  6.137421  0  0  0.545595  1.220854  0  6.184289  0
S  S73  1  0.39610824  0.31577626  0.20361899  1  0  1.354726  0  5.642416  0  0  1.254543  0  6.165649  0  0  1.303462  0  6.137436  0  0  0.545596  1.220848  0  6.184302  0
S  S74  1  0.10389399  0.31577706  0.70361893  1  0  1.354572  0  5.642553  0  0  1.254379  0  6.16582  0  0  1.30329  0  6.137608  0  0  0.545497  1.220685  0  6.18447  0
S  S75  1  0.60389275  0.68422431  0.79638143  1  0  1.354702  0  5.642367  0  0  1.254542  0  6.165598  0  0  1.303448  0  6.137378  0  0  0.54559  1.220847  0  6.184247  0
N  N76  1  0.76238702  0.44283625  0.39176737  1  0  -0.519221  0  3.145145  0  0  -0.48876  0  3.422573  0  0  -0.50108  0  3.436183  0  0  -0.422269  -0.480446  0  3.413473  0
N  N77  1  0.26238329  0.55716331  0.10823371  1  0  -0.519195  0  3.145234  0  0  -0.488757  0  3.422666  0  0  -0.501064  0  3.436291  0  0  -0.422266  -0.480443  0  3.413556  0
N  N78  1  0.23761398  0.55716432  0.60823235  1  0  -0.51925  0  3.145176  0  0  -0.488808  0  3.42264  0  0  -0.501125  0  3.436254  0  0  -0.422287  -0.480497  0  3.413541  0
N  N79  1  0.73761254  0.44283724  0.89176739  1  0  -0.519187  0  3.145141  0  0  -0.488734  0  3.42258  0  0  -0.501055  0  3.436191  0  0  -0.42227  -0.480426  0  3.413481  0
N  N80  1  0.74951357  0.54836191  0.53780024  1  0  -0.37733  0  3.318131  0  0  -0.315963  0  3.546441  0  0  -0.333645  0  3.558475  0  0  -0.368448  -0.304154  0  3.538276  0
N  N81  1  0.24951287  0.45163844  0.96220014  1  0  -0.377294  0  3.318115  0  0  -0.315909  0  3.54642  0  0  -0.333587  0  3.558446  0  0  -0.368421  -0.304101  0  3.538254  0
N  N82  1  0.25048614  0.45163866  0.46219948  1  0  -0.377366  0  3.318072  0  0  -0.315906  0  3.546279  0  0  -0.333583  0  3.558303  0  0  -0.368379  -0.304097  0  3.538117  0
N  N83  1  0.75048554  0.54836213  0.03780028  1  0  -0.377291  0  3.318139  0  0  -0.315935  0  3.546438  0  0  -0.333615  0  3.55847  0  0  -0.368436  -0.304127  0  3.538271  0
O  O84  1  0.86861619  0.54713905  0.22400353  1  0  -0.726837  0  1.976012  0  0  -0.677434  0  2.227858  0  0  -0.695824  0  2.209972  0  0  -0.370575  -0.664453  0  2.239743  0
O  O85  1  0.36861776  0.45286190  0.27599699  1  0  -0.726829  0  1.975986  0  0  -0.677431  0  2.227843  0  0  -0.695823  0  2.209954  0  0  -0.370573  -0.664451  0  2.239731  0
O  O86  1  0.13138351  0.45286152  0.77599688  1  0  -0.726728  0  1.976024  0  0  -0.677313  0  2.227868  0  0  -0.695705  0  2.209984  0  0  -0.370497  -0.664332  0  2.239751  0
O  O87  1  0.63138324  0.54713866  0.72400343  1  0  -0.726808  0  1.975972  0  0  -0.677405  0  2.227817  0  0  -0.695799  0  2.209931  0  0  -0.370556  -0.664425  0  2.239704  0
O  O88  1  0.07864384  0.72804139  0.31048311  1  0  -0.729065  0  1.962836  0  0  -0.683552  0  2.221144  0  0  -0.703863  0  2.205414  0  0  -0.398497  -0.669257  0  2.23155  0
O  O89  1  0.57864310  0.27195915  0.18951586  1  0  -0.729062  0  1.962853  0  0  -0.683559  0  2.221176  0  0  -0.703869  0  2.20544  0  0  -0.398504  -0.669264  0  2.231585  0
O  O90  1  0.92135715  0.27195919  0.68951592  1  0  -0.729024  0  1.962836  0  0  -0.68351  0  2.221155  0  0  -0.703822  0  2.205423  0  0  -0.398481  -0.669214  0  2.231564  0
O  O91  1  0.42135661  0.72804142  0.81048387  1  0  -0.729069  0  1.96283  0  0  -0.683564  0  2.221144  0  0  -0.703876  0  2.205414  0  0  -0.398507  -0.669269  0  2.231553  0
O  O92  1  0.79318763  0.83154948  0.27939562  1  0  -0.693454  0  1.981003  0  0  -0.628722  0  2.213645  0  0  -0.651635  0  2.199163  0  0  -0.321545  -0.612738  0  2.223271  0
O  O93  1  0.29318739  0.16845012  0.22060549  1  0  -0.69344  0  1.980966  0  0  -0.628709  0  2.213611  0  0  -0.651615  0  2.199123  0  0  -0.321533  -0.612722  0  2.223241  0
O  O94  1  0.20681336  0.16845108  0.72060479  1  0  -0.693437  0  1.981  0  0  -0.628691  0  2.213634  0  0  -0.651602  0  2.199153  0  0  -0.321541  -0.612708  0  2.223266  0
O  O95  1  0.70681361  0.83154920  0.77939556  1  0  -0.693461  0  1.980977  0  0  -0.628726  0  2.21361  0  0  -0.651633  0  2.199125  0  0  -0.321545  -0.612738  0  2.223239  0
O  O96  1  0.93772993  0.14359638  0.24268443  1  0  -0.907978  0  1.747584  0  0  -0.861802  0  1.912038  0  0  -0.877339  0  1.881751  0  0  -0.659551  -0.850831  0  1.933186  0
O  O97  1  0.43772949  0.85640223  0.25731462  1  0  -0.907966  0  1.747572  0  0  -0.861805  0  1.912043  0  0  -0.877342  0  1.881756  0  0  -0.659552  -0.850835  0  1.933191  0
O  O98  1  0.06227235  0.85640292  0.75732008  1  0  -0.907996  0  1.74748  0  0  -0.861855  0  1.91198  0  0  -0.877394  0  1.881693  0  0  -0.659573  -0.850885  0  1.93313  0
O  O99  1  0.56227021  0.14359959  0.74268378  1  0  -0.908016  0  1.747523  0  0  -0.861856  0  1.912007  0  0  -0.877396  0  1.881719  0  0  -0.659546  -0.850885  0  1.933157  0
