# generated using pymatgen
data_TbAgH6C14(NO4)2
_symmetry_space_group_name_H-M   'P 1'
_cell_length_a   7.22169685
_cell_length_b   10.18598715
_cell_length_c   11.50340869
_cell_angle_alpha   97.85170566
_cell_angle_beta   101.37672283
_cell_angle_gamma   94.90716061
_symmetry_Int_Tables_number   1
_chemical_formula_structural   TbAgH6C14(NO4)2
_chemical_formula_sum   'Tb2 Ag2 H12 C28 N4 O16'
_cell_volume   816.25696870
_cell_formula_units_Z   2
loop_
 _symmetry_equiv_pos_site_id
 _symmetry_equiv_pos_as_xyz
  1  'x, y, z'
loop_
 _atom_site_type_symbol
 _atom_site_label
 _atom_site_symmetry_multiplicity
 _atom_site_fract_x
 _atom_site_fract_y
 _atom_site_fract_z
 _atom_site_occupancy
 _atom_site_pbe_bader_charge
 _atom_site_pbe_bader_spin_density
 _atom_site_pbe_cm5_charge
 _atom_site_pbe_ddec_charge
 _atom_site_pbe_ddec_spin_density
 _atom_site_pbe_ddec_sum_bond_order
 _atom_site_pbe_magmom
Tb  Tb0  1  0.25916206  0.47486079  0.56888466  1  2.190134  0  1.511238  2.081461  0  2.091219  0
Tb  Tb1  1  0.74083698  0.52514042  0.43111396  1  2.19011  0  1.511209  2.081467  0  2.091177  0
Ag  Ag2  1  0.28729119  0.76907019  0.19954233  1  0.580373  0  0.473176  0.362753  0  1.767451  0
Ag  Ag3  1  0.71270892  0.23092900  0.80045702  1  0.580376  0  0.473178  0.362781  0  1.767449  0
H  H4  1  0.20047095  0.65541993  0.92920079  1  0.118838  0  0.121933  0.099293  0  0.995178  0
H  H5  1  0.79953197  0.34457928  0.07079717  1  0.118952  0  0.121938  0.099306  0  0.995176  0
H  H6  1  0.56605827  0.62447742  0.02346517  1  0.086771  0  0.1082  0.115169  0  1.018885  0
H  H7  1  0.43394042  0.37552179  0.97653315  1  0.086816  0  0.108209  0.115182  0  1.018884  0
H  H8  1  0.86064035  0.69829895  0.18099308  1  0.169207  0  0.121546  0.097103  0  1.03546  0
H  H9  1  0.13936099  0.30169925  0.81900543  1  0.169162  0  0.121562  0.09709  0  1.035477  0
H  H10  1  0.73067740  0.85017635  0.26828618  1  0.125129  0  0.121833  0.091262  0  1.013207  0
H  H11  1  0.26932181  0.14982587  0.73171174  1  0.125091  0  0.12185  0.091286  0  1.013221  0
H  H12  1  0.95851879  0.03521327  0.39366704  1  0.08477  0  0.114972  0.128194  0  1.003737  0
H  H13  1  0.04147566  0.96479396  0.60633184  1  0.084721  0  0.114951  0.128196  0  1.003595  0
H  H14  1  0.26830990  0.03610632  0.34338552  1  0.112201  0  0.121901  0.094479  0  1.001155  0
H  H15  1  0.73168828  0.96388982  0.65661754  1  0.112243  0  0.121892  0.094453  0  1.001031  0
C  C16  1  0.05827803  0.64806187  0.94806524  1  0.442474  0  0.050016  0.068483  0  3.924167  0
C  C17  1  0.94172490  0.35193732  0.05193359  1  0.442412  0  0.049961  0.068424  0  3.924304  0
C  C18  1  0.90299501  0.60094696  0.85429008  1  0.035547  0  -0.005155  -0.091918  0  3.904192  0
C  C19  1  0.09700792  0.39905222  0.14570962  1  0.035512  0  -0.005092  -0.091874  0  3.904111  0
C  C20  1  0.71998203  0.59352438  0.87926771  1  -0.022626  0  0.019278  0.028003  0  3.886212  0
C  C21  1  0.28002108  0.40647578  0.12073302  1  -0.022666  0  0.019216  0.027942  0  3.886171  0
C  C22  1  0.70398485  0.63051513  0.99819488  1  -0.008098  0  -0.081226  -0.151595  0  3.935609  0
C  C23  1  0.29601420  0.36948608  0.00180375  1  -0.008226  0  -0.081199  -0.151597  0  3.935671  0
C  C24  1  0.86660898  0.67407877  0.08684886  1  0.445036  0  0.049663  0.096217  0  3.921152  0
C  C25  1  0.13339360  0.32591839  0.91315139  1  0.445096  0  0.049588  0.09621  0  3.921212  0
C  C26  1  0.93822207  0.55946641  0.73062561  1  1.630656  0  0.233062  0.646976  0  4.164135  0
C  C27  1  0.06178668  0.44053373  0.26937493  1  1.630669  0  0.233063  0.647076  0  4.164114  0
C  C28  1  0.54504650  0.54732799  0.78181533  1  1.60635  0  0.196498  0.584665  0  4.239412  0
C  C29  1  0.45495784  0.45267119  0.21818368  1  1.608161  0  0.196539  0.584725  0  4.23942  0
C  C30  1  0.67936295  0.93708656  0.31192396  1  0.508113  0  0.055816  0.112773  0  3.925623  0
C  C31  1  0.32063309  0.06291366  0.68807417  1  0.507951  0  0.055788  0.112706  0  3.925797  0
C  C32  1  0.80636275  0.04104450  0.38240089  1  0.040041  0  -0.071551  -0.134674  0  3.904332  0
C  C33  1  0.19363630  0.95895668  0.61759947  1  0.040283  0  -0.071549  -0.134664  0  3.904271  0
C  C34  1  0.73734833  0.14871323  0.44264253  1  -0.069118  0  0.030217  0.024092  0  3.854848  0
C  C35  1  0.26264754  0.85128593  0.55735979  1  -0.0692  0  0.030214  0.0241  0  3.854782  0
C  C36  1  0.53921118  0.14808499  0.42648827  1  0.081085  0  -0.002008  -0.087866  0  3.927033  0
C  C37  1  0.46078752  0.85191417  0.57351352  1  0.081084  0  -0.001981  -0.08776  0  3.927152  0
C  C38  1  0.42196226  0.03947369  0.35451172  1  0.480053  0  0.057688  0.082229  0  3.904945  0
C  C39  1  0.57803221  0.96052548  0.64549043  1  0.480073  0  0.057756  0.082296  0  3.904992  0
C  C40  1  0.87916738  0.25082125  0.53131470  1  1.654273  0  0.235441  0.63764  0  4.163507  0
C  C41  1  0.12082884  0.74917995  0.46868532  1  1.654249  0  0.235399  0.637494  0  4.163603  0
C  C42  1  0.45040480  0.25889559  0.48408294  1  1.578764  0  0.213841  0.61905  0  4.187922  0
C  C43  1  0.54959566  0.74110553  0.51592020  1  1.579042  0  0.213771  0.618899  0  4.188227  0
N  N44  1  0.04219949  0.68476265  0.06224240  1  -1.210396  0  -0.351846  -0.211121  0  3.6601  0
N  N45  1  0.95780238  0.31523853  0.93775744  1  -1.2104  0  -0.351798  -0.211124  0  3.66026  0
N  N46  1  0.48909929  0.93507900  0.29813560  1  -1.241448  0  -0.348836  -0.21184  0  3.638956  0
N  N47  1  0.51089835  0.06492216  0.70186633  1  -1.241452  0  -0.348853  -0.211866  0  3.639067  0
O  O48  1  0.09974514  0.52131759  0.72545730  1  -1.179343  0  -0.391219  -0.665644  0  2.350687  0
O  O49  1  0.90025461  0.47867960  0.27454175  1  -1.179285  0  -0.391216  -0.665719  0  2.350572  0
O  O50  1  0.80470366  0.56660171  0.64331598  1  -1.191376  0  -0.365615  -0.61628  0  2.357749  0
O  O51  1  0.19529503  0.43339753  0.35668060  1  -1.191411  0  -0.365638  -0.616324  0  2.35786  0
O  O52  1  0.48929774  0.42225336  0.75144078  1  -1.166524  0  -0.357236  -0.622748  0  2.238792  0
O  O53  1  0.51070219  0.57774482  0.24855929  1  -1.168259  0  -0.357238  -0.622777  0  2.23882  0
O  O54  1  0.45825472  0.63588808  0.73480177  1  -1.163283  0  -0.359497  -0.589491  0  2.209821  0
O  O55  1  0.54174802  0.36411014  0.26519517  1  -1.163324  0  -0.35951  -0.589488  0  2.209804  0
O  O56  1  0.93863799  0.22028281  0.63215343  1  -1.159529  0  -0.286799  -0.523055  0  2.177363  0
O  O57  1  0.06136105  0.77971840  0.36784520  1  -1.159565  0  -0.286787  -0.522986  0  2.177348  0
O  O58  1  0.93622309  0.35811520  0.49357379  1  -1.205839  0  -0.439175  -0.753896  0  2.440886  0
O  O59  1  0.06377560  0.64188401  0.50642452  1  -1.205814  0  -0.439159  -0.753852  0  2.440887  0
O  O60  1  0.54295266  0.37605192  0.50996780  1  -1.189577  0  -0.422186  -0.71247  0  2.459222  0
O  O61  1  0.45704497  0.62394928  0.49003153  1  -1.189345  0  -0.422189  -0.71245  0  2.459259  0
O  O62  1  0.28722255  0.23847030  0.50726413  1  -1.16262  0  -0.353941  -0.597226  0  2.22339  0
O  O63  1  0.71277685  0.76153283  0.49273915  1  -1.163096  0  -0.353906  -0.597168  0  2.223454  0
