# generated using pymatgen
data_KH26C16S(NO3)3
_symmetry_space_group_name_H-M   'P 1'
_cell_length_a   8.04206754
_cell_length_b   8.41151592
_cell_length_c   15.85200000
_cell_angle_alpha   94.33061801
_cell_angle_beta   102.99890635
_cell_angle_gamma   95.46859659
_symmetry_Int_Tables_number   1
_chemical_formula_structural   KH26C16S(NO3)3
_chemical_formula_sum   'K2 H52 C32 S2 N6 O18'
_cell_volume   1034.88101109
_cell_formula_units_Z   2
loop_
 _symmetry_equiv_pos_site_id
 _symmetry_equiv_pos_as_xyz
  1  'x, y, z'
loop_
 _atom_site_type_symbol
 _atom_site_label
 _atom_site_symmetry_multiplicity
 _atom_site_fract_x
 _atom_site_fract_y
 _atom_site_fract_z
 _atom_site_occupancy
 _atom_site_hle17_bader_spin_density
 _atom_site_hle17_ddec_charge
 _atom_site_hle17_ddec_spin_density
 _atom_site_hle17_ddec_sum_bond_order
 _atom_site_hle17_magmom
 _atom_site_hse06_10hf_bader_spin_density
 _atom_site_hse06_10hf_ddec_charge
 _atom_site_hse06_10hf_ddec_spin_density
 _atom_site_hse06_10hf_ddec_sum_bond_order
 _atom_site_hse06_10hf_magmom
 _atom_site_hse06_bader_spin_density
 _atom_site_hse06_ddec_charge
 _atom_site_hse06_ddec_spin_density
 _atom_site_hse06_ddec_sum_bond_order
 _atom_site_hse06_magmom
 _atom_site_pbe_bader_charge
 _atom_site_pbe_bader_spin_density
 _atom_site_pbe_cm5_charge
 _atom_site_pbe_ddec_charge
 _atom_site_pbe_ddec_spin_density
 _atom_site_pbe_ddec_sum_bond_order
 _atom_site_pbe_magmom
K  K0  1  0.43027266  0.76367310  0.51548635  1  0  0.917381  0  0.455926  0  0  0.881466  0  0.627673  0  0  0.893368  0  0.604784  0  0.88355  0  0.728366  0.872123  0  0.644402  0
K  K1  1  0.56972541  0.23632805  0.48451152  1  0  0.917385  0  0.455934  0  0  0.881465  0  0.627685  0  0  0.893367  0  0.604793  0  0.883536  0  0.72837  0.872112  0  0.644433  0
H  H2  1  0.95862568  0.75823218  0.40105685  1  0  0.405351  0  0.895313  0  0  0.375614  0  0.958897  0  0  0.385057  0  0.944936  0  0.625757  0  0.288976  0.368923  0  0.968793  0
H  H3  1  0.04137338  0.24176658  0.59894293  1  0  0.405385  0  0.89526  0  0  0.37565  0  0.958843  0  0  0.385092  0  0.944881  0  0.625708  0  0.288983  0.36896  0  0.968736  0
H  H4  1  0.01559947  0.76136974  0.50134148  1  0  0.411661  0  0.89146  0  0  0.38264  0  0.953495  0  0  0.391965  0  0.939597  0  0.623648  0  0.294771  0.376033  0  0.963346  0
H  H5  1  0.98439846  0.23863022  0.49865822  1  0  0.411663  0  0.89146  0  0  0.382628  0  0.953519  0  0  0.391953  0  0.939619  0  0.623337  0  0.294753  0.37602  0  0.96337  0
H  H6  1  0.26289718  0.06793177  0.57944162  1  0  0.415709  0  0.884799  0  0  0.387841  0  0.944202  0  0  0.397307  0  0.930162  0  0.623598  0  0.2903  0.381107  0  0.954195  0
H  H7  1  0.73710203  0.93206818  0.42055886  1  0  0.415691  0  0.884824  0  0  0.387829  0  0.944219  0  0  0.397295  0  0.930177  0  0.6236  0  0.290307  0.381095  0  0.954212  0
H  H8  1  0.20460395  0.07169229  0.47915904  1  0  0.414986  0  0.892629  0  0  0.386057  0  0.954047  0  0  0.395944  0  0.939239  0  0.624539  0  0.28867  0.379048  0  0.964544  0
H  H9  1  0.79539653  0.92830767  0.52084158  1  0  0.414969  0  0.892652  0  0  0.386046  0  0.954062  0  0  0.395934  0  0.939252  0  0.624527  0  0.288663  0.379037  0  0.964558  0
H  H10  1  0.45690223  0.70558013  0.29655638  1  0  0.370112  0  0.920556  0  0  0.345805  0  0.988579  0  0  0.355706  0  0.977473  0  0.63284  0  0.30048  0.338772  0  0.996512  0
H  H11  1  0.54309698  0.29441983  0.70344347  1  0  0.37014  0  0.920549  0  0  0.345784  0  0.988645  0  0  0.355687  0  0.977534  0  0.632841  0  0.300458  0.338751  0  0.996578  0
H  H12  1  0.52887103  0.97919888  0.71413520  1  0  0.403257  0  0.894903  0  0  0.375152  0  0.956145  0  0  0.384624  0  0.942288  0  0.605513  0  0.2849  0.368406  0  0.96601  0
H  H13  1  0.47112990  0.02080468  0.28586687  1  0  0.403303  0  0.894909  0  0  0.375202  0  0.956097  0  0  0.384673  0  0.942243  0  0.605552  0  0.284912  0.368458  0  0.965958  0
H  H14  1  0.69574229  0.92224259  0.69724272  1  0  0.412568  0  0.892653  0  0  0.386102  0  0.94978  0  0  0.396019  0  0.935081  0  0.62296  0  0.283583  0.379072  0  0.960187  0
H  H15  1  0.30425736  0.07776097  0.30275858  1  0  0.412591  0  0.892623  0  0  0.386125  0  0.949752  0  0  0.396041  0  0.935054  0  0.622975  0  0.283557  0.379095  0  0.960158  0
H  H16  1  0.62864509  0.84211224  0.21968218  1  0  0.373973  0  0.883254  0  0  0.33698  0  0.979926  0  0  0.34698  0  0.96731  0  0.627084  0  0.303839  0.329841  0  0.988872  0
H  H17  1  0.37135539  0.15788772  0.78031845  1  0  0.37413  0  0.883093  0  0  0.337048  0  0.979871  0  0  0.347057  0  0.967289  0  0.627049  0  0.303868  0.329905  0  0.988804  0
H  H18  1  0.39596926  0.41993925  0.58413254  1  0  0.389102  0  0.930291  0  0  0.359247  0  0.995246  0  0  0.369713  0  0.979765  0  0.611935  0  0.276693  0.351869  0  1.006139  0
H  H19  1  0.60403137  0.58006191  0.41586814  1  0  0.389101  0  0.93029  0  0  0.359238  0  0.995261  0  0  0.369703  0  0.979781  0  0.611944  0  0.276694  0.351859  0  1.006154  0
H  H20  1  0.19970064  0.41560859  0.53953847  1  0  0.411682  0  0.890742  0  0  0.386754  0  0.94581  0  0  0.39672  0  0.93106  0  0.637648  0  0.282837  0.379638  0  0.956337  0
H  H21  1  0.80029984  0.58439137  0.46046216  1  0  0.411676  0  0.890754  0  0  0.38674  0  0.945839  0  0  0.396708  0  0.931084  0  0.637646  0  0.282812  0.379628  0  0.956366  0
H  H22  1  0.42090382  0.80888573  0.94688807  1  0  0.098162  0  0.970376  0  0  0.104157  0  1.041739  0  0  0.106895  0  1.040821  0  0.051221  0  0.10255  0.102138  0  1.042591  0
H  H23  1  0.57909907  0.19111302  0.05311025  1  0  0.098179  0  0.970388  0  0  0.104179  0  1.041742  0  0  0.106923  0  1.040825  0  0.05119  0  0.102552  0.10216  0  1.042594  0
H  H24  1  0.46313421  0.54590638  0.87648028  1  0  0.080395  0  0.974501  0  0  0.091672  0  1.036891  0  0  0.094066  0  1.036424  0  0.089547  0  0.096495  0.08991  0  1.037314  0
H  H25  1  0.53687025  0.45409478  0.12351454  1  0  0.080371  0  0.974476  0  0  0.091622  0  1.036896  0  0  0.094017  0  1.036434  0  0.089451  0  0.096479  0.089861  0  1.037318  0
H  H26  1  0.31637515  0.46286772  0.72062366  1  0  0.095031  0  0.959543  0  0  0.104777  0  1.02023  0  0  0.108591  0  1.017615  0  0.081008  0  0.105539  0.101926  0  1.022398  0
H  H27  1  0.68362322  0.53713584  0.27937308  1  0  0.094999  0  0.95953  0  0  0.104782  0  1.020173  0  0  0.108595  0  1.017561  0  0.080833  0  0.105532  0.101932  0  1.022339  0
H  H28  1  0.13407446  0.64524621  0.63630642  1  0  0.109143  0  0.954279  0  0  0.119145  0  1.014385  0  0  0.122211  0  1.012533  0  0.14684  0  0.11643  0.116875  0  1.01582  0
H  H29  1  0.86591866  0.35475615  0.36369220  1  0  0.109193  0  0.954251  0  0  0.119172  0  1.014389  0  0  0.122228  0  1.01255  0  0.146888  0  0.116451  0.116904  0  1.015815  0
H  H30  1  0.14829700  0.04303290  0.09683389  1  0  0.103207  0  0.958622  0  0  0.11402  0  1.021394  0  0  0.116225  0  1.020229  0  0.09388  0  0.108013  0.112328  0  1.022369  0
H  H31  1  0.85170205  0.95696586  0.90316652  1  0  0.103208  0  0.958625  0  0  0.114018  0  1.021397  0  0  0.116216  0  1.020243  0  0.093875  0  0.108014  0.112327  0  1.022373  0
H  H32  1  0.12959374  0.27933214  0.18980302  1  0  0.104976  0  0.980558  0  0  0.113852  0  1.044507  0  0  0.116742  0  1.044276  0  0.088141  0  0.104122  0.111819  0  1.044725  0
H  H33  1  0.87040389  0.72066541  0.81019781  1  0  0.104961  0  0.980595  0  0  0.113836  0  1.044555  0  0  0.116724  0  1.044325  0  0.088168  0  0.104122  0.111806  0  1.04476  0
H  H34  1  0.22623839  0.57614175  0.98855815  1  0  0.094611  0  0.989967  0  0  0.105467  0  1.053956  0  0  0.107915  0  1.054567  0  0.072897  0  0.099382  0.103702  0  1.053733  0
H  H35  1  0.77376308  0.42385580  0.01144248  1  0  0.094677  0  0.98998  0  0  0.105516  0  1.053971  0  0  0.107964  0  1.054582  0  0.072851  0  0.099395  0.103751  0  1.053748  0
H  H36  1  0.23994327  0.33420233  0.89631232  1  0  0.100262  0  0.954805  0  0  0.107641  0  1.021978  0  0  0.110829  0  1.01894  0  0.088915  0  0.104377  0.105292  0  1.024237  0
H  H37  1  0.76005691  0.66579523  0.10368817  1  0  0.100236  0  0.954851  0  0  0.107635  0  1.021998  0  0  0.11082  0  1.018966  0  0.088893  0  0.104377  0.105286  0  1.024257  0
H  H38  1  0.03113810  0.48477666  0.23076461  1  0  0.070168  0  0.962826  0  0  0.084978  0  1.029064  0  0  0.08333  0  1.032289  0  0.073311  0  0.103735  0.086094  0  1.026871  0
H  H39  1  0.96886095  0.51522209  0.76923580  1  0  0.070168  0  0.962847  0  0  0.084989  0  1.029082  0  0  0.083337  0  1.032306  0  0.073329  0  0.103736  0.086119  0  1.026874  0
H  H40  1  0.11377393  0.68795143  0.26184218  1  0  0.095452  0  0.925003  0  0  0.110511  0  0.985267  0  0  0.11162  0  0.984221  0  0.077993  0  0.117537  0.109561  0  0.986214  0
H  H41  1  0.88622528  0.31204853  0.73815767  1  0  0.095501  0  0.925001  0  0  0.110565  0  0.985263  0  0  0.111673  0  0.984213  0  0.07799  0  0.117543  0.109608  0  0.986219  0
H  H42  1  0.23847200  0.48125381  0.36244409  1  0  0.073213  0  0.914515  0  0  0.090959  0  0.973161  0  0  0.090604  0  0.973431  0  0.080835  0  0.115989  0.091062  0  0.973126  0
H  H43  1  0.76152720  0.51874615  0.63755701  1  0  0.07322  0  0.914521  0  0  0.090961  0  0.973167  0  0  0.090606  0  0.973436  0  0.080851  0  0.116004  0.091064  0  0.973132  0
H  H44  1  0.34688735  0.41758187  0.28178819  1  0  0.050545  0  0.950233  0  0  0.063841  0  1.020472  0  0  0.06388  0  1.020769  0  0.077846  0  0.100431  0.063712  0  1.020392  0
H  H45  1  0.65311298  0.58241688  0.71821237  1  0  0.050492  0  0.950258  0  0  0.063791  0  1.020499  0  0  0.06383  0  1.020797  0  0.077835  0  0.100408  0.063663  0  1.020419  0
H  H46  1  0.17197194  0.83033737  0.16960489  1  0  0.10141  0  0.939439  0  0  0.117468  0  0.997405  0  0  0.118366  0  0.996995  0  0.098022  0  0.117608  0.1167  0  0.997896  0
H  H47  1  0.82802839  0.16966139  0.83039630  1  0  0.10139  0  0.939426  0  0  0.117449  0  0.997402  0  0  0.118347  0  0.99699  0  0.098022  0  0.117605  0.116682  0  0.997892  0
H  H48  1  0.14425305  0.75290768  0.06021478  1  0  0.079893  0  0.946698  0  0  0.089358  0  1.022038  0  0  0.088709  0  1.023377  0  0.07802  0  0.107578  0.089746  0  1.021251  0
H  H49  1  0.85574871  0.24709228  0.93978599  1  0  0.079892  0  0.946662  0  0  0.089353  0  1.02202  0  0  0.088704  0  1.023359  0  0.078277  0  0.107571  0.089742  0  1.021233  0
H  H50  1  0.45990576  0.71098145  0.09136485  1  0  0.036938  0  0.955387  0  0  0.051991  0  1.027996  0  0  0.051644  0  1.028239  0  0.027613  0  0.094017  0.052158  0  1.027919  0
H  H51  1  0.54009614  0.28901971  0.90863661  1  0  0.03694  0  0.955406  0  0  0.051965  0  1.028048  0  0  0.051616  0  1.028293  0  0.027682  0  0.093994  0.052133  0  1.027972  0
H  H52  1  0.41363732  0.91378292  0.10062783  1  0  0.052594  0  0.944463  0  0  0.063518  0  1.019259  0  0  0.062787  0  1.020008  0  0.067943  0  0.098103  0.063925  0  1.018834  0
H  H53  1  0.58636189  0.08621703  0.89937264  1  0  0.052615  0  0.944512  0  0  0.063538  0  1.019295  0  0  0.062808  0  1.02004  0  0.067931  0  0.0981  0.063945  0  1.01887  0
C  C54  1  0.17806683  0.82984165  0.74345490  1  0  -0.199861  0  3.704769  0  0  -0.177114  0  3.952706  0  0  -0.185438  0  3.973178  0  -0.22234  0  -0.017589  -0.171852  0  3.939309  0
C  C55  1  0.82193139  0.17016071  0.25654430  1  0  -0.199844  0  3.704616  0  0  -0.177125  0  3.952538  0  0  -0.185449  0  3.973009  0  -0.222302  0  -0.017588  -0.171863  0  3.93914  0
C  C56  1  0.25514456  0.87517190  0.83227334  1  0  0.169871  0  3.827896  0  0  0.165806  0  4.076919  0  0  0.170129  0  4.098868  0  0.391547  0  0.091591  0.162814  0  4.062346  0
C  C57  1  0.74485592  0.12482805  0.16772539  1  0  0.16991  0  3.827848  0  0  0.165906  0  4.076795  0  0  0.170228  0  4.09875  0  0.391533  0  0.091575  0.162913  0  4.062221  0
C  C58  1  0.35697187  0.77033353  0.87932593  1  0  -0.137126  0  3.712696  0  0  -0.155509  0  3.961465  0  0  -0.159349  0  3.981398  0  -0.051905  0  -0.088186  -0.153155  0  3.948358  0
C  C59  1  0.64303116  0.22966643  0.12067245  1  0  -0.137192  0  3.712736  0  0  -0.155577  0  3.961428  0  0  -0.159426  0  3.981369  0  -0.051683  0  -0.08818  -0.153222  0  3.948321  0
C  C60  1  0.38010080  0.62369375  0.83921539  1  0  -0.038119  0  3.755013  0  0  -0.052749  0  4.002746  0  0  -0.051223  0  4.020954  0  -0.053731  0  -0.084534  -0.053618  0  3.990499  0
C  C61  1  0.61990238  0.37630740  0.16078117  1  0  -0.037978  0  3.754842  0  0  -0.052581  0  4.002585  0  0  -0.051059  0  4.020798  0  -0.0539  0  -0.084439  -0.05345  0  3.990338  0
C  C62  1  0.29986140  0.57810063  0.75196419  1  0  -0.064272  0  3.72862  0  0  -0.079016  0  3.983122  0  0  -0.080995  0  3.999958  0  -0.038675  0  -0.084907  -0.077894  0  3.972035  0
C  C63  1  0.70014051  0.42190053  0.24803349  1  0  -0.064301  0  3.728536  0  0  -0.079075  0  3.98303  0  0  -0.081053  0  3.999866  0  -0.038521  0  -0.084931  -0.077953  0  3.971941  0
C  C64  1  0.19849615  0.68129941  0.70404573  1  0  -0.048888  0  3.75086  0  0  -0.075279  0  4.00118  0  0  -0.07267  0  4.018639  0  -0.005004  0  -0.075266  -0.076863  0  3.989518  0
C  C65  1  0.80150080  0.31870295  0.29595269  1  0  -0.049027  0  3.750823  0  0  -0.07541  0  4.00121  0  0  -0.072798  0  4.01866  0  -0.004996  0  -0.075342  -0.076989  0  3.98954  0
C  C66  1  0.20492111  0.17065283  0.99201232  1  0  0.11021  0  3.871245  0  0  0.11497  0  4.126023  0  0  0.106978  0  4.152899  0  0.39879  0  0.069441  0.119963  0  4.107976  0
C  C67  1  0.79508035  0.82934472  0.00798831  1  0  0.110184  0  3.871171  0  0  0.114901  0  4.126014  0  0  0.106911  0  4.152884  0  0.398786  0  0.069406  0.119893  0  4.107969  0
C  C68  1  0.16878646  0.16081043  0.07458447  1  0  -0.077074  0  3.740308  0  0  -0.104921  0  3.998013  0  0  -0.101142  0  4.018133  0  -0.056181  0  -0.077471  -0.107194  0  3.984481  0
C  C69  1  0.83121387  0.83918833  0.92541609  1  0  -0.077088  0  3.740323  0  0  -0.10492  0  3.99803  0  0  -0.101137  0  4.018154  0  -0.056213  0  -0.07748  -0.107195  0  3.9845  0
C  C70  1  0.15724349  0.29552169  0.12688474  1  0  -0.176432  0  3.736896  0  0  -0.196881  0  3.996922  0  0  -0.206642  0  4.018687  0  -0.031019  0  -0.103966  -0.190439  0  3.982313  0
C  C71  1  0.84275557  0.70447706  0.87311567  1  0  -0.176362  0  3.736902  0  0  -0.196812  0  3.996909  0  0  -0.206573  0  4.018673  0  -0.031019  0  -0.103934  -0.190368  0  3.982302  0
C  C72  1  0.18558207  0.45109405  0.09980845  1  0  0.217006  0  3.784582  0  0  0.20456  0  4.03074  0  0  0.21927  0  4.050523  0  0.442932  0  0.113741  0.194746  0  4.017083  0
C  C73  1  0.81441827  0.54890471  0.90019211  1  0  0.217029  0  3.784514  0  0  0.2046  0  4.030664  0  0  0.219309  0  4.050449  0  0.442928  0  0.113715  0.194786  0  4.017007  0
C  C74  1  0.21360006  0.46040832  0.01424502  1  0  -0.179796  0  3.745967  0  0  -0.195026  0  3.998782  0  0  -0.204882  0  4.020893  0  -0.044867  0  -0.10239  -0.188503  0  3.983801  0
C  C75  1  0.78640140  0.53958924  0.98575562  1  0  -0.179936  0  3.746059  0  0  -0.19516  0  3.998875  0  0  -0.205015  0  4.020982  0  -0.044761  0  -0.10241  -0.188636  0  3.983895  0
C  C76  1  0.22191548  0.32411747  0.96189481  1  0  -0.097636  0  3.736472  0  0  -0.119027  0  3.985974  0  0  -0.114688  0  4.00504  0  -0.088342  0  -0.085433  -0.121585  0  3.972966  0
C  C77  1  0.77808613  0.67588129  0.03810652  1  0  -0.097519  0  3.736476  0  0  -0.118906  0  3.985948  0  0  -0.114565  0  4.005013  0  -0.088379  0  -0.085374  -0.121464  0  3.972941  0
C  C78  1  0.14657670  0.57115094  0.23890941  1  0  -0.050154  0  3.645624  0  0  -0.112405  0  3.906164  0  0  -0.10796  0  3.918822  0  0.271576  0  -0.063992  -0.115258  0  3.897322  0
C  C79  1  0.85342236  0.42884782  0.76109036  1  0  -0.050161  0  3.645606  0  0  -0.112442  0  3.906191  0  0  -0.107983  0  3.918832  0  0.271553  0  -0.063938  -0.115299  0  3.897348  0
C  C80  1  0.29131352  0.51983242  0.30806862  1  0  0.112145  0  3.622655  0  0  0.049806  0  3.900208  0  0  0.056401  0  3.906788  0  0.4017  0  -0.075159  0.045468  0  3.895486  0
C  C81  1  0.70868568  0.48016754  0.69193185  1  0  0.112204  0  3.622677  0  0  0.049878  0  3.90022  0  0  0.05647  0  3.906798  0  0.40171  0  -0.075162  0.045537  0  3.895502  0
C  C82  1  0.21920146  0.74585596  0.12682194  1  0  -0.055518  0  3.652153  0  0  -0.116174  0  3.912069  0  0  -0.11194  0  3.924343  0  0.280366  0  -0.06683  -0.11895  0  3.903593  0
C  C83  1  0.78079887  0.25414280  0.87317861  1  0  -0.05547  0  3.652095  0  0  -0.116127  0  3.911997  0  0  -0.111892  0  3.924269  0  0.280081  0  -0.066842  -0.118914  0  3.903539  0
C  C84  1  0.40666674  0.79924858  0.12970885  1  0  0.121896  0  3.632985  0  0  0.051499  0  3.917084  0  0  0.058953  0  3.922999  0  0.41678  0  -0.078011  0.046574  0  3.912982  0
C  C85  1  0.59333375  0.20075137  0.87029240  1  0  0.121844  0  3.633087  0  0  0.051464  0  3.917156  0  0  0.058924  0  3.923065  0  0.41669  0  -0.077996  0.046538  0  3.913056  0
S  S86  1  0.04518108  0.95950808  0.68302781  1  0  1.317374  0  5.623132  0  0  1.207111  0  6.15071  0  0  1.255066  0  6.126492  0  3.175175  0  0.528675  1.174102  0  6.166402  0
S  S87  1  0.95481827  0.04049308  0.31697146  1  0  1.317268  0  5.623219  0  0  1.207027  0  6.150782  0  0  1.254981  0  6.126567  0  3.17519  0  0.52868  1.174013  0  6.166471  0
N  N88  1  0.23430353  0.02712062  0.86962610  1  0  -0.209329  0  3.045746  0  0  -0.180351  0  3.335373  0  0  -0.184168  0  3.342084  0  -0.506631  0  -0.175299  -0.177604  0  3.330677  0
N  N89  1  0.76569568  0.97287934  0.13037438  1  0  -0.20936  0  3.04577  0  0  -0.180407  0  3.335387  0  0  -0.184232  0  3.342097  0  -0.506637  0  -0.175306  -0.177658  0  3.330693  0
N  N90  1  0.21804016  0.02555303  0.94798625  1  0  -0.152467  0  3.082057  0  0  -0.12839  0  3.371475  0  0  -0.121225  0  3.378839  0  -0.534759  0  -0.158051  -0.132699  0  3.366201  0
N  N91  1  0.78196145  0.97444572  0.05201382  1  0  -0.15246  0  3.082006  0  0  -0.128366  0  3.371425  0  0  -0.121202  0  3.378792  0  -0.534716  0  -0.158036  -0.132675  0  3.36615  0
N  N92  1  0.18613573  0.58578371  0.15369830  1  0  -0.154038  0  3.387595  0  0  -0.062302  0  3.612087  0  0  -0.086057  0  3.640212  0  -1.150834  0  -0.274104  -0.045842  0  3.59217  0
N  N93  1  0.81386460  0.41421505  0.84630162  1  0  -0.154096  0  3.387546  0  0  -0.06238  0  3.612084  0  0  -0.086138  0  3.640206  0  -1.150826  0  -0.274133  -0.045919  0  3.59217  0
O  O94  1  0.16027246  0.10394056  0.67495584  1  0  -0.698349  0  1.988669  0  0  -0.630338  0  2.227705  0  0  -0.652437  0  2.211535  0  -1.338951  0  -0.330368  -0.614794  0  2.238557  0
O  O95  1  0.83973027  0.89605700  0.32504179  1  0  -0.698233  0  1.988609  0  0  -0.63027  0  2.227679  0  0  -0.652379  0  2.211501  0  -1.33906  0  -0.330386  -0.614714  0  2.238528  0
O  O96  1  0.96845017  0.86779730  0.59793887  1  0  -0.694357  0  2.038268  0  0  -0.62577  0  2.276621  0  0  -0.64732  0  2.260408  0  -1.350677  0  -0.324271  -0.610567  0  2.287359  0
O  O97  1  0.03154619  0.13220025  0.40206181  1  0  -0.694406  0  2.038365  0  0  -0.625773  0  2.276678  0  0  -0.647314  0  2.260458  0  -1.350666  0  -0.324272  -0.610576  0  2.287432  0
O  O98  1  0.00479071  0.69139627  0.44725953  1  0  -0.817535  0  1.763108  0  0  -0.764805  0  1.899663  0  0  -0.782953  0  1.872771  0  -1.254622  0  -0.591809  -0.751853  0  1.918431  0
O  O99  1  0.99520580  0.30860249  0.55274122  1  0  -0.817572  0  1.76307  0  0  -0.764827  0  1.899604  0  0  -0.782984  0  1.872729  0  -1.254256  0  -0.591809  -0.751873  0  1.918368  0
O  O100  1  0.91697132  0.99863282  0.73156625  1  0  -0.656332  0  1.995012  0  0  -0.601355  0  2.24339  0  0  -0.622873  0  2.229055  0  -1.330399  0  -0.322548  -0.586097  0  2.252743  0
O  O101  1  0.08303020  0.00137554  0.26843293  1  0  -0.656281  0  1.995031  0  0  -0.601327  0  2.243415  0  0  -0.622845  0  2.22908  0  -1.33033  0  -0.322548  -0.586068  0  2.25277  0
O  O102  1  0.30053527  0.04703227  0.52524591  1  0  -0.90625  0  1.795211  0  0  -0.865696  0  1.958964  0  0  -0.882062  0  1.928762  0  -1.270323  0  -0.728451  -0.853875  0  1.980194  0
O  O103  1  0.69946521  0.95296768  0.47475408  1  0  -0.906232  0  1.795264  0  0  -0.865676  0  1.958995  0  0  -0.882041  0  1.928791  0  -1.270302  0  -0.728442  -0.853851  0  1.98022  0
O  O104  1  0.42455976  0.64915437  0.34442764  1  0  -0.598162  0  2.118224  0  0  -0.537087  0  2.344865  0  0  -0.555107  0  2.332859  0  -1.166918  0  -0.455726  -0.524178  0  2.352906  0
O  O105  1  0.57543945  0.35084559  0.65557221  1  0  -0.598177  0  2.11824  0  0  -0.537081  0  2.344919  0  0  -0.555102  0  2.332909  0  -1.166921  0  -0.4557  -0.52417  0  2.35296  0
O  O106  1  0.57064450  0.89107218  0.68379012  1  0  -0.861211  0  1.743866  0  0  -0.816386  0  1.888725  0  0  -0.834126  0  1.862477  0  -1.256205  0  -0.670086  -0.803659  0  1.907187  0
O  O107  1  0.42935515  0.10893137  0.31621244  1  0  -0.861278  0  1.743838  0  0  -0.816462  0  1.888663  0  0  -0.834202  0  1.862418  0  -1.256265  0  -0.670077  -0.803735  0  1.907122  0
O  O108  1  0.50535287  0.81946151  0.21837174  1  0  -0.554842  0  2.148993  0  0  -0.481366  0  2.370032  0  0  -0.49915  0  2.35878  0  -1.149645  0  -0.384351  -0.468722  0  2.377686  0
O  O109  1  0.49464649  0.18053964  0.78162943  1  0  -0.555006  0  2.148818  0  0  -0.481414  0  2.369924  0  0  -0.49924  0  2.358615  0  -1.149619  0  -0.384349  -0.468752  0  2.377592  0
O  O110  1  0.31568607  0.46147538  0.53625129  1  0  -0.892536  0  1.790008  0  0  -0.852804  0  1.948028  0  0  -0.870164  0  1.918373  0  -1.2899  0  -0.699975  -0.840243  0  1.968768  0
O  O111  1  0.68431441  0.53852458  0.46374996  1  0  -0.892532  0  1.790003  0  0  -0.852796  0  1.948037  0  0  -0.870151  0  1.918373  0  -1.28992  0  -0.699958  -0.840241  0  1.968761  0
