# generated using pymatgen
data_YbH5C6N2O7
_symmetry_space_group_name_H-M   'P 1'
_cell_length_a   9.60887591
_cell_length_b   9.60886162
_cell_length_c   9.60887541
_cell_angle_alpha   78.92299444
_cell_angle_beta   78.92285230
_cell_angle_gamma   78.92281366
_symmetry_Int_Tables_number   1
_chemical_formula_structural   YbH5C6N2O7
_chemical_formula_sum   'Yb3 H15 C18 N6 O21'
_cell_volume   843.27147146
_cell_formula_units_Z   3
loop_
 _symmetry_equiv_pos_site_id
 _symmetry_equiv_pos_as_xyz
  1  'x, y, z'
loop_
 _atom_site_type_symbol
 _atom_site_label
 _atom_site_symmetry_multiplicity
 _atom_site_fract_x
 _atom_site_fract_y
 _atom_site_fract_z
 _atom_site_occupancy
 _atom_site_pbe_bader_spin_density
 _atom_site_pbe_cm5_charge
 _atom_site_pbe_ddec_charge
 _atom_site_pbe_ddec_spin_density
 _atom_site_pbe_ddec_sum_bond_order
 _atom_site_pbe_magmom
C  C0  1  0.67056786  0.66652444  0.00159852  1  0  0.240684  0.618195  0  4.140254  0
C  C1  1  0.00159641  0.67056914  0.66652624  1  0  0.240648  0.618248  0  4.140353  0
C  C2  1  0.66652761  0.00159668  0.67056879  1  0  0.24063  0.618265  0  4.140124  0
C  C3  1  0.99840371  0.33347804  0.32943800  1  0  0.240683  0.618087  0  4.140292  0
C  C4  1  0.33347922  0.32943617  0.99840261  1  0  0.240688  0.618189  0  4.140299  0
C  C5  1  0.32943984  0.99840085  0.33347999  1  0  0.240729  0.618249  0  4.140116  0
C  C6  1  0.63911664  0.51949678  0.99903872  1  0  0.130868  0.17135  0  4.025329  0
C  C7  1  0.99903838  0.63911536  0.51949793  1  0  0.130909  0.171348  0  4.025265  0
C  C8  1  0.51949812  0.99903718  0.63911712  1  0  0.130875  0.171312  0  4.025276  0
C  C9  1  0.00096530  0.48050463  0.36088566  1  0  0.130849  0.171331  0  4.025129  0
C  C10  1  0.48050557  0.36088348  0.00096549  1  0  0.130853  0.171305  0  4.025194  0
C  C11  1  0.36088720  0.00096081  0.48050707  1  0  0.130864  0.171233  0  4.025395  0
C  C12  1  0.49896178  0.50104089  0.00000025  1  0  -0.086966  -0.227176  0  3.901612  0
C  C13  1  0.00000044  0.49895961  0.50104301  1  0  -0.086923  -0.22705  0  3.901612  0
C  C14  1  0.50104442  0.99999891  0.49896087  1  0  -0.086944  -0.227086  0  3.901615  0
C  C15  1  0.72447243  0.27553170  0.00000428  1  0  0.337753  0.662802  0  4.040648  0
C  C16  1  0.00000502  0.72447206  0.27553358  1  0  0.337803  0.662804  0  4.04083  0
C  C17  1  0.27553417  0.00000198  0.72447295  1  0  0.337806  0.662868  0  4.040701  0
H  H18  1  0.40997094  0.59003197  0.00000035  1  0  0.127179  0.165812  0  0.986373  0
H  H19  1  0.00000109  0.40997067  0.59003410  1  0  0.127156  0.165754  0  0.986384  0
H  H20  1  0.59003574  0.99999960  0.40997182  1  0  0.127147  0.165761  0  0.98637  0
H  H21  1  0.76293007  0.85280927  0.07561293  1  0  0.303527  0.407518  0  0.918655  0
H  H22  1  0.07561279  0.76293049  0.85281078  1  0  0.303548  0.40755  0  0.918611  0
H  H23  1  0.85281187  0.07561160  0.76293122  1  0  0.303491  0.407462  0  0.918721  0
H  H24  1  0.92438979  0.14719070  0.23708295  1  0  0.303465  0.407471  0  0.918715  0
H  H25  1  0.14719398  0.23708044  0.92439154  1  0  0.303505  0.407555  0  0.918591  0
H  H26  1  0.23708232  0.92438975  0.14719440  1  0  0.303455  0.40747  0  0.918714  0
H  H27  1  0.76538925  0.02271730  0.06289293  1  0  0.298058  0.395053  0  0.947169  0
H  H28  1  0.06289517  0.76538785  0.02271825  1  0  0.298072  0.395081  0  0.947124  0
H  H29  1  0.02271954  0.06289268  0.76538845  1  0  0.298089  0.395147  0  0.947064  0
H  H30  1  0.93711088  0.97728815  0.23462348  1  0  0.298073  0.395091  0  0.947096  0
H  H31  1  0.97729082  0.23462021  0.93711161  1  0  0.298076  0.395067  0  0.94713  0
H  H32  1  0.23462249  0.93711013  0.97729017  1  0  0.298071  0.395095  0  0.947092  0
N  N33  1  0.75060619  0.41194358  0.00073035  1  0  -0.362997  -0.497717  0  3.30529  0
N  N34  1  0.00073127  0.75060512  0.41194528  1  0  -0.363022  -0.497707  0  3.305208  0
N  N35  1  0.41194637  0.00072915  0.75060650  1  0  -0.363033  -0.497733  0  3.305246  0
N  N36  1  0.99927630  0.58806139  0.24939844  1  0  -0.36305  -0.497721  0  3.305013  0
N  N37  1  0.58806100  0.24939555  0.99927575  1  0  -0.363021  -0.497669  0  3.305132  0
N  N38  1  0.24939847  0.99927301  0.58806212  1  0  -0.363016  -0.497643  0  3.305198  0
O  O39  1  0.57471549  0.77224085  0.97335908  1  0  -0.385584  -0.612849  0  2.308185  0
O  O40  1  0.97335577  0.57471769  0.77224353  1  0  -0.385574  -0.612932  0  2.3082  0
O  O41  1  0.77224601  0.97335625  0.57471752  1  0  -0.385506  -0.612868  0  2.308098  0
O  O42  1  0.02664424  0.22776066  0.42529030  1  0  -0.385542  -0.612821  0  2.308277  0
O  O43  1  0.22776206  0.42529047  0.02664336  1  0  -0.385542  -0.61287  0  2.308258  0
O  O44  1  0.42529167  0.02664295  0.22776465  1  0  -0.385575  -0.612883  0  2.30822  0
O  O45  1  0.79161713  0.67227125  0.03511064  1  0  -0.381987  -0.654659  0  2.341506  0
O  O46  1  0.03511042  0.79161696  0.67227341  1  0  -0.381973  -0.65465  0  2.341537  0
O  O47  1  0.67227417  0.03510950  0.79161726  1  0  -0.381977  -0.654655  0  2.341506  0
O  O48  1  0.96489924  0.32773370  0.20838634  1  0  -0.38204  -0.654595  0  2.34146  0
O  O49  1  0.32773252  0.20838370  0.96490002  1  0  -0.382032  -0.654631  0  2.341566  0
O  O50  1  0.20838665  0.96489749  0.32773401  1  0  -0.38204  -0.654636  0  2.341386  0
O  O51  1  0.82883692  0.17116723  0.00000415  1  0  -0.291238  -0.532768  0  2.186722  0
O  O52  1  0.00000641  0.82883515  0.17116855  1  0  -0.291275  -0.5328  0  2.186843  0
O  O53  1  0.17116780  0.00000264  0.82883595  1  0  -0.291257  -0.532829  0  2.186761  0
O  O54  1  0.70332044  0.94542756  0.09381883  1  0  -0.675861  -0.871243  0  2.120438  0
O  O55  1  0.09381887  0.70331960  0.94542888  1  0  -0.675899  -0.871323  0  2.120394  0
O  O56  1  0.94543066  0.09381843  0.70332065  1  0  -0.675879  -0.871319  0  2.120469  0
O  O57  1  0.90618442  0.05457384  0.29669452  1  0  -0.675802  -0.871217  0  2.120394  0
O  O58  1  0.05457614  0.29669139  0.90618474  1  0  -0.675857  -0.871306  0  2.12039  0
O  O59  1  0.29669302  0.90618355  0.05457621  1  0  -0.675803  -0.871235  0  2.120427  0
Yb  Yb60  1  0.50000450  0.00842191  0.99158284  1  0  1.579884  2.01999  0  2.169299  0
Yb  Yb61  1  0.99158204  0.50000327  0.00842201  1  0  1.579887  2.020108  0  2.169106  0
Yb  Yb62  1  0.00842421  0.99158190  0.50000438  1  0  1.579889  2.02002  0  2.169273  0
