# generated using pymatgen
data_UH22C14(N2O5)2
_symmetry_space_group_name_H-M   'P 1'
_cell_length_a   9.95701236
_cell_length_b   10.04627605
_cell_length_c   10.18168732
_cell_angle_alpha   90.93242151
_cell_angle_beta   106.76577826
_cell_angle_gamma   90.39146912
_symmetry_Int_Tables_number   1
_chemical_formula_structural   UH22C14(N2O5)2
_chemical_formula_sum   'U2 H44 C28 N8 O20'
_cell_volume   974.98976065
_cell_formula_units_Z   2
loop_
 _symmetry_equiv_pos_site_id
 _symmetry_equiv_pos_as_xyz
  1  'x, y, z'
loop_
 _atom_site_type_symbol
 _atom_site_label
 _atom_site_symmetry_multiplicity
 _atom_site_fract_x
 _atom_site_fract_y
 _atom_site_fract_z
 _atom_site_occupancy
 _atom_site_hle17_bader_spin_density
 _atom_site_hle17_ddec_charge
 _atom_site_hle17_ddec_spin_density
 _atom_site_hle17_ddec_sum_bond_order
 _atom_site_hle17_magmom
 _atom_site_hse06_10hf_bader_spin_density
 _atom_site_hse06_10hf_ddec_charge
 _atom_site_hse06_10hf_ddec_spin_density
 _atom_site_hse06_10hf_ddec_sum_bond_order
 _atom_site_hse06_10hf_magmom
 _atom_site_hse06_bader_spin_density
 _atom_site_hse06_ddec_charge
 _atom_site_hse06_ddec_spin_density
 _atom_site_hse06_ddec_sum_bond_order
 _atom_site_hse06_magmom
 _atom_site_pbe_bader_spin_density
 _atom_site_pbe_cm5_charge
 _atom_site_pbe_ddec_charge
 _atom_site_pbe_ddec_spin_density
 _atom_site_pbe_ddec_sum_bond_order
 _atom_site_pbe_magmom
U  U0  1  0.75176386  0.29428122  0.33824197  1  0  2.350485  0  4.178893  0  0  2.402672  0  4.842911  0  0  2.516629  0  4.803906  0  0  2.16331  2.323725  0  4.869993  0
U  U1  1  0.24823599  0.70572114  0.66175856  1  0  2.350517  0  4.178887  0  0  2.402674  0  4.842892  0  0  2.516616  0  4.803909  0  0  2.163335  2.323736  0  4.869994  0
H  H2  1  0.30950956  0.03539202  0.50889828  1  0  0.070464  0  0.940091  0  0  0.08166  0  1.009141  0  0  0.08196  0  1.008979  0  0  0.106267  0.081187  0  1.009593  0
H  H3  1  0.69049130  0.96460836  0.49110152  1  0  0.070474  0  0.940084  0  0  0.08168  0  1.009137  0  0  0.081981  0  1.008976  0  0  0.106264  0.081208  0  1.009584  0
H  H4  1  0.16689546  0.14388264  0.43969917  1  0  0.090463  0  0.942067  0  0  0.102113  0  1.007946  0  0  0.103786  0  1.006598  0  0  0.111264  0.100655  0  1.00918  0
H  H5  1  0.83310539  0.85611575  0.56030059  1  0  0.09045  0  0.942108  0  0  0.102135  0  1.007956  0  0  0.10381  0  1.006608  0  0  0.111268  0.100676  0  1.009189  0
H  H6  1  0.34116990  0.16701594  0.71286315  1  0  0.090941  0  0.925762  0  0  0.10999  0  0.979133  0  0  0.110904  0  0.979602  0  0  0.100828  0.109241  0  0.978819  0
H  H7  1  0.65883099  0.83298543  0.28713765  1  0  0.090927  0  0.925765  0  0  0.109975  0  0.979137  0  0  0.110889  0  0.979605  0  0  0.100817  0.109223  0  0.978824  0
H  H8  1  0.24442819  0.30055208  0.62083403  1  0  0.094319  0  0.943219  0  0  0.111821  0  0.999943  0  0  0.113311  0  0.999058  0  0  0.098497  0.111035  0  0.999988  0
H  H9  1  0.75557163  0.69944830  0.37916548  1  0  0.094306  0  0.943213  0  0  0.111811  0  0.999935  0  0  0.1133  0  0.999049  0  0  0.098494  0.111021  0  0.999984  0
H  H10  1  0.46292591  0.40570305  0.63892265  1  0  0.125197  0  0.925376  0  0  0.139031  0  0.985162  0  0  0.141728  0  0.98375  0  0  0.114665  0.137012  0  0.986507  0
H  H11  1  0.53707391  0.59429732  0.36107784  1  0  0.125212  0  0.925367  0  0  0.139051  0  0.985155  0  0  0.141747  0  0.983745  0  0  0.114667  0.137026  0  0.9865  0
H  H12  1  0.55707751  0.25683350  0.68267194  1  0  0.116179  0  0.932889  0  0  0.130959  0  0.994839  0  0  0.133297  0  0.994079  0  0  0.109031  0.129275  0  0.995279  0
H  H13  1  0.44292126  0.74316688  0.31732726  1  0  0.116177  0  0.932895  0  0  0.130961  0  0.994844  0  0  0.133298  0  0.994085  0  0  0.109034  0.129276  0  0.995286  0
H  H14  1  0.40702153  0.21898316  0.22010074  1  0  0.06617  0  0.968438  0  0  0.075328  0  1.037549  0  0  0.076843  0  1.036274  0  0  0.12323  0.073914  0  1.03893  0
H  H15  1  0.59297828  0.78101622  0.77989875  1  0  0.066163  0  0.968418  0  0  0.075326  0  1.037516  0  0  0.07684  0  1.036242  0  0  0.123236  0.073912  0  1.038901  0
H  H16  1  0.10782347  0.12956855  0.20428310  1  0  0.074653  0  0.920828  0  0  0.085271  0  0.984299  0  0  0.086669  0  0.983158  0  0  0.122989  0.083857  0  0.985679  0
H  H17  1  0.89217635  0.87043182  0.79571739  1  0  0.074642  0  0.920839  0  0  0.085264  0  0.984302  0  0  0.086661  0  0.98316  0  0  0.122992  0.083851  0  0.985679  0
H  H18  1  0.06038420  0.18000299  0.95755405  1  0  0.077945  0  0.952578  0  0  0.091759  0  1.021481  0  0  0.092759  0  1.021465  0  0  0.092192  0.09102  0  1.021638  0
H  H19  1  0.93961562  0.81999738  0.04244644  1  0  0.077944  0  0.952586  0  0  0.09176  0  1.021481  0  0  0.092761  0  1.021465  0  0  0.092196  0.091025  0  1.021636  0
H  H20  1  0.23931715  0.22074484  0.98203565  1  0  0.073624  0  0.931627  0  0  0.092328  0  0.992067  0  0  0.093203  0  0.992082  0  0  0.09346  0.091504  0  0.99242  0
H  H21  1  0.76068161  0.77925454  0.01796452  1  0  0.073615  0  0.931637  0  0  0.092319  0  0.992076  0  0  0.093195  0  0.992092  0  0  0.093454  0.091498  0  0.99243  0
H  H22  1  0.19098431  0.99017862  0.89045882  1  0  0.084383  0  0.942371  0  0  0.101099  0  1.003384  0  0  0.102104  0  1.002711  0  0  0.097565  0.100458  0  1.003845  0
H  H23  1  0.80901551  0.00982176  0.10954167  1  0  0.084364  0  0.942362  0  0  0.101084  0  1.003387  0  0  0.102092  0  1.002715  0  0  0.097559  0.100446  0  1.003846  0
H  H24  1  0.12334284  0.94681300  0.02686678  1  0  0.064476  0  0.938668  0  0  0.085668  0  0.99718  0  0  0.086026  0  0.998191  0  0  0.089542  0.085161  0  0.996992  0
H  H25  1  0.87665592  0.05318638  0.97313241  1  0  0.064468  0  0.938644  0  0  0.085668  0  0.997164  0  0  0.086025  0  0.998179  0  0  0.089538  0.085161  0  0.996974  0
H  H26  1  0.42654138  0.03330217  0.05422374  1  0  0.064357  0  0.939073  0  0  0.084058  0  0.99756  0  0  0.084384  0  0.998457  0  0  0.091097  0.08377  0  0.997138  0
H  H27  1  0.57345844  0.96669820  0.94577576  1  0  0.064353  0  0.939069  0  0  0.084036  0  0.997579  0  0  0.084358  0  0.998477  0  0  0.091091  0.083749  0  0.997154  0
H  H28  1  0.36894309  0.87094746  0.07765247  1  0  0.067082  0  0.953622  0  0  0.082685  0  1.01861  0  0  0.083131  0  1.01944  0  0  0.088908  0.082372  0  1.017934  0
H  H29  1  0.63105673  0.12905292  0.92234801  1  0  0.067109  0  0.953655  0  0  0.082708  0  1.018641  0  0  0.083154  0  1.019471  0  0  0.08892  0.082396  0  1.017965  0
H  H30  1  0.47433330  0.99333975  0.30144325  1  0  0.080493  0  0.946315  0  0  0.099017  0  1.007404  0  0  0.099098  0  1.008708  0  0  0.096939  0.09905  0  1.006447  0
H  H31  1  0.52566547  0.00666063  0.69855596  1  0  0.080508  0  0.946301  0  0  0.099015  0  1.007388  0  0  0.099095  0  1.008694  0  0  0.09695  0.099052  0  1.006427  0
H  H32  1  0.29584574  0.94836607  0.27879127  1  0  0.07456  0  0.9694  0  0  0.086621  0  1.043275  0  0  0.08865  0  1.04194  0  0  0.088429  0.085019  0  1.044412  0
H  H33  1  0.70415303  0.05163431  0.72120892  1  0  0.074546  0  0.969395  0  0  0.086598  0  1.043255  0  0  0.088626  0  1.04192  0  0  0.088432  0.084995  0  1.044393  0
H  H34  1  0.24833463  0.43013398  0.06162987  1  0  0.079415  0  0.929924  0  0  0.08948  0  0.998654  0  0  0.090635  0  0.997306  0  0  0.107314  0.088611  0  0.999673  0
H  H35  1  0.75166519  0.56986640  0.93836963  1  0  0.079426  0  0.929912  0  0  0.089499  0  0.998631  0  0  0.090651  0  0.997283  0  0  0.107323  0.088632  0  0.99965  0
H  H36  1  0.33268271  0.44652394  0.23919894  1  0  0.082419  0  0.929539  0  0  0.095707  0  0.992481  0  0  0.096164  0  0.992477  0  0  0.109824  0.09514  0  0.992486  0
H  H37  1  0.66731710  0.55347545  0.76080054  1  0  0.082419  0  0.92953  0  0  0.095702  0  0.992483  0  0  0.096157  0  0.992476  0  0  0.109826  0.09514  0  0.992489  0
H  H38  1  0.20283845  0.64673426  0.22570578  1  0  0.092238  0  0.94953  0  0  0.107557  0  1.009652  0  0  0.109381  0  1.008989  0  0  0.098223  0.106047  0  1.010449  0
H  H39  1  0.79716137  0.35326612  0.77429373  1  0  0.092245  0  0.949532  0  0  0.107553  0  1.009652  0  0  0.109377  0  1.00899  0  0  0.098231  0.106046  0  1.010448  0
H  H40  1  0.08486135  0.59747209  0.06691655  1  0  0.07719  0  0.943938  0  0  0.094353  0  1.004091  0  0  0.09518  0  1.004893  0  0  0.09286  0.093654  0  1.00363  0
H  H41  1  0.91513845  0.40252730  0.93308293  1  0  0.077121  0  0.943962  0  0  0.09428  0  1.004118  0  0  0.095107  0  1.00492  0  0  0.092831  0.093585  0  1.003653  0
H  H42  1  0.05956079  0.54236354  0.35213626  1  0  0.122447  0  0.935932  0  0  0.134091  0  0.999723  0  0  0.136221  0  0.998564  0  0  0.116781  0.132554  0  1.000665  0
H  H43  1  0.94043904  0.45763783  0.64786326  1  0  0.122486  0  0.935925  0  0  0.134109  0  0.999719  0  0  0.13624  0  0.998558  0  0  0.116778  0.132574  0  1.000661  0
H  H44  1  0.92454099  0.54603796  0.19584121  1  0  0.116499  0  0.925454  0  0  0.131788  0  0.983089  0  0  0.134175  0  0.982198  0  0  0.112634  0.130035  0  0.98396  0
H  H45  1  0.07545882  0.45396142  0.80415729  1  0  0.116509  0  0.925483  0  0  0.131794  0  0.983098  0  0  0.134168  0  0.98222  0  0  0.112629  0.130048  0  0.983961  0
C  C46  1  0.46302448  0.27833031  0.46884030  1  0  0.577556  0  3.706825  0  0  0.540266  0  3.997598  0  0  0.573061  0  3.994312  0  0  0.268374  0.518091  0  3.99867  0
C  C47  1  0.53697534  0.72167007  0.53116019  1  0  0.577512  0  3.706698  0  0  0.540225  0  3.997516  0  0  0.573021  0  3.994227  0  0  0.268309  0.518065  0  3.998565  0
C  C48  1  0.28002506  0.14016121  0.48973912  1  0  0.004676  0  3.567986  0  0  -0.056279  0  3.834482  0  0  -0.051657  0  3.845638  0  0  -0.056041  -0.058887  0  3.82655  0
C  C49  1  0.71997475  0.85983817  0.51025938  1  0  0.004618  0  3.568082  0  0  -0.056373  0  3.834623  0  0  -0.05176  0  3.845795  0  0  -0.056079  -0.058985  0  3.826691  0
C  C50  1  0.32562617  0.22742334  0.62119680  1  0  -0.109153  0  3.617814  0  0  -0.151036  0  3.878886  0  0  -0.151434  0  3.890204  0  0  -0.154748  -0.150815  0  3.870312  0
C  C51  1  0.67437364  0.77257605  0.37880366  1  0  -0.10908  0  3.6178  0  0  -0.150942  0  3.878882  0  0  -0.151339  0  3.890204  0  0  -0.154714  -0.150719  0  3.870305  0
C  C52  1  0.46074173  0.29867417  0.61473120  1  0  -0.246884  0  3.638456  0  0  -0.288976  0  3.891173  0  0  -0.294339  0  3.89846  0  0  -0.150022  -0.285294  0  3.886104  0
C  C53  1  0.53925809  0.70132620  0.38526732  1  0  -0.246866  0  3.638374  0  0  -0.28898  0  3.891133  0  0  -0.294336  0  3.898408  0  0  -0.149993  -0.285295  0  3.886053  0
C  C54  1  0.33392117  0.15823350  0.25709663  1  0  0.0796  0  3.595837  0  0  0.05441  0  3.83953  0  0  0.058057  0  3.85431  0  0  0.017958  0.051789  0  3.829926  0
C  C55  1  0.66607865  0.84176687  0.74290386  1  0  0.079653  0  3.595858  0  0  0.05448  0  3.839515  0  0  0.058127  0  3.854285  0  0  0.017944  0.051854  0  3.829917  0
C  C56  1  0.18360548  0.18993621  0.17006450  1  0  0.085744  0  3.57813  0  0  0.059215  0  3.825984  0  0  0.063121  0  3.840525  0  0  0.019916  0.056733  0  3.816334  0
C  C57  1  0.81639434  0.81006416  0.82993599  1  0  0.085771  0  3.578115  0  0  0.059243  0  3.825968  0  0  0.063152  0  3.840509  0  0  0.019935  0.056765  0  3.816316  0
C  C58  1  0.16763031  0.15683249  0.01864229  1  0  -0.15462  0  3.66684  0  0  -0.203518  0  3.935472  0  0  -0.205357  0  3.949605  0  0  -0.162297  -0.202145  0  3.926148  0
C  C59  1  0.83236951  0.84316789  0.98135819  1  0  -0.154614  0  3.666859  0  0  -0.2035  0  3.935494  0  0  -0.20534  0  3.949634  0  0  -0.162279  -0.20213  0  3.926175  0
C  C60  1  0.20082551  0.01084135  0.99903402  1  0  -0.103549  0  3.668947  0  0  -0.141931  0  3.928054  0  0  -0.142672  0  3.942715  0  0  -0.164896  -0.141358  0  3.918158  0
C  C61  1  0.79917431  0.98915902  0.00096548  1  0  -0.103506  0  3.668879  0  0  -0.141927  0  3.92804  0  0  -0.142675  0  3.942715  0  0  -0.164907  -0.141357  0  3.918147  0
C  C62  1  0.34787751  0.97708468  0.08868872  1  0  -0.099225  0  3.67828  0  0  -0.136919  0  3.938934  0  0  -0.137948  0  3.954119  0  0  -0.165033  -0.135793  0  3.928132  0
C  C63  1  0.65212126  0.02291570  0.91131049  1  0  -0.099238  0  3.678332  0  0  -0.13693  0  3.938983  0  0  -0.137957  0  3.954169  0  0  -0.16502  -0.135808  0  3.928186  0
C  C64  1  0.36595646  0.01130302  0.23966539  1  0  -0.15962  0  3.660859  0  0  -0.20597  0  3.922651  0  0  -0.207913  0  3.936507  0  0  -0.165404  -0.204353  0  3.912923  0
C  C65  1  0.63404334  0.98869636  0.76033409  1  0  -0.159653  0  3.660907  0  0  -0.20593  0  3.922589  0  0  -0.207864  0  3.936428  0  0  -0.165408  -0.204312  0  3.91286  0
C  C66  1  0.04041083  0.36424179  0.23483626  1  0  0.570294  0  3.713919  0  0  0.532495  0  4.006619  0  0  0.564502  0  4.004546  0  0  0.265936  0.511196  0  4.006875  0
C  C67  1  0.95958899  0.63575858  0.76516324  1  0  0.570332  0  3.713935  0  0  0.53251  0  4.006633  0  0  0.564518  0  4.004552  0  0  0.265952  0.511219  0  4.006882  0
C  C68  1  0.22958518  0.44223731  0.16205000  1  0  0.008076  0  3.579241  0  0  -0.05218  0  3.846435  0  0  -0.047094  0  3.857091  0  0  -0.056413  -0.055431  0  3.839003  0
C  C69  1  0.77041569  0.55776307  0.83794882  1  0  0.008085  0  3.5793  0  0  -0.052199  0  3.846509  0  0  -0.047097  0  3.857148  0  0  -0.056413  -0.055452  0  3.839086  0
C  C70  1  0.13856044  0.56349130  0.17032443  1  0  -0.11158  0  3.633488  0  0  -0.153241  0  3.895458  0  0  -0.153868  0  3.906808  0  0  -0.159385  -0.152593  0  3.887742  0
C  C71  1  0.86143833  0.43650908  0.82967477  1  0  -0.111448  0  3.633641  0  0  -0.153076  0  3.895527  0  0  -0.15371  0  3.906877  0  0  -0.159324  -0.152429  0  3.887814  0
C  C72  1  0.03252733  0.51370805  0.24273823  1  0  -0.26027  0  3.661678  0  0  -0.302643  0  3.916513  0  0  -0.307959  0  3.925016  0  0  -0.150392  -0.298954  0  3.910523  0
C  C73  1  0.96747143  0.48629134  0.75726194  1  0  -0.26043  0  3.661898  0  0  -0.302763  0  3.916653  0  0  -0.308066  0  3.925152  0  0  -0.150431  -0.299085  0  3.910664  0
N  N74  1  0.59374875  0.35853842  0.05134381  1  0  0.681903  0  4.149837  0  0  0.727674  0  4.440934  0  0  0.760095  0  4.443172  0  0  0.094121  0.705744  0  4.438682  0
N  N75  1  0.40625002  0.64146196  0.94865540  1  0  0.682147  0  4.149509  0  0  0.727781  0  4.440741  0  0  0.760203  0  4.442977  0  0  0.094168  0.705857  0  4.438478  0
N  N76  1  0.90534267  0.17386345  0.60446171  1  0  0.681099  0  4.141487  0  0  0.718018  0  4.444026  0  0  0.746863  0  4.450022  0  0  0.098638  0.696941  0  4.439734  0
N  N77  1  0.09465715  0.82613693  0.39553878  1  0  0.680503  0  4.142044  0  0  0.717532  0  4.44451  0  0  0.746382  0  4.45051  0  0  0.09855  0.696466  0  4.4402  0
N  N78  1  0.35843943  0.19692285  0.40099202  1  0  -0.201337  0  3.3656  0  0  -0.124101  0  3.601809  0  0  -0.145706  0  3.623716  0  0  -0.254683  -0.109647  0  3.586582  0
N  N79  1  0.64156144  0.80307752  0.59900974  1  0  -0.201381  0  3.365608  0  0  -0.124208  0  3.601925  0  0  -0.145814  0  3.623835  0  0  -0.254688  -0.109755  0  3.58669  0
N  N80  1  0.14798192  0.32848468  0.18841320  1  0  -0.203781  0  3.366015  0  0  -0.128205  0  3.604696  0  0  -0.149729  0  3.626308  0  0  -0.258991  -0.113971  0  3.589576  0
N  N81  1  0.85201789  0.67151470  0.81158629  1  0  -0.203822  0  3.365992  0  0  -0.128249  0  3.604694  0  0  -0.149778  0  3.626303  0  0  -0.25902  -0.11402  0  3.589579  0
O  O82  1  0.80348496  0.46327862  0.39597657  1  0  -0.6937  0  1.581875  0  0  -0.700054  0  1.8689  0  0  -0.719858  0  1.855342  0  0  -0.756861  -0.688107  0  1.87859  0
O  O83  1  0.19651590  0.53672076  0.60402321  1  0  -0.693715  0  1.581855  0  0  -0.700066  0  1.868868  0  0  -0.719866  0  1.855309  0  0  -0.756854  -0.688121  0  1.878557  0
O  O84  1  0.70028435  0.12479653  0.28256845  1  0  -0.687013  0  1.565658  0  0  -0.695511  0  1.851919  0  0  -0.714251  0  1.839353  0  0  -0.759369  -0.684222  0  1.860891  0
O  O85  1  0.29971549  0.87520484  0.71743206  1  0  -0.687039  0  1.565644  0  0  -0.695519  0  1.851898  0  0  -0.714257  0  1.839334  0  0  -0.75939  -0.684233  0  1.860876  0
O  O86  1  0.53799327  0.35744448  0.15086005  1  0  -0.498538  0  1.884531  0  0  -0.518926  0  2.144541  0  0  -0.543899  0  2.14193  0  0  -0.213184  -0.501514  0  2.145737  0
O  O87  1  0.46200760  0.64255590  0.84913975  1  0  -0.498619  0  1.884447  0  0  -0.518968  0  2.144506  0  0  -0.543939  0  2.141894  0  0  -0.213196  -0.501557  0  2.145702  0
O  O88  1  0.72834985  0.34865399  0.08922891  1  0  -0.489283  0  1.815538  0  0  -0.503105  0  2.056143  0  0  -0.528265  0  2.054518  0  0  -0.20407  -0.485361  0  2.056489  0
O  O89  1  0.27165101  0.65134639  0.91077089  1  0  -0.489323  0  1.815467  0  0  -0.503098  0  2.05612  0  0  -0.528258  0  2.054492  0  0  -0.204065  -0.485353  0  2.056456  0
O  O90  1  0.52417925  0.36599189  0.93086186  1  0  -0.345123  0  1.771158  0  0  -0.340035  0  1.964627  0  0  -0.352156  0  1.958722  0  0  -0.116298  -0.331658  0  1.968693  0
O  O91  1  0.47582057  0.63400849  0.06913666  1  0  -0.345236  0  1.771018  0  0  -0.340107  0  1.96454  0  0  -0.352229  0  1.958635  0  0  -0.116341  -0.331736  0  1.968608  0
O  O92  1  0.96489560  0.20215038  0.51194452  1  0  -0.469731  0  1.818834  0  0  -0.481205  0  2.058503  0  0  -0.504348  0  2.056097  0  0  -0.197435  -0.464212  0  2.059018  0
O  O93  1  0.03510422  0.79785000  0.48805793  1  0  -0.469485  0  1.81896  0  0  -0.480994  0  2.05861  0  0  -0.504139  0  2.056208  0  0  -0.197357  -0.464002  0  2.059121  0
O  O94  1  0.77595281  0.21082194  0.57636790  1  0  -0.513979  0  1.854275  0  0  -0.524256  0  2.106922  0  0  -0.548951  0  2.106501  0  0  -0.213794  -0.505921  0  2.106261  0
O  O95  1  0.22404598  0.78917943  0.42363231  1  0  -0.513777  0  1.854465  0  0  -0.524092  0  2.107087  0  0  -0.548786  0  2.106672  0  0  -0.213783  -0.505761  0  2.106431  0
O  O96  1  0.96504945  0.11687719  0.71064427  1  0  -0.342873  0  1.757036  0  0  -0.332447  0  1.947843  0  0  -0.342715  0  1.942492  0  0  -0.111234  -0.324265  0  1.95162  0
O  O97  1  0.03494826  0.88312219  0.28935462  1  0  -0.3427  0  1.757169  0  0  -0.332325  0  1.947966  0  0  -0.342599  0  1.942619  0  0  -0.111239  -0.324143  0  1.951734  0
O  O98  1  0.55142834  0.33141885  0.41675893  1  0  -0.632604  0  2.101425  0  0  -0.619179  0  2.381854  0  0  -0.652473  0  2.376079  0  0  -0.368243  -0.595029  0  2.38405  0
O  O99  1  0.44857148  0.66858152  0.58324155  1  0  -0.632582  0  2.101383  0  0  -0.619145  0  2.381813  0  0  -0.652438  0  2.376045  0  0  -0.368231  -0.595014  0  2.384025  0
O  O100  1  0.96100544  0.28067931  0.26831502  1  0  -0.602086  0  2.104415  0  0  -0.587408  0  2.38108  0  0  -0.619335  0  2.376062  0  0  -0.352001  -0.565258  0  2.383481  0
O  O101  1  0.03899543  0.71932107  0.73168576  1  0  -0.602085  0  2.104492  0  0  -0.587393  0  2.381161  0  0  -0.619318  0  2.376149  0  0  -0.351987  -0.56524  0  2.383554  0
