# generated using pymatgen
data_CuH40C34Br2(N2O)4
_symmetry_space_group_name_H-M   'P 1'
_cell_length_a   12.65047900
_cell_length_b   12.65048720
_cell_length_c   20.37826019
_cell_angle_alpha   90.00400633
_cell_angle_beta   89.99620240
_cell_angle_gamma   120.00235492
_symmetry_Int_Tables_number   1
_chemical_formula_structural   CuH40C34Br2(N2O)4
_chemical_formula_sum   'Cu3 H120 C102 Br6 N24 O12'
_cell_volume   2824.24032039
_cell_formula_units_Z   3
loop_
 _symmetry_equiv_pos_site_id
 _symmetry_equiv_pos_as_xyz
  1  'x, y, z'
loop_
 _atom_site_type_symbol
 _atom_site_label
 _atom_site_symmetry_multiplicity
 _atom_site_fract_x
 _atom_site_fract_y
 _atom_site_fract_z
 _atom_site_occupancy
 _atom_site_pbe_bader_charge
 _atom_site_pbe_bader_spin_density
 _atom_site_pbe_cm5_charge
 _atom_site_pbe_ddec_charge
 _atom_site_pbe_ddec_spin_density
 _atom_site_pbe_ddec_sum_bond_order
 _atom_site_pbe_magmom
Cu  Cu0  1  0.61406048  0.61405017  0.00000266  1  0.979475  -0.549883  0.723998  0.588361  -0.715555  2.333626  -0.549
Cu  Cu1  1  0.38571412  0.00033488  0.66665335  1  0.978123  -0.550458  0.722838  0.588406  -0.714859  2.331473  -0.55
Cu  Cu2  1  0.00032837  0.38570079  0.33334413  1  0.977991  -0.550451  0.722795  0.588383  -0.714844  2.331467  -0.55
H  H3  1  0.54729731  0.73128326  0.10252717  1  0.115967  -0.002563  0.116501  0.103154  -0.001191  1.012731  -0.001
H  H4  1  0.26902451  0.81674442  0.76959527  1  0.125684  -0.002549  0.116566  0.103554  -0.001186  1.012818  -0.001
H  H5  1  0.18352389  0.45252111  0.43602669  1  0.163372  -0.002529  0.116459  0.103486  -0.001189  1.012518  -0.001
H  H6  1  0.73127800  0.54728849  0.89746838  1  0.115876  -0.002563  0.11653  0.103213  -0.001192  1.012785  -0.001
H  H7  1  0.81675399  0.26902513  0.23040791  1  0.125604  -0.00255  0.116539  0.103489  -0.001187  1.012715  -0.001
H  H8  1  0.45252291  0.18353426  0.56398139  1  0.163265  -0.002529  0.116534  0.103497  -0.001188  1.012606  -0.001
H  H9  1  0.85684354  0.90387260  0.23350281  1  0.136939  -6e-05  0.114113  0.128965  3e-06  1.016954  0.0
H  H10  1  0.09606238  0.95322500  0.90061162  1  0.124084  -6.2e-05  0.114068  0.128862  2e-06  1.017316  0.0
H  H11  1  0.04684975  0.14298227  0.56699317  1  0.144829  -6e-05  0.113945  0.128622  2e-06  1.017159  0.0
H  H12  1  0.90387496  0.85684121  0.76649329  1  0.136882  -6e-05  0.114124  0.128966  3e-06  1.016953  0.0
H  H13  1  0.95321670  0.09604970  0.09938711  1  0.123646  -6.2e-05  0.114071  0.128869  2e-06  1.017368  0.0
H  H14  1  0.14297898  0.04686345  0.43301980  1  0.14522  -6e-05  0.113925  0.128622  2e-06  1.017345  0.0
H  H15  1  0.97960135  0.87457817  0.14561083  1  0.079691  -0.001531  0.114568  0.118838  -0.000774  0.974507  -0.001
H  H16  1  0.12511594  0.10524871  0.81279676  1  0.070211  -0.001538  0.114675  0.119387  -0.000773  0.974434  -0.001
H  H17  1  0.89487127  0.02008151  0.47911338  1  0.088109  -0.001522  0.115013  0.119759  -0.000774  0.974499  -0.001
H  H18  1  0.87458594  0.97960075  0.85438783  1  0.079714  -0.001531  0.114593  0.118855  -0.000774  0.974521  -0.001
H  H19  1  0.10524538  0.12510768  0.18720005  1  0.070151  -0.001538  0.114612  0.11928  -0.000774  0.974524  -0.001
H  H20  1  0.02008976  0.89487794  0.52089599  1  0.088292  -0.001522  0.115052  0.119808  -0.000774  0.974522  -0.001
H  H21  1  0.87520811  0.76339665  0.04223814  1  0.148381  -0.002505  0.116312  0.096546  -0.001214  1.031874  -0.001
H  H22  1  0.23611232  0.11206968  0.70929262  1  0.167375  -0.002471  0.116353  0.096403  -0.001207  1.030547  -0.001
H  H23  1  0.88819038  0.12441048  0.37563005  1  0.171338  -0.002466  0.116502  0.096689  -0.001211  1.030101  -0.001
H  H24  1  0.76340228  0.87520455  0.95775880  1  0.148366  -0.002506  0.116317  0.096533  -0.001214  1.031888  -0.001
H  H25  1  0.11208187  0.23610857  0.29070433  1  0.167518  -0.00247  0.116378  0.096491  -0.001206  1.030426  -0.001
H  H26  1  0.12442345  0.88818895  0.62437256  1  0.171295  -0.002466  0.116474  0.096636  -0.001212  1.030311  -0.001
H  H27  1  0.52349967  0.78127271  0.20977051  1  0.440564  -5.1e-05  0.330573  0.290768  -2e-05  0.912991  0.0
H  H28  1  0.21871916  0.74248315  0.87668135  1  0.461399  -5.1e-05  0.330368  0.290436  -2e-05  0.913706  0.0
H  H29  1  0.25748148  0.47644061  0.54320901  1  0.479568  -4.9e-05  0.330728  0.290972  -1.8e-05  0.913115  0.0
H  H30  1  0.78128251  0.52349677  0.79022654  1  0.440697  -5.1e-05  0.330559  0.290756  -2e-05  0.913089  0.0
H  H31  1  0.74247904  0.21871162  0.12332414  1  0.461468  -5.1e-05  0.330318  0.290333  -2e-05  0.913676  0.0
H  H32  1  0.47643574  0.25749245  0.45680212  1  0.479743  -4.9e-05  0.330756  0.291049  -1.8e-05  0.913163  0.0
H  H33  1  0.46199920  0.81098093  0.31319493  1  0.102674  -5e-06  0.116718  0.088392  -1e-06  1.003418  0.0
H  H34  1  0.18920749  0.65108827  0.98030362  1  0.128381  -4e-06  0.116305  0.08798  1e-06  1.003291  0.0
H  H35  1  0.34882125  0.53805917  0.64684733  1  0.124533  -3e-06  0.116511  0.087789  3e-06  1.00356  0.0
H  H36  1  0.81098528  0.46199907  0.68679964  1  0.102576  -5e-06  0.116721  0.088462  -1e-06  1.003284  0.0
H  H37  1  0.65108592  0.18921271  0.01969831  1  0.128559  -4e-06  0.116385  0.088092  1e-06  1.003173  0.0
H  H38  1  0.53805286  0.34881976  0.35315465  1  0.124545  -3e-06  0.116518  0.087802  3e-06  1.003507  0.0
H  H39  1  0.57936127  0.07425786  0.26045678  1  0.037241  -2.3e-05  0.085807  0.094932  -2.5e-05  1.011637  0.0
H  H40  1  0.92596561  0.50535496  0.92747182  1  0.034916  -2.4e-05  0.085998  0.095059  -2.6e-05  1.011462  0.0
H  H41  1  0.49481110  0.42076476  0.59405553  1  0.034644  -2.3e-05  0.085829  0.094945  -2.5e-05  1.012178  0.0
H  H42  1  0.07426077  0.57937000  0.73954346  1  0.037558  -2.3e-05  0.085818  0.094917  -2.5e-05  1.011646  0.0
H  H43  1  0.50535421  0.92596397  0.07252979  1  0.035061  -2.4e-05  0.085984  0.095075  -2.6e-05  1.01148  0.0
H  H44  1  0.42076370  0.49480938  0.40594403  1  0.034637  -2.3e-05  0.085835  0.09495  -2.5e-05  1.012171  0.0
H  H45  1  0.47925674  0.94228994  0.21413896  1  0.02378  -3.5e-05  0.08988  0.085565  -1.7e-05  1.011677  0.0
H  H46  1  0.05795320  0.53740031  0.88111776  1  0.019633  -3.5e-05  0.089969  0.085579  -1.7e-05  1.011818  0.0
H  H47  1  0.46294588  0.52086502  0.54774287  1  0.008414  -3.5e-05  0.089702  0.085198  -1.7e-05  1.01159  0.0
H  H48  1  0.94228597  0.47926466  0.78585970  1  0.024314  -3.5e-05  0.089892  0.085556  -1.7e-05  1.011656  0.0
H  H49  1  0.53739694  0.05795114  0.11888437  1  0.019592  -3.5e-05  0.089964  0.085565  -1.7e-05  1.011844  0.0
H  H50  1  0.52086376  0.46294666  0.45225872  1  0.008205  -3.5e-05  0.089703  0.085201  -1.7e-05  1.011583  0.0
H  H51  1  0.40738514  0.01229825  0.34301710  1  0.008019  3e-06  0.086885  0.050544  8e-06  0.969939  0.0
H  H52  1  0.98836910  0.39534317  0.00992705  1  0.014664  3e-06  0.086887  0.050108  7e-06  0.970151  0.0
H  H53  1  0.60463945  0.59286024  0.67664013  1  0.019542  2e-06  0.086858  0.050497  6e-06  0.969833  0.0
H  H54  1  0.01230139  0.40738966  0.65698631  1  0.008088  3e-06  0.086902  0.050672  7e-06  0.969882  0.0
H  H55  1  0.39533761  0.98836540  0.99007598  1  0.015001  2e-06  0.086879  0.050069  7e-06  0.970165  0.0
H  H56  1  0.59285451  0.60463202  0.32335680  1  0.019593  2e-06  0.086868  0.050559  6e-06  0.969683  0.0
H  H57  1  0.36439067  0.07232894  0.20327530  1  -0.00429  -7e-06  0.076939  0.101856  -5e-06  1.048818  0.0
H  H58  1  0.92728479  0.29221321  0.87021932  1  0.016395  -7e-06  0.077145  0.102505  -5e-06  1.04807  0.0
H  H59  1  0.70798584  0.63561387  0.53695574  1  -0.021874  -7e-06  0.076996  0.101989  -5e-06  1.048258  0.0
H  H60  1  0.07233522  0.36440014  0.79672813  1  -0.004368  -7e-06  0.076954  0.10184  -5e-06  1.048915  0.0
H  H61  1  0.29220781  0.92726764  0.12978205  1  0.015956  -7e-06  0.077115  0.102449  -5e-06  1.048202  0.0
H  H62  1  0.63561537  0.70799014  0.46304136  1  -0.021485  -7e-06  0.076942  0.101921  -5e-06  1.04822  0.0
H  H63  1  0.46618624  0.17837666  0.26184675  1  0.067319  -1e-06  0.08348  0.126415  4e-06  1.03962  0.0
H  H64  1  0.82166105  0.28815846  0.92900026  1  0.04273  -1e-06  0.083197  0.126227  4e-06  1.039266  0.0
H  H65  1  0.71213737  0.53394047  0.59564586  1  0.053189  -1e-06  0.083357  0.12646  4e-06  1.038691  0.0
H  H66  1  0.17838173  0.46619623  0.73815642  1  0.067038  -0.0  0.083489  0.126482  4e-06  1.039584  0.0
H  H67  1  0.28815738  0.82165009  0.07100099  1  0.042921  -1e-06  0.083153  0.126225  4e-06  1.039328  0.0
H  H68  1  0.53393522  0.71213495  0.40434671  1  0.053295  -1e-06  0.083369  0.126431  4e-06  1.038704  0.0
H  H69  1  0.30562404  0.10018220  0.27636141  1  0.02843  -1.7e-05  0.07859  0.113229  -8e-06  1.024053  0.0
H  H70  1  0.89981858  0.20565647  0.94325562  1  0.024391  -1.7e-05  0.078622  0.113668  -8e-06  1.024168  0.0
H  H71  1  0.79443245  0.69448116  0.61010230  1  -0.006953  -1.7e-05  0.07856  0.113229  -8e-06  1.024097  0.0
H  H72  1  0.10018877  0.30563563  0.72364248  1  0.028729  -1.7e-05  0.078569  0.113123  -8e-06  1.024191  0.0
H  H73  1  0.20565012  0.89980144  0.05674611  1  0.024506  -1.7e-05  0.078639  0.113707  -8e-06  1.024253  0.0
H  H74  1  0.69447367  0.79442587  0.38989251  1  -0.00696  -1.7e-05  0.078551  0.113256  -8e-06  1.024153  0.0
H  H75  1  0.19542858  0.86795816  0.30712568  1  0.006856  -6e-06  0.08042  0.110369  1e-06  1.008412  0.0
H  H76  1  0.13208465  0.32726994  0.97354782  1  0.000537  -5e-06  0.080679  0.110593  2e-06  1.007663  0.0
H  H77  1  0.67260441  0.80477409  0.64052499  1  0.025149  -5e-06  0.080356  0.110104  2e-06  1.008239  0.0
H  H78  1  0.86796551  0.19543702  0.69287649  1  0.006848  -6e-06  0.080429  0.110391  1e-06  1.008456  0.0
H  H79  1  0.32725475  0.13207082  0.02645956  1  0.000319  -5e-06  0.080629  0.1105  2e-06  1.007639  0.0
H  H80  1  0.80476836  0.67260233  0.35947569  1  0.02522  -5e-06  0.08038  0.110136  1e-06  1.008258  0.0
H  H81  1  0.28242449  0.79257024  0.30723604  1  0.029188  -5.1e-05  0.080928  0.116317  -3.4e-05  1.057919  0.0
H  H82  1  0.20785548  0.48977037  0.97350762  1  0.020256  -5.3e-05  0.080804  0.116135  -3.5e-05  1.057822  0.0
H  H83  1  0.51016015  0.71799048  0.64054022  1  0.044888  -5e-05  0.08111  0.116363  -3.4e-05  1.057832  0.0
H  H84  1  0.79257194  0.28242729  0.69276516  1  0.029137  -5.1e-05  0.080936  0.11636  -3.4e-05  1.057853  0.0
H  H85  1  0.48975866  0.20784777  0.02649806  1  0.020497  -5.3e-05  0.080776  0.116101  -3.5e-05  1.058011  0.0
H  H86  1  0.71798986  0.51015781  0.35946067  1  0.04491  -5e-05  0.081134  0.116436  -3.4e-05  1.057799  0.0
H  H87  1  0.24991227  0.84080367  0.23206552  1  0.006657  -6e-06  0.08033  0.111958  2e-06  1.021335  0.0
H  H88  1  0.15872594  0.40878283  0.89849212  1  0.020332  -6e-06  0.080399  0.11205  1e-06  1.022283  0.0
H  H89  1  0.59123310  0.75017691  0.56543272  1  0.019507  -6e-06  0.080506  0.111945  1e-06  1.021608  0.0
H  H90  1  0.84080861  0.24991282  0.76793570  1  0.006693  -6e-06  0.080329  0.111959  2e-06  1.021313  0.0
H  H91  1  0.40876544  0.15870894  0.10151293  1  0.020244  -6e-06  0.080401  0.111964  1e-06  1.02245  0.0
H  H92  1  0.75017070  0.59123242  0.43456731  1  0.019554  -6e-06  0.080507  0.111966  1e-06  1.021622  0.0
H  H93  1  0.63739714  0.05023368  0.37348186  1  0.478496  -1.9e-05  0.270156  0.248374  -4.7e-05  1.03327  0.0
H  H94  1  0.94976179  0.58703312  0.04049996  1  0.473229  -2e-05  0.270099  0.247989  -4.7e-05  1.033819  0.0
H  H95  1  0.41274596  0.36261115  0.70692036  1  0.476341  -2e-05  0.270249  0.248592  -4.7e-05  1.03309  0.0
H  H96  1  0.05024163  0.63738992  0.62651204  1  0.478452  -1.9e-05  0.270116  0.248274  -4.7e-05  1.033429  0.0
H  H97  1  0.58702698  0.94976019  0.95949981  1  0.473244  -2e-05  0.270124  0.248058  -4.7e-05  1.033738  0.0
H  H98  1  0.36261324  0.41274928  0.29308149  1  0.476306  -2e-05  0.270217  0.248567  -4.7e-05  1.03311  0.0
H  H99  1  0.37585383  0.88066905  0.53658682  1  0.172192  -0.002575  0.107967  0.094356  -0.001244  1.037913  -0.002
H  H100  1  0.11966107  0.49556516  0.20346398  1  0.15035  -0.002606  0.108168  0.094743  -0.001246  1.037949  -0.002
H  H101  1  0.50420137  0.62365369  0.87009908  1  0.140554  -0.002612  0.107823  0.094023  -0.001242  1.038855  -0.002
H  H102  1  0.88066449  0.37584754  0.46341067  1  0.17212  -0.002575  0.107984  0.094475  -0.001244  1.037818  -0.002
H  H103  1  0.49556696  0.11966324  0.79653475  1  0.150316  -0.002606  0.108189  0.094749  -0.001246  1.037961  -0.002
H  H104  1  0.62366332  0.50420020  0.12990563  1  0.140756  -0.002613  0.107845  0.094156  -0.001242  1.038974  -0.002
H  H105  1  0.64634042  0.15241896  0.65076373  1  0.143272  -0.002597  0.108159  0.086365  -0.001249  1.060289  -0.002
H  H106  1  0.84783889  0.49356684  0.31789515  1  0.161173  -0.002585  0.107862  0.086452  -0.001255  1.060728  -0.002
H  H107  1  0.50653357  0.35368192  0.98421223  1  0.15072  -0.002593  0.107941  0.086023  -0.001249  1.061282  -0.002
H  H108  1  0.15240164  0.64633161  0.34922489  1  0.143298  -0.002596  0.108146  0.086341  -0.001249  1.060327  -0.002
H  H109  1  0.49357355  0.84784018  0.68210145  1  0.161253  -0.002585  0.107902  0.086448  -0.001255  1.060706  -0.002
H  H110  1  0.35369406  0.50653137  0.01578972  1  0.150453  -0.002593  0.108035  0.086126  -0.001249  1.061154  -0.002
H  H111  1  0.80513504  0.20107633  0.56456865  1  0.088825  -0.001201  0.110638  0.121124  -0.000615  0.998154  -0.001
H  H112  1  0.79878804  0.60368254  0.23182061  1  0.10735  -0.00119  0.110511  0.120763  -0.000615  0.998266  -0.001
H  H113  1  0.39660624  0.19479525  0.89801819  1  0.108201  -0.001198  0.110674  0.120903  -0.000613  0.998308  -0.001
H  H114  1  0.20106810  0.80513066  0.43542022  1  0.08877  -0.001202  0.110663  0.121202  -0.000615  0.99817  -0.001
H  H115  1  0.60368722  0.79879731  0.76817803  1  0.107214  -0.00119  0.110479  0.120704  -0.000615  0.998413  -0.001
H  H116  1  0.19480604  0.39661740  0.10198002  1  0.108138  -0.001198  0.110704  0.120896  -0.000614  0.998307  -0.001
H  H117  1  0.74006314  0.08921686  0.45746811  1  0.07925  -0.000234  0.100265  0.09272  -9.6e-05  1.068282  0.0
H  H118  1  0.91055277  0.65071839  0.12464185  1  0.093828  -0.000234  0.100232  0.092355  -9.6e-05  1.068312  0.0
H  H119  1  0.34940739  0.25963288  0.79094572  1  0.101774  -0.000236  0.100199  0.092617  -9.6e-05  1.068889  0.0
H  H120  1  0.08921725  0.74005925  0.54252447  1  0.079583  -0.000234  0.100298  0.092741  -9.6e-05  1.068197  0.0
H  H121  1  0.65071874  0.91055490  0.87535549  1  0.093892  -0.000233  0.100217  0.092337  -9.5e-05  1.068336  0.0
H  H122  1  0.25963010  0.34941139  0.20905300  1  0.101578  -0.000236  0.100203  0.09261  -9.6e-05  1.068948  0.0
C  C123  1  0.64216621  0.76178332  0.11535080  1  0.592103  9.4e-05  0.043619  -0.0127  0.000283  3.900485  0.0
C  C124  1  0.23838389  0.88101817  0.78241835  1  0.516865  3.6e-05  0.043908  -0.012744  0.000351  3.900612  0.0
C  C125  1  0.11928016  0.35759223  0.44884842  1  0.513448  0.00012  0.043599  -0.013145  0.000352  3.900624  0.0
C  C126  1  0.76177830  0.64215850  0.88464636  1  0.592194  9.7e-05  0.043548  -0.012847  0.000285  3.900591  0.0
C  C127  1  0.88102561  0.23837871  0.21757997  1  0.516814  3.5e-05  0.043919  -0.012769  0.00035  3.90056  0.0
C  C128  1  0.35759870  0.11928250  0.55115554  1  0.515548  0.000126  0.043538  -0.013174  0.000353  3.900688  0.0
C  C129  1  0.69201294  0.81899120  0.17545919  1  0.31631  -0.004613  0.106685  0.216684  -0.003051  4.012311  -0.004
C  C130  1  0.18106293  0.87342420  0.84254031  1  0.365404  -0.004534  0.106439  0.216316  -0.003062  4.01074  -0.004
C  C131  1  0.12671233  0.30783329  0.50896761  1  0.304447  -0.004551  0.106217  0.216163  -0.003052  4.011756  -0.004
C  C132  1  0.81898732  0.69200814  0.82454005  1  0.316157  -0.004613  0.106623  0.216558  -0.003051  4.012199  -0.004
C  C133  1  0.87342042  0.18105569  0.15745940  1  0.36621  -0.004532  0.106533  0.216523  -0.003061  4.010494  -0.004
C  C134  1  0.30783392  0.12671341  0.49103827  1  0.301484  -0.004555  0.106258  0.216332  -0.003051  4.011908  -0.004
C  C135  1  0.81575989  0.85922498  0.18736969  1  0.019745  0.001457  -0.07118  -0.132085  0.001742  3.920282  0.001
C  C136  1  0.14067980  0.95680958  0.85446747  1  0.011108  0.001564  -0.071512  -0.13219  0.001853  3.919818  0.001
C  C137  1  0.04324805  0.18405234  0.52086951  1  0.083775  0.001537  -0.071091  -0.131019  0.001835  3.918322  0.001
C  C138  1  0.85922804  0.81575739  0.81262729  1  0.019387  0.001461  -0.071204  -0.132057  0.001746  3.920288  0.001
C  C139  1  0.95680506  0.14066541  0.14553278  1  0.011004  0.001564  -0.071553  -0.132349  0.001852  3.919935  0.001
C  C140  1  0.18404939  0.04325568  0.47914056  1  0.083232  0.001536  -0.071062  -0.131112  0.001834  3.918556  0.001
C  C141  1  0.88284139  0.84253521  0.13841085  1  -0.000753  -0.004561  -0.07866  -0.10324  -0.003183  3.996565  -0.004
C  C142  1  0.15718822  0.04055045  0.80552466  1  0.023194  -0.004604  -0.07899  -0.104822  -0.003206  3.996088  -0.004
C  C143  1  0.95950503  0.11687494  0.47190452  1  -0.059661  -0.004636  -0.079031  -0.105297  -0.003205  3.996757  -0.004
C  C144  1  0.84254022  0.88283899  0.86158472  1  -0.000951  -0.004563  -0.078702  -0.10337  -0.003184  3.996569  -0.004
C  C145  1  0.04054822  0.15718198  0.19447212  1  0.023165  -0.004604  -0.07892  -0.104624  -0.003206  3.996275  -0.004
C  C146  1  0.11687541  0.95952119  0.52810896  1  -0.059665  -0.004636  -0.079125  -0.105315  -0.003205  3.996834  -0.004
C  C147  1  0.82641540  0.78170742  0.08067514  1  0.407151  -0.000257  0.040785  0.064654  0.000394  3.925324  0.0
C  C148  1  0.21792337  0.04500060  0.74773642  1  0.393373  -0.000234  0.041077  0.065683  0.000422  3.921898  0.0
C  C149  1  0.95518115  0.17322360  0.41411829  1  0.411876  -0.000154  0.040761  0.065558  0.000434  3.92321  0.0
C  C150  1  0.78170878  0.82640940  0.91932128  1  0.407734  -0.000253  0.040775  0.064823  0.000397  3.925139  0.0
C  C151  1  0.04500990  0.21792043  0.25226191  1  0.39336  -0.000234  0.041034  0.065535  0.000422  3.921796  0.0
C  C152  1  0.17323201  0.95518697  0.58588936  1  0.411757  -0.000159  0.040774  0.065545  0.000431  3.923548  0.0
C  C153  1  0.64669816  0.90360598  0.27516728  1  1.393454  -0.000257  0.253209  0.488789  -0.000225  4.030493  0.0
C  C154  1  0.09681966  0.74350263  0.94236716  1  1.388598  -0.000258  0.252992  0.488335  -0.000225  4.029225  0.0
C  C155  1  0.25657791  0.35332124  0.60870846  1  1.394441  -0.000258  0.253223  0.489403  -0.000224  4.029123  0.0
C  C156  1  0.90359152  0.64669188  0.72482612  1  1.392735  -0.000257  0.253452  0.489096  -0.000225  4.030183  0.0
C  C157  1  0.74349974  0.09681979  0.05763084  1  1.388478  -0.000258  0.253069  0.488551  -0.000225  4.02882  0.0
C  C158  1  0.35331899  0.25658060  0.39129811  1  1.394453  -0.000258  0.253067  0.489361  -0.000224  4.029521  0.0
C  C159  1  0.53814785  0.90546103  0.30751387  1  0.35074  -0.000454  0.016707  0.015906  -0.00033  3.867203  0.0
C  C160  1  0.09476230  0.63286647  0.97458930  1  0.306497  -0.000454  0.017123  0.017175  -0.000329  3.865585  0.0
C  C161  1  0.36707720  0.46187771  0.64108177  1  0.333848  -0.000451  0.017072  0.017029  -0.000328  3.865257  0.0
C  C162  1  0.90546397  0.53815081  0.69248334  1  0.351205  -0.000454  0.01666  0.015641  -0.000331  3.867291  0.0
C  C163  1  0.63286247  0.09476776  0.02540906  1  0.306293  -0.000454  0.016999  0.016896  -0.000329  3.865393  0.0
C  C164  1  0.46186877  0.36707037  0.35891867  1  0.333973  -0.000451  0.017088  0.0171  -0.000328  3.865155  0.0
C  C165  1  0.50011300  0.98128360  0.26396748  1  -0.034603  -6e-05  -0.162097  -0.230328  -4.2e-05  3.860168  0.0
C  C166  1  0.01897409  0.51913716  0.93094873  1  -0.038006  -6e-05  -0.162471  -0.231064  -4.2e-05  3.860537  0.0
C  C167  1  0.48100932  0.49996080  0.59757357  1  -0.016514  -5.9e-05  -0.162263  -0.230549  -4.1e-05  3.860883  0.0
C  C168  1  0.98128617  0.50012014  0.73603320  1  -0.035553  -6e-05  -0.16213  -0.230203  -4.1e-05  3.860157  0.0
C  C169  1  0.51913442  0.01897084  0.06905236  1  -0.037855  -6e-05  -0.162439  -0.231068  -4.2e-05  3.860462  0.0
C  C170  1  0.49996071  0.48100671  0.40242606  1  -0.016661  -5.9e-05  -0.162304  -0.230647  -4.1e-05  3.860831  0.0
C  C171  1  0.39036316  0.98834446  0.29051784  1  0.04667  -2.8e-05  -0.095019  0.13911  -1.4e-05  3.866022  0.0
C  C172  1  0.01192722  0.40224781  0.95736857  1  0.045941  -2.7e-05  -0.095067  0.139457  -1.4e-05  3.865928  0.0
C  C173  1  0.59779786  0.60974575  0.62411605  1  0.028921  -2.8e-05  -0.095145  0.138961  -1.4e-05  3.866088  0.0
C  C174  1  0.98835204  0.39036988  0.70948519  1  0.046772  -2.8e-05  -0.095068  0.138663  -1.4e-05  3.866377  0.0
C  C175  1  0.40223941  0.01191654  0.04263385  1  0.045579  -2.7e-05  -0.095105  0.139485  -1.4e-05  3.865572  0.0
C  C176  1  0.60974326  0.59779732  0.37588139  1  0.028835  -2.8e-05  -0.095172  0.139  -1.5e-05  3.865915  0.0
C  C177  1  0.38113599  0.09081230  0.25617536  1  -0.093856  -2e-05  -0.255085  -0.403423  -1.5e-05  3.913243  0.0
C  C178  1  0.90915019  0.29058057  0.92315107  1  -0.079494  -2e-05  -0.255176  -0.404718  -1.5e-05  3.913767  0.0
C  C179  1  0.70959513  0.61895988  0.58987742  1  -0.025996  -2e-05  -0.254882  -0.403552  -1.6e-05  3.913302  0.0
C  C180  1  0.09081986  0.38114673  0.74382811  1  -0.093906  -1.9e-05  -0.255054  -0.403233  -1.4e-05  3.913535  0.0
C  C181  1  0.29057438  0.90913956  0.07685077  1  -0.079698  -2e-05  -0.255067  -0.404669  -1.5e-05  3.913875  0.0
C  C182  1  0.61895586  0.70959482  0.41011818  1  -0.026209  -2e-05  -0.254826  -0.403513  -1.6e-05  3.913356  0.0
C  C183  1  0.27277002  0.86554451  0.28403126  1  -0.053114  -9.8e-05  -0.251629  -0.401266  -7.1e-05  3.920928  0.0
C  C184  1  0.13450692  0.40710181  0.95052402  1  -0.045971  -9.8e-05  -0.251746  -0.401101  -7.1e-05  3.92074  0.0
C  C185  1  0.59279176  0.72742336  0.61745577  1  -0.095618  -9.8e-05  -0.251696  -0.400743  -7e-05  3.920565  0.0
C  C186  1  0.86554846  0.27277412  0.71597002  1  -0.053038  -9.7e-05  -0.251665  -0.401261  -7e-05  3.920841  0.0
C  C187  1  0.40709327  0.13449788  0.04947953  1  -0.045831  -9.8e-05  -0.251686  -0.400877  -7.1e-05  3.920893  0.0
C  C188  1  0.72742103  0.59279132  0.38254425  1  -0.095701  -9.8e-05  -0.251726  -0.400878  -7e-05  3.920589  0.0
C  C189  1  0.50310142  0.90555803  0.42603160  1  1.408297  -0.001215  0.234046  0.462829  -0.000833  4.167151  -0.001
C  C190  1  0.09450800  0.59773706  0.09311632  1  1.420415  -0.001201  0.234724  0.464277  -0.000831  4.166875  -0.001
C  C191  1  0.40193994  0.49648426  0.75964983  1  1.42327  -0.001192  0.234389  0.465078  -0.000829  4.16539  -0.001
C  C192  1  0.90555260  0.50309876  0.57396607  1  1.408309  -0.001215  0.234088  0.462632  -0.000833  4.167281  -0.001
C  C193  1  0.59773826  0.09450590  0.90688249  1  1.419812  -0.001201  0.234775  0.46441  -0.000831  4.16661  -0.001
C  C194  1  0.49647920  0.40192784  0.24035413  1  1.42341  -0.001192  0.234233  0.465003  -0.000829  4.165592  -0.001
C  C195  1  0.55205980  0.97713724  0.48823717  1  -0.015755  -0.006689  -0.008971  -0.057797  -0.004599  3.954957  -0.005
C  C196  1  0.02286558  0.57503224  0.15530516  1  -0.016227  -0.006732  -0.00962  -0.059553  -0.004586  3.955389  -0.005
C  C197  1  0.42484580  0.44752195  0.82176348  1  0.041214  -0.006698  -0.009187  -0.059158  -0.004597  3.956358  -0.006
C  C198  1  0.97713614  0.55205685  0.51176014  1  -0.015813  -0.006691  -0.008916  -0.057589  -0.0046  3.95461  -0.005
C  C199  1  0.57503306  0.02286952  0.84469305  1  -0.016527  -0.006734  -0.009566  -0.059592  -0.004586  3.955339  -0.005
C  C200  1  0.44752293  0.42483792  0.17823848  1  0.040825  -0.0067  -0.009055  -0.058971  -0.004597  3.956336  -0.006
C  C201  1  0.47110194  0.95268852  0.54010291  1  0.418077  -0.000366  0.049533  0.070734  9e-05  3.893248  -0.001
C  C202  1  0.04756700  0.51864588  0.20710370  1  0.471044  -0.000278  0.049635  0.071062  0.000103  3.893537  -0.001
C  C203  1  0.48121166  0.52849042  0.87363113  1  0.440409  -0.000343  0.049686  0.071843  9.3e-05  3.891841  -0.001
C  C204  1  0.95267919  0.47109720  0.45989232  1  0.417907  -0.000366  0.049465  0.070491  8.9e-05  3.893257  -0.001
C  C205  1  0.51864724  0.04756968  0.79289350  1  0.471689  -0.000274  0.049609  0.071131  0.000105  3.893514  -0.001
C  C206  1  0.52849713  0.48120853  0.12637295  1  0.44027  -0.000344  0.049543  0.071473  9.2e-05  3.892183  -0.001
C  C207  1  0.62460801  0.10237581  0.60477388  1  0.414692  0.000953  0.048072  0.094343  0.001629  3.907524  0.001
C  C208  1  0.89775295  0.52202860  0.27186922  1  0.420985  0.000997  0.047932  0.094395  0.001649  3.907648  0.001
C  C209  1  0.47803836  0.37524562  0.93822950  1  0.399981  0.000897  0.047758  0.094201  0.001652  3.907588  0.001
C  C210  1  0.10236758  0.62460011  0.39521712  1  0.414494  0.000952  0.048163  0.094546  0.001628  3.907363  0.001
C  C211  1  0.52203160  0.89775688  0.72812649  1  0.420787  0.000997  0.048047  0.094614  0.00165  3.907463  0.001
C  C212  1  0.37525678  0.47804249  0.06177342  1  0.401181  0.0009  0.0476  0.09401  0.001651  3.907606  0.001
C  C213  1  0.71139468  0.12935303  0.55615320  1  -0.027762  -0.005886  -0.079362  -0.103782  -0.004031  3.949829  -0.005
C  C214  1  0.87054891  0.58176977  0.22331838  1  0.038969  -0.005911  -0.078978  -0.103609  -0.00403  3.949802  -0.005
C  C215  1  0.41835273  0.28843018  0.88960250  1  0.074567  -0.005807  -0.079098  -0.102726  -0.004033  3.950024  -0.005
C  C216  1  0.12934540  0.71138824  0.44383695  1  -0.027521  -0.005884  -0.079332  -0.103882  -0.004031  3.949657  -0.005
C  C217  1  0.58177050  0.87055421  0.77667834  1  0.039202  -0.00591  -0.079022  -0.103618  -0.004029  3.94976  -0.005
C  C218  1  0.28843871  0.41836160  0.11039682  1  0.07412  -0.00581  -0.079084  -0.102583  -0.004034  3.949979  -0.005
C  C219  1  0.67435927  0.06719784  0.49681338  1  0.083414  0.003515  -0.065247  -0.053778  0.003974  3.944989  0.002
C  C220  1  0.93263559  0.60702957  0.16394898  1  -0.057837  0.003531  -0.064794  -0.052073  0.003983  3.942951  0.002
C  C221  1  0.39300314  0.32533667  0.83029113  1  -0.089002  0.003529  -0.06521  -0.053912  0.003977  3.946272  0.002
C  C222  1  0.06719606  0.67435872  0.50317862  1  0.083284  0.003514  -0.065378  -0.05394  0.003973  3.944825  0.002
C  C223  1  0.60702952  0.93263917  0.83604932  1  -0.057737  0.003531  -0.064781  -0.052061  0.003984  3.942915  0.002
C  C224  1  0.32533723  0.39300494  0.16970919  1  -0.089106  0.00353  -0.065195  -0.054005  0.003978  3.946298  0.002
Br  Br225  1  0.46861016  0.74051633  0.97102809  1  -0.698336  -0.001369  -0.339537  -0.602524  -0.000133  0.980494  -0.001
Br  Br226  1  0.25936508  0.72836544  0.63818633  1  -0.69913  -0.001043  -0.339745  -0.60271  0.00012  0.980723  -0.001
Br  Br227  1  0.27178802  0.53100835  0.30507771  1  -0.697207  -0.001608  -0.338992  -0.601982  -0.000314  0.982919  -0.002
Br  Br228  1  0.74051009  0.46862230  0.02898750  1  -0.698333  -0.001372  -0.339472  -0.602477  -0.000136  0.980642  -0.001
Br  Br229  1  0.72835786  0.25937323  0.36182018  1  -0.699163  -0.001051  -0.339748  -0.602735  0.000113  0.980669  -0.001
Br  Br230  1  0.53099288  0.27177924  0.69491779  1  -0.697177  -0.001615  -0.338982  -0.601965  -0.000319  0.982967  -0.002
N  N231  1  0.70685339  0.74038752  0.07059245  1  -1.233088  -0.087246  -0.343476  -0.195476  -0.058258  3.663243  -0.074
N  N232  1  0.25953510  0.96699681  0.73762942  1  -1.219461  -0.087019  -0.342814  -0.19584  -0.058257  3.658562  -0.074
N  N233  1  0.03331996  0.29280946  0.40404958  1  -1.243609  -0.087087  -0.343679  -0.195544  -0.058087  3.663412  -0.074
N  N234  1  0.74038634  0.70684858  0.92940329  1  -1.233251  -0.087254  -0.343363  -0.195421  -0.058264  3.663059  -0.074
N  N235  1  0.96700142  0.25952704  0.26236999  1  -1.219693  -0.087009  -0.342809  -0.195772  -0.058251  3.658411  -0.074
N  N236  1  0.29281788  0.03332249  0.59595568  1  -1.243647  -0.087086  -0.343683  -0.195437  -0.058088  3.663439  -0.074
N  N237  1  0.61437279  0.83035030  0.22015625  1  -1.225668  -0.001086  -0.393856  -0.379763  -0.000589  3.564254  -0.001
N  N238  1  0.16976353  0.78435896  0.88720677  1  -1.23864  -0.001076  -0.393548  -0.379247  -0.000586  3.562656  -0.001
N  N239  1  0.21570526  0.38558327  0.55365283  1  -1.258134  -0.001076  -0.39409  -0.380328  -0.000585  3.564324  -0.001
N  N240  1  0.83034405  0.61436838  0.77983900  1  -1.225593  -0.001085  -0.393834  -0.379693  -0.000589  3.564111  -0.001
N  N241  1  0.78435123  0.16975329  0.11279479  1  -1.238612  -0.001076  -0.393524  -0.37922  -0.000586  3.562402  -0.001
N  N242  1  0.38558156  0.21571763  0.44635618  1  -1.257942  -0.001076  -0.39405  -0.380482  -0.000586  3.564624  -0.001
N  N243  1  0.57316827  0.95817356  0.37224309  1  -1.240601  -0.001002  -0.422792  -0.372156  -0.000627  3.586326  -0.001
N  N244  1  0.04183969  0.61493949  0.03928200  1  -1.230582  -0.00101  -0.422568  -0.371967  -0.000632  3.585148  -0.001
N  N245  1  0.38475155  0.42671607  0.70577211  1  -1.235092  -0.001014  -0.42305  -0.373331  -0.000636  3.586242  -0.001
N  N246  1  0.95817774  0.57317242  0.62775422  1  -1.240623  -0.001002  -0.42278  -0.371971  -0.000627  3.586327  -0.001
N  N247  1  0.61493898  0.04184319  0.96071726  1  -1.230293  -0.00101  -0.422554  -0.372016  -0.000631  3.585163  -0.001
N  N248  1  0.42670696  0.38474091  0.29422929  1  -1.235071  -0.001014  -0.422964  -0.373348  -0.000636  3.586327  -0.001
N  N249  1  0.50702832  0.01578837  0.59662555  1  -1.214989  -0.100324  -0.348426  -0.218789  -0.066979  3.642768  -0.086
N  N250  1  0.98449664  0.49129112  0.26363491  1  -1.237377  -0.100121  -0.349034  -0.218672  -0.06677  3.645927  -0.086
N  N251  1  0.50864407  0.49270267  0.93010759  1  -1.241261  -0.100035  -0.349102  -0.2191  -0.066696  3.643895  -0.086
N  N252  1  0.01577381  0.50702056  0.40336865  1  -1.215003  -0.100337  -0.34843  -0.218835  -0.066985  3.642904  -0.086
N  N253  1  0.49129569  0.98450211  0.73636233  1  -1.23764  -0.100123  -0.349143  -0.21889  -0.066771  3.646218  -0.086
N  N254  1  0.49271442  0.50864781  0.06989647  1  -1.241036  -0.100037  -0.349095  -0.21893  -0.066697  3.644041  -0.086
O  O255  1  0.75283298  0.96539657  0.29459105  1  -1.144132  -0.000616  -0.281923  -0.462088  -0.000382  2.14289  0.0
O  O256  1  0.03537784  0.78808763  0.96201831  1  -1.142897  -0.000608  -0.281609  -0.461716  -0.000376  2.1424  0.0
O  O257  1  0.21214804  0.24719198  0.62815621  1  -1.152515  -0.00061  -0.281429  -0.461923  -0.000377  2.142971  0.0
O  O258  1  0.96535748  0.75282573  0.70539077  1  -1.143581  -0.000616  -0.282076  -0.462268  -0.000382  2.142772  0.0
O  O259  1  0.78808682  0.03538369  0.03797623  1  -1.142791  -0.000608  -0.281668  -0.461781  -0.000376  2.142341  0.0
O  O260  1  0.24718857  0.21214051  0.37185068  1  -1.152443  -0.000609  -0.281379  -0.461916  -0.000377  2.143157  0.0
O  O261  1  0.40633259  0.80584832  0.42583513  1  -1.147051  -0.001764  -0.306086  -0.499175  -0.001079  2.139037  -0.001
O  O262  1  0.19432903  0.60092769  0.09298819  1  -1.143779  -0.001766  -0.306414  -0.499892  -0.00108  2.139127  -0.001
O  O263  1  0.39860165  0.59305860  0.75962651  1  -1.149176  -0.001768  -0.306064  -0.499803  -0.001082  2.138014  -0.001
O  O264  1  0.80584594  0.40634585  0.57416034  1  -1.147021  -0.001765  -0.306104  -0.499035  -0.001079  2.139189  -0.001
O  O265  1  0.60093007  0.19433353  0.90700829  1  -1.143812  -0.001765  -0.306517  -0.500014  -0.00108  2.13885  -0.001
O  O266  1  0.59304959  0.39858099  0.24037558  1  -1.149208  -0.001768  -0.30605  -0.499836  -0.001082  2.138111  -0.001
