# generated using pymatgen
data_AgH8C11SN3O2
_symmetry_space_group_name_H-M   'P 1'
_cell_length_a   7.58058871
_cell_length_b   9.23253145
_cell_length_c   18.32209530
_cell_angle_alpha   97.48034645
_cell_angle_beta   95.64399056
_cell_angle_gamma   93.86957627
_symmetry_Int_Tables_number   1
_chemical_formula_structural   AgH8C11SN3O2
_chemical_formula_sum   'Ag4 H32 C44 S4 N12 O8'
_cell_volume   1261.05462800
_cell_formula_units_Z   4
loop_
 _symmetry_equiv_pos_site_id
 _symmetry_equiv_pos_as_xyz
  1  'x, y, z'
loop_
 _atom_site_type_symbol
 _atom_site_label
 _atom_site_symmetry_multiplicity
 _atom_site_fract_x
 _atom_site_fract_y
 _atom_site_fract_z
 _atom_site_occupancy
 _atom_site_pbe_bader_charge
 _atom_site_pbe_bader_spin_density
 _atom_site_pbe_cm5_charge
 _atom_site_pbe_ddec_charge
 _atom_site_pbe_ddec_spin_density
 _atom_site_pbe_ddec_sum_bond_order
 _atom_site_pbe_magmom
Ag  Ag0  1  0.07177864  0.54803412  0.07526685  1  0.641467  0  0.42241  0.35112  0  2.021908  0
Ag  Ag1  1  0.92823645  0.45196867  0.92473227  1  0.641344  0  0.422395  0.351127  0  2.021842  0
Ag  Ag2  1  0.49375335  0.04623784  0.43161130  1  0.587839  0  0.392283  0.310008  0  2.160812  0
Ag  Ag3  1  0.50623534  0.95376698  0.56839174  1  0.588795  0  0.392286  0.309972  0  2.160923  0
H  H4  1  0.19730498  0.53630801  0.25975092  1  0.112521  0  0.115346  0.092616  0  1.002711  0
H  H5  1  0.80269381  0.46369028  0.74024944  1  0.112552  0  0.115327  0.092579  0  1.002638  0
H  H6  1  0.11528117  0.89779033  0.15203929  1  0.110039  0  0.120569  0.102786  0  1.017157  0
H  H7  1  0.88476114  0.10220375  0.84795121  1  0.109756  0  0.120547  0.102746  0  1.017042  0
H  H8  1  0.26917903  0.06515268  0.26552688  1  0.091163  0  0.119098  0.092531  0  0.983287  0
H  H9  1  0.73082509  0.93484559  0.73447097  1  0.091141  0  0.119075  0.092526  0  0.983284  0
H  H10  1  0.37666023  0.37870463  0.43802805  1  0.153072  0  0.119305  0.115244  0  1.018654  0
H  H11  1  0.62333212  0.62129573  0.56197052  1  0.153114  0  0.119306  0.115271  0  1.018619  0
H  H12  1  0.68898615  0.16266788  0.29189421  1  0.113864  0  0.124219  0.110701  0  0.971965  0
H  H13  1  0.31101567  0.83733478  0.70810488  1  0.113826  0  0.12421  0.110679  0  0.971979  0
H  H14  1  0.40341813  0.39639862  0.15521310  1  0.111593  0  0.120075  0.108123  0  0.983689  0
H  H15  1  0.59658831  0.60359521  0.84478131  1  0.111719  0  0.120113  0.108183  0  0.983653  0
H  H16  1  0.42291469  0.73905194  0.02978152  1  0.128176  0  0.115327  0.0975  0  1.043906  0
H  H17  1  0.57710884  0.26093984  0.97021187  1  0.12833  0  0.115354  0.097434  0  1.04391  0
H  H18  1  0.76022871  0.73129498  0.03450892  1  0.151728  0  0.1171  0.095608  0  1.030909  0
H  H19  1  0.23979485  0.26869811  0.96549164  1  0.151466  0  0.117163  0.095749  0  1.030855  0
H  H20  1  0.98050175  0.77770865  0.39009522  1  0.022159  0  0.091745  0.115927  0  0.992141  0
H  H21  1  0.01949890  0.22229626  0.60990669  1  0.022073  0  0.091736  0.115981  0  0.992108  0
H  H22  1  0.08860601  0.86182945  0.47671080  1  0.062991  0  0.101696  0.130837  0  1.009431  0
H  H23  1  0.91138564  0.13816347  0.52329549  1  0.062628  0  0.101749  0.130975  0  1.009347  0
H  H24  1  0.02293731  0.72442303  0.59247081  1  0.068217  0  0.095645  0.106407  0  1.000226  0
H  H25  1  0.97702990  0.27557819  0.40752837  1  0.068266  0  0.095584  0.106193  0  1.000351  0
H  H26  1  0.04561069  0.47909617  0.63379457  1  0.034289  0  0.082189  0.079426  0  1.055208  0
H  H27  1  0.95436560  0.52090307  0.36620870  1  0.034328  0  0.082262  0.079534  0  1.055236  0
H  H28  1  0.94894209  0.98628119  0.05753698  1  0.078956  0  0.100761  0.126033  0  1.028032  0
H  H29  1  0.05105360  0.01372808  0.94246607  1  0.078755  0  0.100763  0.126102  0  1.028074  0
H  H30  1  0.86526656  0.09224107  0.13222077  1  0.008402  0  0.088814  0.1049  0  1.020522  0
H  H31  1  0.13473905  0.90777601  0.86778424  1  0.008056  0  0.08881  0.104914  0  1.020584  0
H  H32  1  0.55140098  0.12652298  0.12906657  1  0.008231  0  0.085129  0.077174  0  1.056697  0
H  H33  1  0.44859490  0.87347332  0.87094173  1  0.007938  0  0.085125  0.077089  0  1.056732  0
H  H34  1  0.75502937  0.92920893  0.93202457  1  0.078511  0  0.096152  0.101942  0  1.030081  0
H  H35  1  0.24496813  0.07079063  0.06798235  1  0.079034  0  0.096072  0.101896  0  1.030142  0
C  C36  1  0.21936534  0.65441398  0.25979013  1  0.587212  0  0.053697  0.003622  0  3.951156  0
C  C37  1  0.78064125  0.34558215  0.74020825  1  0.587417  0  0.053705  0.003693  0  3.950982  0
C  C38  1  0.16986257  0.85538439  0.20157145  1  0.550704  0  0.047018  0.035866  0  3.915947  0
C  C39  1  0.83016528  0.14461186  0.79842347  1  0.551404  0  0.047164  0.036065  0  3.915485  0
C  C40  1  0.25736073  0.94598058  0.26293280  1  0.467077  0  0.054342  0.058821  0  3.935644  0
C  C41  1  0.74264331  0.05401656  0.73706389  1  0.466604  0  0.05433  0.058716  0  3.935467  0
C  C42  1  0.31591973  0.74536120  0.32012582  1  0.424969  0  0.13088  0.157835  0  4.011609  0
C  C43  1  0.68407375  0.25463706  0.67987539  1  0.424993  0  0.130907  0.157802  0  4.011625  0
C  C44  1  0.48494743  0.51117111  0.35888127  1  0.430485  0  0.12766  0.160997  0  4.030911  0
C  C45  1  0.51504350  0.48882816  0.64111771  1  0.430358  0  0.127727  0.161088  0  4.030792  0
C  C46  1  0.46027720  0.38445147  0.39308374  1  0.520607  0  0.051253  -0.000861  0  3.874301  0
C  C47  1  0.53971621  0.61554560  0.60691413  1  0.520722  0  0.051195  -0.000896  0  3.874121  0
C  C48  1  0.62939784  0.26328454  0.31099237  1  0.517368  0  0.046086  -0.020344  0  3.934518  0
C  C49  1  0.37060132  0.73671810  0.68900716  1  0.517616  0  0.04614  -0.020272  0  3.934383  0
C  C50  1  0.64877732  0.38961664  0.27628328  1  0.437788  0  0.120425  0.140213  0  4.088359  0
C  C51  1  0.35122058  0.61038715  0.72371845  1  0.437572  0  0.120459  0.140314  0  4.088016  0
C  C52  1  0.67102150  0.48933572  0.14344402  1  0.448311  0  0.12762  0.159276  0  4.004668  0
C  C53  1  0.32898667  0.51066374  0.85655571  1  0.448378  0  0.127633  0.159289  0  4.004488  0
C  C54  1  0.48431820  0.47774546  0.13211373  1  0.543945  0  0.051844  0.002857  0  3.930471  0
C  C55  1  0.51569212  0.52224733  0.86788133  1  0.543794  0  0.05185  0.002765  0  3.930445  0
C  C56  1  0.49519166  0.66336592  0.05999416  1  0.500293  0  0.044914  0.036529  0  3.902643  0
C  C57  1  0.50482383  0.33662463  0.93999717  1  0.499992  0  0.044873  0.036624  0  3.902652  0
C  C58  1  0.67957562  0.66295786  0.06487638  1  0.461157  0  0.050261  0.057639  0  3.925476  0
C  C59  1  0.32044265  0.33703507  0.93512067  1  0.461588  0  0.050143  0.057353  0  3.926076  0
C  C60  1  0.80834304  0.86552602  0.46766074  1  1.576728  0  0.19543  0.615129  0  4.168389  0
C  C61  1  0.19164949  0.13447654  0.53233850  1  1.576258  0  0.195406  0.615211  0  4.16789  0
C  C62  1  0.97436446  0.78669107  0.45007722  1  0.016917  0  -0.165083  -0.334696  0  3.913453  0
C  C63  1  0.02562398  0.21331042  0.54992397  1  0.016975  0  -0.16511  -0.334967  0  3.913191  0
C  C64  1  0.98648260  0.63975513  0.47632926  1  -0.041402  0  -0.021596  0.131981  0  3.995136  0
C  C65  1  0.01349311  0.36025280  0.52367231  1  -0.041125  0  -0.021704  0.132061  0  3.995397  0
C  C66  1  0.01324184  0.62601698  0.55183981  1  0.001259  0  -0.104027  -0.137167  0  3.992253  0
C  C67  1  0.98672799  0.37398441  0.44816440  1  0.001232  0  -0.103842  -0.136842  0  3.992398  0
C  C68  1  0.02622625  0.48842852  0.57476680  1  -0.109618  0  -0.113455  -0.169169  0  4.041895  0
C  C69  1  0.97374435  0.51156494  0.42522770  1  -0.109439  0  -0.113635  -0.169259  0  4.041772  0
C  C70  1  0.94732071  0.21517321  0.04726262  1  1.586021  0  0.191656  0.612155  0  4.180752  0
C  C71  1  0.05268120  0.78483054  0.95273654  1  1.586282  0  0.191673  0.612231  0  4.18069  0
C  C72  1  0.86252720  0.07481400  0.07171800  1  -0.025723  0  -0.172673  -0.360593  0  3.937151  0
C  C73  1  0.13746859  0.92519633  0.92828402  1  -0.025358  0  -0.172712  -0.36065  0  3.937017  0
C  C74  1  0.67637218  0.03272052  0.03523561  1  -0.074225  0  -0.017277  0.1339  0  3.984319  0
C  C75  1  0.32363278  0.96728894  0.96477057  1  -0.074702  0  -0.017291  0.133648  0  3.984373  0
C  C76  1  0.52918887  0.07031458  0.07226826  1  -0.003654  0  -0.102825  -0.151727  0  4.010021  0
C  C77  1  0.47080634  0.92968933  0.92773881  1  -0.003314  0  -0.102825  -0.151484  0  4.010126  0
C  C78  1  0.64394095  0.96152734  0.96225032  1  -0.048756  0  -0.097434  -0.135277  0  3.983939  0
C  C79  1  0.35605302  0.03847765  0.03775676  1  -0.049169  0  -0.097266  -0.13504  0  3.983913  0
S  S80  1  0.40589990  0.67550213  0.39952630  1  0.197615  0  0.089152  0.029515  0  2.779021  0
S  S81  1  0.59408676  0.32449385  0.60047395  1  0.197666  0  0.089153  0.029512  0  2.778916  0
S  S82  1  0.78829655  0.38531333  0.20392759  1  0.171605  0  0.075019  0.017626  0  2.733141  0
S  S83  1  0.21171345  0.61469289  0.79607861  1  0.171557  0  0.074984  0.01754  0  2.733186  0
N  N84  1  0.14949673  0.70935214  0.20087003  1  -1.179587  0  -0.29929  -0.167089  0  3.457075  0
N  N85  1  0.85052724  0.29064514  0.79912424  1  -1.179708  0  -0.299378  -0.167191  0  3.45699  0
N  N86  1  0.33224579  0.89107226  0.32180134  1  -1.194448  0  -0.301377  -0.205574  0  3.446417  0
N  N87  1  0.66774389  0.10892815  0.67819984  1  -1.194525  0  -0.301403  -0.205547  0  3.446584  0
N  N88  1  0.57697949  0.51299487  0.30022938  1  -1.169417  0  -0.299979  -0.294458  0  3.343638  0
N  N89  1  0.42301560  0.48700664  0.69977045  1  -1.169415  0  -0.300079  -0.2946  0  3.343583  0
N  N90  1  0.53386906  0.26209480  0.36853011  1  -1.168191  0  -0.302156  -0.131217  0  3.490936  0
N  N91  1  0.46612585  0.73790453  0.63146959  1  -1.16819  0  -0.302112  -0.131191  0  3.490825  0
N  N92  1  0.39821487  0.56637093  0.09164112  1  -1.180131  0  -0.30578  -0.163792  0  3.489899  0
N  N93  1  0.60180053  0.43361853  0.90835014  1  -1.180403  0  -0.305714  -0.163632  0  3.489992  0
N  N94  1  0.76755246  0.57722179  0.10717575  1  -1.178182  0  -0.304809  -0.219803  0  3.472612  0
N  N95  1  0.23246189  0.42277231  0.89282556  1  -1.177964  0  -0.304833  -0.219772  0  3.47296  0
O  O96  1  0.75798567  0.95350420  0.42322014  1  -1.14317  0  -0.345445  -0.532932  0  2.301146  0
O  O97  1  0.24198733  0.04648596  0.57677263  1  -1.142817  0  -0.34538  -0.532874  0  2.300867  0
O  O98  1  0.73830697  0.84023740  0.52535082  1  -1.150217  0  -0.332584  -0.535538  0  2.370455  0
O  O99  1  0.26169077  0.15978066  0.47465337  1  -1.15017  0  -0.332619  -0.535594  0  2.370287  0
O  O100  1  0.05078911  0.29979962  0.09581018  1  -1.17298  0  -0.348404  -0.564261  0  2.274067  0
O  O101  1  0.94920794  0.70020955  0.90418910  1  -1.173041  0  -0.348398  -0.564281  0  2.274028  0
O  O102  1  0.90797810  0.23344753  0.98022326  1  -1.163805  0  -0.330913  -0.548536  0  2.303586  0
O  O103  1  0.09203389  0.76654975  0.01977541  1  -1.16396  0  -0.330933  -0.54858  0  2.303642  0
