# generated using pymatgen
data_CoH10C14N3O5
_symmetry_space_group_name_H-M   'P 1'
_cell_length_a   7.57126130
_cell_length_b   7.68104978
_cell_length_c   11.74419999
_cell_angle_alpha   98.34970446
_cell_angle_beta   95.30339193
_cell_angle_gamma   96.72403024
_symmetry_Int_Tables_number   1
_chemical_formula_structural   CoH10C14N3O5
_chemical_formula_sum   'Co2 H20 C28 N6 O10'
_cell_volume   666.92418188
_cell_formula_units_Z   2
loop_
 _symmetry_equiv_pos_site_id
 _symmetry_equiv_pos_as_xyz
  1  'x, y, z'
loop_
 _atom_site_type_symbol
 _atom_site_label
 _atom_site_symmetry_multiplicity
 _atom_site_fract_x
 _atom_site_fract_y
 _atom_site_fract_z
 _atom_site_occupancy
 _atom_site_hse06_10hf_bader_charge
 _atom_site_hse06_10hf_bader_spin_density
 _atom_site_hse06_10hf_ddec_charge
 _atom_site_hse06_10hf_ddec_spin_density
 _atom_site_hse06_10hf_ddec_sum_bond_order
 _atom_site_hse06_10hf_magmom
 _atom_site_hse06_ddec_charge
 _atom_site_hse06_ddec_spin_density
 _atom_site_hse06_ddec_sum_bond_order
 _atom_site_hse06_magmom
 _atom_site_pbe_cm5_charge
 _atom_site_pbe_ddec_charge
 _atom_site_pbe_ddec_spin_density
 _atom_site_pbe_ddec_sum_bond_order
 _atom_site_pbe_magmom
Co  Co0  1  0.47711122  0.08400972  0.68448629  1  1.237406  2.621469  0.884628  2.87208  2.410766  2.573  0.977128  2.934233  2.325524  2.667  0.675146  0.814944  2.823793  2.473257  2.486
Co  Co1  1  0.56588967  0.90545955  0.31616982  1  1.09403  -0.98107  0.695753  -1.063353  2.695223  -0.954  0.792664  -1.079256  2.601791  -0.966  0.615135  0.645616  -1.053425  2.750414  -0.934
H  H2  1  0.72395049  0.09695416  0.89276531  1  0.146301  0.002231  0.103488  0.001034  0.982224  0.001  0.106156  0.000757  0.979882  0.001  0.123071  0.101396  0.001328  0.984394  0.002
H  H3  1  0.26243737  0.91462017  0.11450891  1  0.144358  -1.4e-05  0.111916  8.5e-05  0.969132  0.0  0.115143  4.2e-05  0.96566  0.0  0.126673  0.109186  8.4e-05  0.972325  0.0
H  H4  1  0.21494539  0.48001779  0.12311880  1  0.556309  0.000135  0.289148  0.0001  1.002292  0.0  0.298081  6.7e-05  0.995586  0.0  0.307438  0.282857  0.000136  1.006865  0.0
H  H5  1  0.76416773  0.51988205  0.87745425  1  0.540857  1.9e-05  0.294616  -5.2e-05  0.975146  0.0  0.303421  -7.3e-05  0.968555  0.0  0.310922  0.288283  -3.3e-05  0.979844  0.0
H  H6  1  0.73153136  0.21237712  0.10464198  1  0.096272  0.000759  0.12114  0.00034  0.994029  0.0  0.124254  0.000231  0.993715  0.0  0.109647  0.11867  0.000473  0.994636  0.001
H  H7  1  0.24288521  0.78873692  0.90305671  1  0.075028  0.000189  0.125077  1.6e-05  0.986572  0.0  0.12801  7e-05  0.986379  0.0  0.11153  0.122783  2e-06  0.986992  0.0
H  H8  1  0.43224300  0.19627588  0.48755921  1  0.518707  0.000222  0.31557  0.000382  0.974797  0.0  0.323566  0.000235  0.969539  0.0  0.299934  0.309592  0.000536  0.978597  0.001
H  H9  1  0.58508472  0.80308838  0.51348931  1  0.503928  0.000541  0.314985  0.000394  0.95276  0.0  0.323048  0.000304  0.947599  0.0  0.302637  0.309333  0.000516  0.956674  0.0
H  H10  1  0.26812417  0.04095687  0.49744922  1  0.462644  -0.000112  0.303627  1.6e-05  0.945255  0.0  0.310611  -8.4e-05  0.940852  0.0  0.304814  0.298572  0.000155  0.94841  0.0
H  H11  1  0.75248374  0.95982910  0.51300703  1  0.497789  0.000297  0.3083  0.000265  0.951712  0.0  0.316193  1.4e-05  0.946639  0.0  0.303286  0.302803  0.000346  0.955573  0.0
H  H12  1  0.47356362  0.36098440  0.17396087  1  0.152902  5e-05  0.146798  4.4e-05  1.015106  0.0  0.150999  3.8e-05  1.011508  0.0  0.116622  0.143194  4.3e-05  1.018615  0.0
H  H13  1  0.49439684  0.63556487  0.82901026  1  0.149169  7.9e-05  0.142057  -3.6e-05  0.997256  0.0  0.146203  -8.4e-05  0.993477  0.0  0.116403  0.138558  1.6e-05  1.000713  0.0
H  H14  1  0.21491437  0.23355072  0.82312522  1  0.204808  0.00163  0.113498  0.000576  1.047404  0.002  0.116644  0.000383  1.0447  0.001  0.121897  0.110939  0.000791  1.049995  0.002
H  H15  1  0.78017200  0.79017381  0.17057915  1  0.192611  -0.000738  0.111943  -0.000679  1.060564  -0.001  0.115727  -0.000801  1.055986  -0.001  0.120554  0.108514  -0.000732  1.065022  -0.001
H  H16  1  0.00601788  0.10108928  0.59236505  1  0.123013  0.000362  0.126996  7.3e-05  1.020986  0.0  0.131684  -9e-06  1.016774  0.0  0.108689  0.123459  0.000144  1.02431  0.0
H  H17  1  0.02049819  0.89591941  0.40861473  1  0.086935  -2e-05  0.126162  2.1e-05  1.006394  0.0  0.130323  7.7e-05  1.003176  0.0  0.110221  0.122942  -6e-06  1.009088  0.0
H  H18  1  0.44477866  0.50565715  0.58346758  1  0.117312  0.000401  0.129096  0.000168  1.024037  0.0  0.133401  7.2e-05  1.020833  0.0  0.108154  0.1258  0.000262  1.026607  0.0
H  H19  1  0.56801183  0.50318272  0.41584124  1  0.145273  -0.000318  0.129283  -0.000301  1.024286  0.0  0.133265  -0.000231  1.021528  0.0  0.110691  0.126096  -0.000381  1.026731  0.0
H  H20  1  0.94414579  0.65170548  0.68713104  1  0.093248  0.000381  0.123621  0.000185  0.995363  0.0  0.128586  9.3e-05  0.991053  0.0  0.106655  0.120123  0.00029  0.998246  0.0
H  H21  1  0.06083252  0.34091307  0.30840860  1  0.115222  -1.3e-05  0.123369  7e-06  0.993057  0.0  0.127867  5.1e-05  0.989609  0.0  0.107743  0.120057  -1.6e-05  0.995606  0.0
C  C22  1  0.61192276  0.15477286  0.92780251  1  0.471988  -5e-05  0.070308  0.000805  3.972813  0.0  0.078643  0.000679  3.991166  0.0  0.038114  0.063532  0.000716  3.962072  0.0
C  C23  1  0.37229327  0.85580040  0.07756532  1  0.537529  0.005915  0.076288  0.003594  3.935882  0.004  0.087778  0.003086  3.950554  0.004  0.04137  0.067754  0.004361  3.928708  0.005
C  C24  1  0.61603682  0.22253580  0.04455238  1  -0.024839  0.004117  -0.113292  0.002086  4.01766  0.003  -0.119638  0.001516  4.038037  0.002  -0.086416  -0.109235  0.002623  4.005253  0.004
C  C25  1  0.36179557  0.78143311  0.96106012  1  -0.010314  -0.002483  -0.11142  -0.001395  4.002614  -0.002  -0.117786  -0.000852  4.021156  -0.001  -0.083244  -0.107198  -0.001593  3.990842  -0.002
C  C26  1  0.47312918  0.30337438  0.08353047  1  -0.016618  -0.003474  -0.130511  -0.001881  3.88598  -0.002  -0.126828  -0.000849  3.899642  -0.001  -0.07144  -0.134505  -0.003553  3.87914  -0.004
C  C27  1  0.50153250  0.69809960  0.91909022  1  -0.045462  0.005633  -0.136554  0.002911  3.899435  0.004  -0.130503  0.001319  3.91073  0.002  -0.074218  -0.141661  0.004561  3.893401  0.005
C  C28  1  0.32601346  0.31286995  0.00331095  1  0.340189  0.003386  0.216843  0.001728  4.007863  0.003  0.219947  0.001177  4.028974  0.002  0.106949  0.214542  0.002296  3.994602  0.004
C  C29  1  0.65409408  0.69388678  0.99612577  1  0.352906  -0.003363  0.22239  -0.001639  4.009891  -0.003  0.2259  -0.001623  4.029813  -0.003  0.106778  0.219803  -0.001831  3.997045  -0.003
C  C30  1  0.32745296  0.23538743  0.88773057  1  0.499776  -0.001515  -0.008401  -0.000637  3.897279  -0.001  -0.000858  -0.000249  3.912341  0.0  0.040751  -0.014828  -0.001339  3.888845  -0.002
C  C31  1  0.66085875  0.78154399  0.11011655  1  0.443634  0.002552  -0.033577  0.000187  3.880673  0.002  -0.025415  -0.001631  3.893303  0.0  0.031543  -0.040034  0.001079  3.875219  0.003
C  C32  1  0.03867405  0.42684411  0.97315114  1  1.454113  0.000118  0.391025  6.4e-05  4.133552  0.0  0.416166  3.8e-05  4.132238  0.0  0.241792  0.374115  8.4e-05  4.13411  0.0
C  C33  1  0.94060257  0.57744001  0.02589057  1  1.44914  -0.000212  0.393643  -0.000116  4.122129  0.0  0.419131  -5.4e-05  4.120631  0.0  0.241682  0.376304  -0.000163  4.122908  0.0
C  C34  1  0.95444269  0.37089537  0.63891934  1  0.041045  -0.001454  -0.021181  -0.000811  4.033914  -0.001  -0.027961  -0.001615  4.054934  -0.002  -0.018112  -0.016862  -0.000112  4.019879  -0.001
C  C35  1  0.06138243  0.62289503  0.35751429  1  -0.006622  0.003658  -0.014864  0.002046  3.968561  0.003  -0.022788  0.002591  3.990638  0.004  -0.010878  -0.009592  0.001998  3.95398  0.003
C  C36  1  0.05811257  0.24068376  0.59919452  1  0.023275  0.014383  -0.180009  0.007219  3.912428  0.009  -0.18066  0.005917  3.928837  0.008  -0.082801  -0.179215  0.008675  3.90167  0.01
C  C37  1  0.96256183  0.75728694  0.39895548  1  0.00989  -0.008408  -0.163937  -0.004271  3.88293  -0.005  -0.164196  -0.005144  3.90024  -0.006  -0.076037  -0.164242  -0.004371  3.872509  -0.005
C  C38  1  0.23295357  0.28847095  0.57635806  1  0.273913  -0.00569  0.268303  -0.0026  4.065642  -0.004  0.27336  -0.003076  4.08965  -0.005  0.084622  0.264068  -0.001965  4.049389  -0.004
C  C39  1  0.78569853  0.71445247  0.42254788  1  0.289581  0.002551  0.253174  0.000175  4.013247  0.003  0.257208  0.001667  4.037651  0.005  0.082818  0.249686  -0.000455  3.99899  0.003
C  C40  1  0.30563360  0.46696912  0.59515555  1  0.017117  0.013668  -0.183041  0.007123  3.919877  0.009  -0.184708  0.005861  3.938698  0.007  -0.084337  -0.181372  0.008527  3.907227  0.01
C  C41  1  0.70738822  0.53731083  0.40262759  1  -0.069344  -0.007349  -0.176745  -0.004509  3.909146  -0.005  -0.179072  -0.006191  3.929512  -0.007  -0.078808  -0.175716  -0.00416  3.89714  -0.004
C  C42  1  0.20104733  0.59691554  0.63439826  1  -0.109595  -0.002136  -0.039216  -0.001138  4.057168  -0.002  -0.047747  -0.001922  4.082204  -0.003  -0.022941  -0.033673  -0.000437  4.04025  -0.001
C  C43  1  0.80575206  0.40155051  0.36241197  1  0.028875  0.002126  -0.035908  0.00111  4.018555  0.002  -0.044795  0.001899  4.043866  0.003  -0.018727  -0.030484  0.000726  4.002229  0.001
C  C44  1  0.02461882  0.54999092  0.65585539  1  0.013912  0.01527  -0.122188  0.008062  3.957278  0.009  -0.12178  0.006481  3.977612  0.008  -0.081532  -0.121716  0.009924  3.942691  0.011
C  C45  1  0.98300105  0.44459496  0.34036472  1  -0.054084  -0.008335  -0.110682  -0.004347  3.924819  -0.005  -0.110332  -0.005369  3.94603  -0.006  -0.075407  -0.110538  -0.004727  3.910236  -0.005
C  C46  1  0.77238407  0.31475212  0.66931671  1  1.584971  0.000541  0.603991  0.001202  4.192141  0.0  0.640483  0.000816  4.185676  0.0  0.209221  0.578235  0.001584  4.195618  0.0
C  C47  1  0.24834292  0.66295440  0.32399896  1  1.612368  0.002071  0.591828  0.001092  4.165919  0.001  0.630998  -0.00043  4.157501  -0.001  0.212008  0.564319  0.002197  4.172191  0.003
C  C48  1  0.28101250  0.78564677  0.65601649  1  1.54981  -0.002053  0.568997  -0.000689  4.212997  -0.003  0.604466  -0.000608  4.210848  -0.002  0.197336  0.543736  -0.000878  4.213078  -0.004
C  C49  1  0.71213182  0.21603354  0.34450689  1  1.538352  0.003444  0.563824  0.002022  4.148401  0.003  0.602146  0.001  4.146546  0.002  0.20404  0.536743  0.002978  4.149051  0.005
N  N50  1  0.46927770  0.16177238  0.85171303  1  -1.286541  0.056249  -0.262321  0.03075  3.743488  0.036  -0.290748  0.02435  3.7613  0.027  -0.347576  -0.242089  0.036624  3.732154  0.044
N  N51  1  0.52042337  0.85582131  0.15062088  1  -1.23569  0.004901  -0.212916  0.002498  3.729739  0.007  -0.241337  0.003862  3.744016  0.009  -0.347354  -0.19803  0.002134  3.722297  0.006
N  N52  1  0.19006624  0.40872360  0.03976074  1  -1.342918  0.000547  -0.363626  0.000256  3.616728  0.0  -0.386942  0.000176  3.62921  0.0  -0.385634  -0.34752  0.000348  3.608001  0.0
N  N53  1  0.78884877  0.59596446  0.95904390  1  -1.322617  -0.000137  -0.361549  -2.9e-05  3.593016  0.0  -0.384671  -3.8e-05  3.604532  0.0  -0.382126  -0.34559  -2.7e-05  3.585157  0.0
N  N54  1  0.34099003  0.15548222  0.54186621  1  -1.261055  0.058933  -0.623616  0.032207  3.462565  0.039  -0.655057  0.024558  3.459479  0.029  -0.609272  -0.599603  0.0395  3.464546  0.049
N  N55  1  0.67916304  0.84931595  0.46277648  1  -1.215638  0.009994  -0.587054  0.005385  3.466703  0.01  -0.62177  0.003513  3.46381  0.008  -0.611004  -0.566692  0.00455  3.470416  0.009
O  O56  1  0.98091901  0.33555248  0.87862664  1  -1.155663  0.000249  -0.446384  -4.9e-05  2.247484  0.0  -0.465106  -9.9e-05  2.244937  0.0  -0.262784  -0.433873  3e-05  2.249166  0.0
O  O57  1  0.99881676  0.66912315  0.12029045  1  -1.152021  -0.000569  -0.444808  -0.000185  2.235872  -0.001  -0.463578  -0.000131  2.233093  0.0  -0.262423  -0.432007  -0.000274  2.237789  -0.001
O  O58  1  0.71876224  0.14500977  0.64511316  1  -1.188714  0.077509  -0.583398  0.041633  2.363398  0.061  -0.625135  0.032738  2.351491  0.047  -0.326375  -0.551745  0.049824  2.370353  0.072
O  O59  1  0.32875691  0.82442961  0.35323289  1  -1.138554  0.014042  -0.538061  0.007443  2.384281  0.012  -0.58435  0.007797  2.371767  0.013  -0.305263  -0.508381  0.006358  2.3922  0.01
O  O60  1  0.67889756  0.42381362  0.71588308  1  -1.221846  0.017914  -0.583561  0.009212  2.177876  0.014  -0.610383  0.006596  2.169325  0.01  -0.313772  -0.563225  0.012304  2.18291  0.019
O  O61  1  0.31739111  0.54026041  0.26933503  1  -1.227589  -0.001294  -0.575797  -0.000973  2.237314  -0.001  -0.599972  -0.000637  2.226883  0.0  -0.314749  -0.558977  -0.001072  2.244583  -0.001
O  O62  1  0.19273027  0.90902392  0.68946801  1  -1.18943  0.044059  -0.56067  0.023131  2.169188  0.039  -0.593447  0.017384  2.163794  0.03  -0.304608  -0.535194  0.029192  2.171216  0.048
O  O63  1  0.78840747  0.07907204  0.30964617  1  -1.13594  0.014344  -0.523089  0.00785  2.238131  0.012  -0.569799  0.011392  2.234573  0.019  -0.297272  -0.490503  0.005759  2.238489  0.008
O  O64  1  0.44928825  0.82138351  0.64157969  1  -1.187316  0.08039  -0.579137  0.042963  2.308804  0.065  -0.620571  0.032732  2.298479  0.049  -0.32558  -0.546736  0.052803  2.31413  0.08
O  O65  1  0.54819528  0.18889864  0.36277403  1  -1.188097  -0.056524  -0.53417  -0.030849  2.254873  -0.051  -0.571265  -0.024757  2.245837  -0.041  -0.296195  -0.505515  -0.039119  2.258188  -0.064
