# generated using pymatgen
data_GdH14C24N4O5F2
_symmetry_space_group_name_H-M   'P 1'
_cell_length_a   7.66090380
_cell_length_b   11.13043796
_cell_length_c   13.90815382
_cell_angle_alpha   70.20831634
_cell_angle_beta   76.31569805
_cell_angle_gamma   88.02167548
_symmetry_Int_Tables_number   1
_chemical_formula_structural   GdH14C24N4O5F2
_chemical_formula_sum   'Gd2 H28 C48 N8 O10 F4'
_cell_volume   1082.85996408
_cell_formula_units_Z   2
loop_
 _symmetry_equiv_pos_site_id
 _symmetry_equiv_pos_as_xyz
  1  'x, y, z'
loop_
 _atom_site_type_symbol
 _atom_site_label
 _atom_site_symmetry_multiplicity
 _atom_site_fract_x
 _atom_site_fract_y
 _atom_site_fract_z
 _atom_site_occupancy
 _atom_site_hle17_ddec_charge
 _atom_site_hle17_ddec_spin_density
 _atom_site_hle17_ddec_sum_bond_order
 _atom_site_hle17_magmom
 _atom_site_hse06_10hf_ddec_charge
 _atom_site_hse06_10hf_ddec_spin_density
 _atom_site_hse06_10hf_ddec_sum_bond_order
 _atom_site_hse06_10hf_magmom
 _atom_site_hse06_ddec_charge
 _atom_site_hse06_ddec_spin_density
 _atom_site_hse06_ddec_sum_bond_order
 _atom_site_hse06_magmom
 _atom_site_pbe_cm5_charge
 _atom_site_pbe_ddec_charge
 _atom_site_pbe_ddec_spin_density
 _atom_site_pbe_ddec_sum_bond_order
 _atom_site_pbe_magmom
Gd  Gd0  1  0.31293847  0.40182140  0.50101321  1  2.054604  -0.003267  1.928388  -0.002  1.925079  -0.002519  2.359325  -0.001  1.986293  -0.002576  2.286735  -0.001  1.417069  1.878398  -0.001721  2.418028  0.0
Gd  Gd1  1  0.68702257  0.59816947  0.49899656  1  2.054719  0.00327  1.928316  0.002  1.92504  0.002518  2.359559  0.001  1.98629  0.002571  2.28691  0.001  1.417039  1.878315  0.001719  2.418332  0.0
H  H2  1  0.44029384  0.60482784  0.83174485  1  0.116354  -4.9e-05  0.94922  0.0  0.124277  -0.00018  1.014094  0.0  0.12794  -7.8e-05  1.012313  0.0  0.111122  0.121778  -0.000297  1.015336  0.0
H  H3  1  0.55969364  0.39517729  0.16824027  1  0.116348  4.9e-05  0.949195  0.0  0.124214  0.00018  1.014147  0.0  0.127876  7.8e-05  1.012368  0.0  0.111161  0.121715  0.000297  1.015389  0.0
H  H4  1  0.33007480  0.55399632  0.02703209  1  0.068967  -7e-06  0.948732  0.0  0.075408  -2e-05  1.015018  0.0  0.077581  -3e-06  1.013773  0.0  0.107186  0.073759  -4.6e-05  1.016112  0.0
H  H5  1  0.66993145  0.44600786  0.97295585  1  0.069091  7e-06  0.948595  0.0  0.075485  2e-05  1.014923  0.0  0.077663  3e-06  1.01368  0.0  0.107176  0.073836  4.5e-05  1.016021  0.0
H  H6  1  0.08274044  0.29748339  0.85900798  1  0.137538  -2.6e-05  0.964945  0.0  0.142565  -7.2e-05  1.031485  0.0  0.145822  -5.5e-05  1.031468  0.0  0.110811  0.140351  -8.6e-05  1.031515  0.0
H  H7  1  0.91726686  0.70251604  0.14098902  1  0.137585  2.6e-05  0.964814  0.0  0.142586  7.2e-05  1.031389  0.0  0.145846  5.5e-05  1.031377  0.0  0.110799  0.140369  8.6e-05  1.031417  0.0
H  H8  1  0.38524167  0.61997818  0.18668019  1  0.140693  1.8e-05  0.962318  0.0  0.145147  7.4e-05  1.03033  0.0  0.149766  4.3e-05  1.0281  0.0  0.113489  0.141552  0.000107  1.032573  0.0
H  H9  1  0.61476708  0.38002222  0.81332139  1  0.140693  -1.8e-05  0.962521  0.0  0.145172  -7.4e-05  1.030492  0.0  0.149786  -4.3e-05  1.028269  0.0  0.113497  0.141574  -0.000107  1.032737  0.0
H  H10  1  0.09608405  0.02916679  0.07297519  1  0.081622  5e-06  0.939293  0.0  0.085653  -0.0  1.003871  0.0  0.089269  -0.0  1.000735  0.0  0.109411  0.082933  -0.0  1.006298  0.0
H  H11  1  0.90391785  0.97083171  0.92702782  1  0.081543  -3e-06  0.939309  0.0  0.085586  1e-06  1.003891  0.0  0.089202  -0.0  1.000756  0.0  0.10938  0.082865  0.0  1.006316  0.0
H  H12  1  0.97593801  0.87358052  0.25599565  1  0.117441  2.5e-05  0.969942  0.0  0.122545  5.2e-05  1.037305  0.0  0.125937  5.1e-05  1.036551  0.0  0.111529  0.120087  5.1e-05  1.038097  0.0
H  H13  1  0.02407183  0.12641608  0.74400970  1  0.117471  -2.2e-05  0.969897  0.0  0.122548  -5.2e-05  1.03729  0.0  0.12595  -5.1e-05  1.036522  0.0  0.111571  0.120092  -5.1e-05  1.038079  0.0
H  H14  1  0.20753776  0.35983661  0.28862070  1  0.085705  5.1e-05  0.931772  0.0  0.092823  7.9e-05  0.995783  0.0  0.096254  7.7e-05  0.992029  0.0  0.122191  0.090248  6.4e-05  0.998589  0.0
H  H15  1  0.79247750  0.64016093  0.71138224  1  0.085712  -5.1e-05  0.931683  0.0  0.092785  -7.9e-05  0.995746  0.0  0.096216  -7.7e-05  0.991992  0.0  0.122176  0.090208  -6.4e-05  0.998549  0.0
H  H16  1  0.14312044  0.19639740  0.21372268  1  0.10793  8e-06  0.969262  0.0  0.110152  1e-06  1.039911  0.0  0.114448  1e-06  1.037225  0.0  0.100422  0.106885  -6e-06  1.042254  0.0
H  H17  1  0.85687110  0.80360683  0.78627869  1  0.107925  -7e-06  0.969279  0.0  0.11021  -1e-06  1.039868  0.0  0.114461  -1e-06  1.037226  0.0  0.100437  0.10694  6e-06  1.042215  0.0
H  H18  1  0.15503660  0.96264097  0.31894582  1  0.091769  -1e-05  0.969458  0.0  0.103774  -8e-06  1.031821  0.0  0.105547  -4e-06  1.031626  0.0  0.104011  0.102465  -1.2e-05  1.032024  0.0
H  H19  1  0.84494542  0.03736137  0.68105876  1  0.091748  9e-06  0.969448  0.0  0.103767  8e-06  1.031791  0.0  0.10554  4e-06  1.031597  0.0  0.104028  0.102462  1.2e-05  1.031989  0.0
H  H20  1  0.20823233  0.79581364  0.48181666  1  0.124911  0.001185  0.938162  0.0  0.134873  0.000814  0.99799  0.0  0.137678  0.000907  0.996736  0.0  0.111827  0.133324  0.000707  0.998351  0.0
H  H21  1  0.79175823  0.20417718  0.51818275  1  0.124951  -0.001185  0.938318  0.0  0.134956  -0.000813  0.998079  0.0  0.137762  -0.000907  0.996825  0.0  0.111868  0.133414  -0.000707  0.998443  0.0
H  H22  1  0.28065423  0.74299929  0.65392328  1  0.109635  8.9e-05  0.954516  0.0  0.121752  0.000126  1.011185  0.0  0.12475  9.2e-05  1.010422  0.0  0.109088  0.119508  0.000118  1.011779  0.0
H  H23  1  0.71934315  0.25699251  0.34608143  1  0.109617  -9e-05  0.954592  0.0  0.121738  -0.000125  1.011257  0.0  0.124732  -9.2e-05  1.010496  0.0  0.109109  0.119498  -0.000118  1.011855  0.0
H  H24  1  0.35244684  0.81444213  0.79378836  1  0.097089  3.1e-05  0.943342  0.0  0.106287  1.5e-05  1.008044  0.0  0.109483  1.4e-05  1.005315  0.0  0.10485  0.103788  1.2e-05  1.010345  0.0
H  H25  1  0.64753872  0.18555350  0.20621615  1  0.097076  -3.1e-05  0.943248  0.0  0.106296  -1.5e-05  1.007921  0.0  0.10949  -1.4e-05  1.005195  0.0  0.104878  0.103799  -1.2e-05  1.010224  0.0
H  H26  1  0.42660575  0.99501481  0.84904382  1  0.109226  -4.1e-05  0.986184  0.0  0.108922  -3.6e-05  1.060403  0.0  0.113381  -3.9e-05  1.057934  0.0  0.099163  0.105489  -3e-05  1.062709  0.0
H  H27  1  0.57339045  0.00497893  0.15096483  1  0.109246  4.1e-05  0.986296  0.0  0.108946  3.6e-05  1.060484  0.0  0.113399  3.9e-05  1.05802  0.0  0.099214  0.105513  3e-05  1.062789  0.0
H  H28  1  0.42261105  0.21969301  0.72685380  1  0.074796  0.001291  0.948578  0.0  0.083766  0.001738  1.011602  0.0  0.085612  0.001716  1.010679  0.0  0.117103  0.082442  0.001732  1.012261  0.0
H  H29  1  0.57740524  0.78030067  0.27314214  1  0.074836  -0.001291  0.94847  0.0  0.083824  -0.001737  1.011477  0.0  0.085669  -0.001715  1.010555  0.0  0.117136  0.082498  -0.001731  1.012133  0.0
C  C30  1  0.33379255  0.47910425  0.71348257  1  0.681101  -0.000344  3.872663  0.001  0.634382  -0.001392  4.157649  0.001  0.670454  -0.00104  4.150895  0.0  0.237241  0.609159  -0.002278  4.159433  0.001
C  C31  1  0.66622086  0.52088841  0.28649535  1  0.681058  0.000343  3.872168  -0.001  0.63457  0.001394  4.156814  -0.001  0.670654  0.001039  4.150052  0.0  0.237383  0.609339  0.002278  4.158611  -0.001
C  C32  1  0.26847014  0.45555913  0.83027825  1  0.015048  -0.003324  3.714528  -0.003  0.03345  -0.006024  3.94987  -0.004  0.031717  -0.003351  3.969024  -0.003  0.006395  0.035006  -0.008906  3.93682  -0.006
C  C33  1  0.73152013  0.54444606  0.16972374  1  0.01491  0.003309  3.714734  0.003  0.033388  0.006001  3.949809  0.004  0.03165  0.003337  3.96896  0.003  0.006368  0.034942  0.008874  3.93677  0.006
C  C34  1  0.33872088  0.52833125  0.87857102  1  -0.146495  -0.000148  3.715478  0.0  -0.18034  -0.000582  3.98128  0.0  -0.184856  -0.00045  4.000121  0.0  -0.088188  -0.177631  -0.000871  3.96872  0.0
C  C35  1  0.66126520  0.47167292  0.12141671  1  -0.146201  0.000149  3.714981  0.0  -0.180061  0.000583  3.980778  0.0  -0.184566  0.000449  3.999605  0.0  -0.088184  -0.177356  0.000873  3.968228  0.0
C  C36  1  0.27886733  0.49915486  0.98684730  1  0.140057  4.6e-05  3.735135  0.0  0.113373  5.7e-05  4.008329  0.0  0.119073  0.00014  4.025346  0.0  0.043352  0.10957  6e-06  3.996954  0.0
C  C37  1  0.72114425  0.50084837  0.01314379  1  0.139803  -4.5e-05  3.735384  0.0  0.113172  -5.8e-05  4.008514  0.0  0.118863  -0.00014  4.025538  0.0  0.043353  0.109369  -7e-06  3.997143  0.0
C  C38  1  0.09477217  0.33724178  0.99998587  1  0.46085  -5e-06  3.821054  0.0  0.431304  -3.4e-05  4.118965  0.0  0.448731  0.000102  4.123918  0.0  0.222984  0.419067  -0.000152  4.116066  0.0
C  C39  1  0.90524041  0.66275576  0.00001742  1  0.461221  2e-06  3.820888  0.0  0.431609  3e-05  4.11888  0.0  0.449038  -0.000101  4.123828  0.0  0.223112  0.419371  0.00015  4.115981  0.0
C  C40  1  0.14098941  0.35657790  0.89281552  1  -0.223958  -0.000211  3.682989  0.0  -0.254894  -0.000592  3.930719  0.0  -0.262374  -0.000515  3.949298  0.0  -0.085844  -0.249953  -0.000826  3.918417  0.0
C  C41  1  0.85900135  0.64341579  0.10718236  1  -0.224095  0.000213  3.683081  0.0  -0.255025  0.000593  3.930834  0.0  -0.262508  0.000514  3.949413  0.0  -0.085868  -0.250084  0.000827  3.91853  0.0
C  C42  1  0.11040992  0.63991227  0.34531170  1  0.713698  -0.000272  3.86216  0.0  0.665739  -0.001504  4.155473  0.0  0.701336  -0.001084  4.144112  0.0  0.238896  0.641696  -0.001944  4.161569  0.0
C  C43  1  0.88957944  0.36009867  0.65469244  1  0.713854  0.000274  3.861522  0.0  0.665988  0.001504  4.154696  0.0  0.701609  0.00109  4.143281  0.0  0.239033  0.641945  0.001947  4.160799  0.0
C  C44  1  0.17494099  0.73651522  0.23562215  1  0.018546  -0.000237  3.699712  0.0  0.037044  -0.000292  3.931623  0.0  0.035898  -0.000281  3.949961  0.0  0.009321  0.037947  -0.000339  3.919124  0.0
C  C45  1  0.82507680  0.26348040  0.76437739  1  0.018584  0.000242  3.699673  0.0  0.037036  0.000296  3.931612  0.0  0.035883  0.000279  3.949945  0.0  0.009359  0.037943  0.00034  3.919116  0.0
C  C46  1  0.31940026  0.70997532  0.16443679  1  -0.243733  0.000238  3.702515  0.0  -0.272769  0.000211  3.950326  0.0  -0.280583  0.000237  3.968177  0.0  -0.089127  -0.268042  0.00018  3.939745  0.0
C  C47  1  0.68061834  0.29003176  0.83555879  1  -0.243808  -0.000233  3.702607  0.0  -0.272873  -0.000216  3.950399  0.0  -0.280685  -0.000235  3.968248  0.0  -0.089176  -0.268146  -0.00018  3.939817  0.0
C  C48  1  0.37135571  0.80330333  0.06542659  1  0.461563  -9e-05  3.815147  0.0  0.432345  -2e-05  4.111189  0.0  0.450185  -3.9e-05  4.115559  0.0  0.225245  0.41902  -1.5e-05  4.110069  0.0
C  C49  1  0.62864517  0.19669994  0.93457381  1  0.461605  8.3e-05  3.815274  0.0  0.432443  2.2e-05  4.111234  0.0  0.450284  3.8e-05  4.115603  0.0  0.225312  0.419118  1.5e-05  4.110117  0.0
C  C50  1  0.15747112  0.93789665  0.10117958  1  0.138075  -0.000131  3.714232  0.0  0.114041  -5.4e-05  3.980857  0.0  0.119905  -8.5e-05  3.995474  0.0  0.048123  0.110096  -4.1e-05  3.971184  0.0
C  C51  1  0.84252408  0.06210187  0.89882861  1  0.138065  0.000125  3.714217  0.0  0.114006  5.1e-05  3.980872  0.0  0.119866  8.9e-05  3.995495  0.0  0.04805  0.110063  4e-05  3.971194  0.0
C  C52  1  0.09165654  0.85253804  0.20274969  1  -0.145259  0.000197  3.717701  0.0  -0.170656  0.000166  3.970478  0.0  -0.175058  0.000193  3.989031  0.0  -0.08496  -0.167947  0.000144  3.958116  0.0
C  C53  1  0.90835350  0.14746142  0.79725413  1  -0.145272  -0.000209  3.717536  0.0  -0.170638  -0.000165  3.970341  0.0  -0.175045  -0.000196  3.988888  0.0  -0.084963  -0.167931  -0.000144  3.957982  0.0
C  C54  1  0.21230226  0.25803500  0.33175282  1  0.156463  3.9e-05  3.69286  0.0  0.127027  -9e-05  3.952623  0.0  0.135541  -1.7e-05  3.967669  0.0  0.064531  0.12131  -8e-05  3.942376  0.0
C  C55  1  0.78770523  0.74196638  0.66825081  1  0.156397  -4e-05  3.692768  0.0  0.127007  9e-05  3.95252  0.0  0.135521  1.7e-05  3.967555  0.0  0.064527  0.121291  8e-05  3.942265  0.0
C  C56  1  0.17588181  0.16532546  0.29015988  1  -0.122454  -0.000186  3.742355  0.0  -0.135007  -9.9e-05  3.998408  0.0  -0.141975  -0.000125  4.0189  0.0  -0.086335  -0.130606  -0.000152  3.984982  0.0
C  C57  1  0.82411646  0.83467878  0.70984276  1  -0.122553  0.000181  3.74235  0.0  -0.135173  0.0001  3.998413  0.0  -0.142097  0.000126  4.018925  0.0  -0.086421  -0.130773  0.000152  3.984988  0.0
C  C58  1  0.18156878  0.03773571  0.34811131  1  -0.04504  9.6e-05  3.702695  0.0  -0.070105  -6e-06  3.949388  0.0  -0.068213  4.8e-05  3.969467  0.0  -0.066052  -0.071072  2.3e-05  3.935692  0.0
C  C59  1  0.81842261  0.96226660  0.65188845  1  -0.044917  -8.8e-05  3.702642  0.0  -0.069982  5e-06  3.94936  0.0  -0.068089  -5e-05  3.969424  0.0  -0.066009  -0.070953  -2.4e-05  3.935673  0.0
C  C60  1  0.22234165  0.00264113  0.44744469  1  0.023602  -0.00022  3.786637  0.0  0.040019  -5.9e-05  4.017668  0.0  0.037622  -9.8e-05  4.042102  0.0  0.000177  0.041413  -8.7e-05  4.001264  0.0
C  C61  1  0.77765231  0.99735928  0.55255812  1  0.023487  0.000217  3.786769  0.0  0.039932  6e-05  4.017827  0.0  0.037534  0.0001  4.042262  0.0  0.000154  0.041324  8.7e-05  4.001431  0.0
C  C62  1  0.23090234  0.87202098  0.51101048  1  -0.08128  0.001271  3.689704  0.001  -0.106223  0.00104  3.947729  0.001  -0.108897  0.001131  3.969936  0.001  -0.076952  -0.104221  0.001201  3.931931  0.001
C  C63  1  0.76910197  0.12797369  0.48899253  1  -0.081398  -0.001274  3.689807  -0.001  -0.106379  -0.00104  3.947819  -0.001  -0.10905  -0.001132  3.970016  -0.001  -0.077018  -0.104381  -0.001201  3.932038  -0.001
C  C64  1  0.27077136  0.84239202  0.60673756  1  -0.090759  -0.000468  3.718833  0.0  -0.114399  -9.9e-05  3.976221  0.0  -0.117997  -0.000177  3.998385  0.0  -0.080191  -0.111609  -0.000145  3.960803  0.0
C  C65  1  0.72922374  0.15760552  0.39326516  1  -0.090576  0.000473  3.718865  0.0  -0.114231  9.8e-05  3.976264  0.0  -0.117828  0.000177  3.998427  0.0  -0.080111  -0.111448  0.000145  3.960859  0.0
C  C66  1  0.30718802  0.94034909  0.64544003  1  0.021571  0.000582  3.791558  0.0  0.03674  0.000463  4.025496  0.0  0.034696  0.000465  4.049659  0.0  -0.00201  0.037948  0.000454  4.009333  0.0
C  C67  1  0.69281146  0.05965323  0.35456225  1  0.021448  -0.000584  3.791815  0.0  0.036609  -0.000462  4.025761  0.0  0.034565  -0.000465  4.049921  0.0  -0.002106  0.037825  -0.000454  4.009593  0.0
C  C68  1  0.35138012  0.91355565  0.74331530  1  -0.035567  -0.000843  3.682257  -0.001  -0.06279  -0.000445  3.933943  0.0  -0.059671  -0.000564  3.950953  0.0  -0.064862  -0.064882  -0.000368  3.922831  0.0
C  C69  1  0.64861500  0.08644191  0.25669101  1  -0.035511  0.000846  3.68207  0.001  -0.062724  0.000443  3.933726  0.0  -0.059606  0.000565  3.950734  0.0  -0.064856  -0.064824  0.000367  3.922622  0.0
C  C70  1  0.39387973  0.01285387  0.77353305  1  -0.125484  0.000507  3.738659  0.0  -0.136726  0.000246  3.99348  0.0  -0.143961  0.000352  4.013902  0.0  -0.08953  -0.132146  0.000152  3.980117  0.0
C  C71  1  0.60611787  0.98714081  0.22647229  1  -0.125623  -0.000511  3.738881  0.0  -0.136883  -0.000244  3.993728  0.0  -0.144114  -0.000354  4.014148  0.0  -0.089611  -0.132305  -0.000152  3.980368  0.0
C  C72  1  0.38941521  0.13883319  0.70593996  1  0.151992  0.000512  3.710744  0.0  0.124326  0.001649  3.966961  0.001  0.131663  0.001387  3.984357  0.0  0.058903  0.119839  0.001855  3.954241  0.001
C  C73  1  0.61059463  0.86116432  0.29405580  1  0.152103  -0.000506  3.710922  0.0  0.12442  -0.001648  3.967133  -0.001  0.131758  -0.001388  3.984528  0.0  0.058908  0.119936  -0.001854  3.954403  -0.001
C  C74  1  0.30232821  0.07130812  0.58346294  1  0.132861  -0.000642  3.758648  0.0  0.129502  -0.000399  3.998655  0.0  0.133725  -0.000471  4.020105  0.0  0.122237  0.126576  -0.00038  3.983978  0.0
C  C75  1  0.69768107  0.92869993  0.41653576  1  0.132946  0.000644  3.758641  0.0  0.129585  0.000399  3.998692  0.0  0.133812  0.000471  4.020139  0.0  0.122262  0.126656  0.00038  3.984014  0.0
C  C76  1  0.25715723  0.10309308  0.48306197  1  0.137819  0.000286  3.747323  0.0  0.133435  0.000118  3.986789  0.0  0.13746  0.000176  4.008427  0.0  0.122763  0.130724  0.000147  3.971988  0.0
C  C77  1  0.74284669  0.89691499  0.51693959  1  0.137945  -0.000284  3.747384  0.0  0.133459  -0.000119  3.986975  0.0  0.137483  -0.000177  4.008616  0.0  0.122706  0.13075  -0.000147  3.972171  0.0
N  N78  1  0.25242461  0.22858707  0.42495955  1  -0.401396  -0.000181  3.205647  0.0  -0.354509  -0.000498  3.472179  0.0  -0.370314  -0.000309  3.489423  0.0  -0.365571  -0.343289  -0.000971  3.46051  -0.001
N  N79  1  0.74758349  0.77142291  0.57504237  1  -0.40148  0.00018  3.205877  0.0  -0.354512  0.0005  3.472384  0.0  -0.370324  0.00031  3.489632  0.0  -0.365478  -0.34328  0.000973  3.460689  0.001
N  N80  1  0.34206472  0.16801838  0.61479125  1  -0.415858  0.000967  3.261009  0.001  -0.368497  0.00096  3.52858  0.001  -0.385267  0.000982  3.547076  0.001  -0.371179  -0.355887  0.000952  3.515127  0.001
N  N81  1  0.65794246  0.83199826  0.38520107  1  -0.416049  -0.000972  3.261287  -0.001  -0.368658  -0.000961  3.52887  -0.001  -0.385429  -0.000981  3.547351  -0.001  -0.371166  -0.356044  -0.000952  3.515412  -0.001
N  N82  1  0.29820715  0.91369000  0.03252893  1  -0.374398  0.000166  3.090392  0.0  -0.348748  0.000156  3.363188  0.0  -0.36048  0.000159  3.373372  0.0  -0.316795  -0.341256  0.00013  3.357408  0.0
N  N83  1  0.70178736  0.08631807  0.96747315  1  -0.374278  -0.000159  3.090741  0.0  -0.348632  -0.000155  3.363503  0.0  -0.360363  -0.00016  3.373688  0.0  -0.316704  -0.341138  -0.00013  3.357722  0.0
N  N84  1  0.15730438  0.40301708  0.04825729  1  -0.383882  -0.000133  3.071395  0.0  -0.357452  -0.000378  3.341561  0.0  -0.370431  -0.000347  3.354315  0.0  -0.321527  -0.348501  -0.000497  3.333053  0.0
N  N85  1  0.84269818  0.59699097  0.95174086  1  -0.383914  0.000134  3.071513  0.0  -0.357489  0.000381  3.341713  0.0  -0.370464  0.000346  3.354462  0.0  -0.321487  -0.34854  0.0005  3.333206  0.0
O  O86  1  0.25919512  0.41107907  0.67625803  1  -0.675907  -0.004436  2.051587  -0.004  -0.618833  -0.007335  2.292945  -0.007  -0.651609  -0.005244  2.285859  -0.005  -0.353225  -0.593213  -0.009672  2.296378  -0.009
O  O87  1  0.74082062  0.58888694  0.32375850  1  -0.675793  0.004452  2.051032  0.004  -0.618804  0.007353  2.292276  0.007  -0.651593  0.005266  2.285182  0.005  -0.353289  -0.593175  0.009689  2.295717  0.009
O  O88  1  0.46094372  0.56314426  0.66338446  1  -0.662179  -0.036606  2.048832  -0.031  -0.60375  -0.058865  2.29677  -0.05  -0.641224  -0.041553  2.291846  -0.035  -0.334652  -0.572007  -0.076393  2.297119  -0.065
O  O89  1  0.53898971  0.43685704  0.33660238  1  -0.662459  0.036565  2.048209  0.031  -0.604085  0.058807  2.295889  0.05  -0.641538  0.041504  2.290924  0.035  -0.334777  -0.572342  0.076331  2.296243  0.065
O  O90  1  0.18403203  0.53321111  0.36372974  1  -0.699726  -0.008329  2.035929  -0.006  -0.650391  -0.013335  2.284888  -0.01  -0.678273  -0.0109  2.273227  -0.008  -0.3755  -0.629891  -0.01585  2.292516  -0.012
O  O91  1  0.81598231  0.46679217  0.63627247  1  -0.699614  0.008325  2.036132  0.006  -0.65029  0.013329  2.285068  0.01  -0.678174  0.010893  2.273382  0.008  -0.375472  -0.629792  0.015836  2.292704  0.012
O  O92  1  0.98936297  0.67305854  0.40947998  1  -0.699938  0.000367  2.041879  0.0  -0.660501  -0.000404  2.303079  -0.001  -0.686842  0.000368  2.290964  0.0  -0.376072  -0.640968  -0.001556  2.310788  -0.002
O  O93  1  0.01064183  0.32694375  0.59051369  1  -0.700306  -0.000368  2.041278  0.0  -0.66094  0.000401  2.302513  0.001  -0.687288  -0.000372  2.29038  0.0  -0.376313  -0.641408  0.001551  2.310229  0.002
O  O94  1  0.60604913  0.39168841  0.51900082  1  -0.716359  0.969839  0.979891  0.775  -0.705023  0.903693  1.204474  0.709  -0.703695  0.940305  1.17469  0.737  -0.529101  -0.714811  0.859269  1.230141  0.674
O  O95  1  0.39398125  0.60831390  0.48099810  1  -0.716431  -0.969798  0.980145  -0.775  -0.7051  -0.903624  1.20475  -0.709  -0.703753  -0.940253  1.174955  -0.737  -0.5292  -0.714896  -0.85918  1.230417  -0.674
F  F96  1  0.97208540  0.23941882  0.06374928  1  -0.243494  -2.8e-05  1.182751  0.0  -0.184202  -7.6e-05  1.338819  0.0  -0.19507  -2.1e-05  1.328845  0.0  -0.093823  -0.176097  -0.000151  1.345574  0.0
F  F97  1  0.02792241  0.76058732  0.93625014  1  -0.243599  2.8e-05  1.182611  0.0  -0.184321  7.6e-05  1.338728  0.0  -0.195187  2e-05  1.328747  0.0  -0.09389  -0.176219  0.000151  1.345483  0.0
F  F98  1  0.51129504  0.78010880  0.99302660  1  -0.238228  -4e-06  1.166107  0.0  -0.179739  -2e-06  1.319245  0.0  -0.190824  -1e-06  1.310471  0.0  -0.097907  -0.16813  -3e-06  1.320471  0.0
F  F99  1  0.48870315  0.21989447  0.00697343  1  -0.238243  4e-06  1.166099  0.0  -0.17977  1e-06  1.319216  0.0  -0.190852  1e-06  1.310441  0.0  -0.097939  -0.168158  3e-06  1.320445  0.0
