# generated using pymatgen
data_CaCd2H18(C8O5)3
_symmetry_space_group_name_H-M   'P 1'
_cell_length_a   13.11170149
_cell_length_b   14.18498799
_cell_length_c   14.78936376
_cell_angle_alpha   86.96640190
_cell_angle_beta   63.66457010
_cell_angle_gamma   62.48757312
_symmetry_Int_Tables_number   1
_chemical_formula_structural   CaCd2H18(C8O5)3
_chemical_formula_sum   'Ca2 Cd4 H36 C48 O30'
_cell_volume   2146.04066098
_cell_formula_units_Z   2
loop_
 _symmetry_equiv_pos_site_id
 _symmetry_equiv_pos_as_xyz
  1  'x, y, z'
loop_
 _atom_site_type_symbol
 _atom_site_label
 _atom_site_symmetry_multiplicity
 _atom_site_fract_x
 _atom_site_fract_y
 _atom_site_fract_z
 _atom_site_occupancy
 _atom_site_hle17_bader_spin_density
 _atom_site_hle17_ddec_charge
 _atom_site_hle17_ddec_spin_density
 _atom_site_hle17_ddec_sum_bond_order
 _atom_site_hle17_magmom
 _atom_site_hse06_10hf_bader_spin_density
 _atom_site_hse06_10hf_ddec_charge
 _atom_site_hse06_10hf_ddec_spin_density
 _atom_site_hse06_10hf_ddec_sum_bond_order
 _atom_site_hse06_10hf_magmom
 _atom_site_hse06_bader_spin_density
 _atom_site_hse06_ddec_charge
 _atom_site_hse06_ddec_spin_density
 _atom_site_hse06_ddec_sum_bond_order
 _atom_site_hse06_magmom
 _atom_site_pbe_bader_spin_density
 _atom_site_pbe_cm5_charge
 _atom_site_pbe_ddec_charge
 _atom_site_pbe_ddec_spin_density
 _atom_site_pbe_ddec_sum_bond_order
 _atom_site_pbe_magmom
Ca  Ca0  1  0.53753711  0.75007841  0.74999538  1  0  1.621136  0  1.088148  0  0  1.495511  0  1.444654  0  0  1.537089  0  1.397425  0  0  0.867828  1.464145  0  1.478312  0
Ca  Ca1  1  0.46246302  0.24992170  0.25000395  1  0  1.621129  0  1.08817  0  0  1.495483  0  1.444717  0  0  1.537067  0  1.397482  0  0  0.867806  1.464114  0  1.478378  0
Cd  Cd2  1  0.40956443  0.96214789  0.61630612  1  0  1.239664  0  1.593991  0  0  1.063024  0  2.034008  0  0  1.125662  0  1.972135  0  0  0.792639  1.017829  0  2.076673  0
Cd  Cd3  1  0.48800246  0.53779697  0.88367922  1  0  1.239771  0  1.592037  0  0  1.062849  0  2.031908  0  0  1.125583  0  1.970009  0  0  0.792422  1.017696  0  2.07453  0
Cd  Cd4  1  0.59043608  0.03785302  0.38369301  1  0  1.239689  0  1.593964  0  0  1.063046  0  2.033976  0  0  1.125686  0  1.972102  0  0  0.792647  1.017851  0  2.07664  0
Cd  Cd5  1  0.51199853  0.46220314  0.11631976  1  0  1.239758  0  1.592072  0  0  1.062857  0  2.031914  0  0  1.125588  0  1.970018  0  0  0.792418  1.017702  0  2.074538  0
H  H6  1  0.81336385  0.58712352  0.50846091  1  0  0.109329  0  0.947012  0  0  0.116723  0  1.010662  0  0  0.120796  0  1.00765  0  0  0.112316  0.113738  0  1.012951  0
H  H7  1  0.40955605  0.91279284  0.99145522  1  0  0.109109  0  0.947161  0  0  0.116184  0  1.011268  0  0  0.120353  0  1.008136  0  0  0.112266  0.113157  0  1.01361  0
H  H8  1  0.18663496  0.41287739  0.49153957  1  0  0.109275  0  0.947065  0  0  0.116687  0  1.010692  0  0  0.120761  0  1.007683  0  0  0.112301  0.113709  0  1.012975  0
H  H9  1  0.59044108  0.08720806  0.00854729  1  0  0.109127  0  0.947145  0  0  0.116189  0  1.011278  0  0  0.120359  0  1.008145  0  0  0.112257  0.11316  0  1.013622  0
H  H10  1  0.05416227  0.46554976  0.40322007  1  0  0.089361  0  0.976049  0  0  0.098284  0  1.041189  0  0  0.101442  0  1.039628  0  0  0.101956  0.095951  0  1.042493  0
H  H11  1  0.42355744  0.03429256  0.09676733  1  0  0.089969  0  0.975741  0  0  0.098709  0  1.041197  0  0  0.101886  0  1.039606  0  0  0.101916  0.096425  0  1.042446  0
H  H12  1  0.94583580  0.53444953  0.59678079  1  0  0.089409  0  0.975985  0  0  0.098329  0  1.041123  0  0  0.101488  0  1.039561  0  0  0.101975  0.095996  0  1.042427  0
H  H13  1  0.57644102  0.96570754  0.90323470  1  0  0.089934  0  0.975785  0  0  0.098674  0  1.041246  0  0  0.101849  0  1.039656  0  0  0.101899  0.09639  0  1.042493  0
H  H14  1  0.08248307  0.71279319  0.22950159  1  0  0.093955  0  0.948431  0  0  0.103746  0  1.008814  0  0  0.10757  0  1.006219  0  0  0.103175  0.100933  0  1.010834  0
H  H15  1  0.52453530  0.78711619  0.27067376  1  0  0.094529  0  0.949641  0  0  0.10418  0  1.009891  0  0  0.108043  0  1.007246  0  0  0.103403  0.101374  0  1.011908  0
H  H16  1  0.91751718  0.28720530  0.77049844  1  0  0.093974  0  0.948408  0  0  0.103758  0  1.008798  0  0  0.107582  0  1.006203  0  0  0.103175  0.100947  0  1.010816  0
H  H17  1  0.47546967  0.21288149  0.72932376  1  0  0.094561  0  0.949638  0  0  0.104203  0  1.009898  0  0  0.108052  0  1.007271  0  0  0.103426  0.101396  0  1.011915  0
H  H18  1  0.84396252  0.83344927  0.33183133  1  0  0.115197  0  0.984143  0  0  0.121819  0  1.050583  0  0  0.125887  0  1.04701  0  0  0.104141  0.118835  0  1.053292  0
H  H19  1  0.50898835  0.66651436  0.16828240  1  0  0.115865  0  0.983536  0  0  0.122099  0  1.050393  0  0  0.126231  0  1.046777  0  0  0.104299  0.119119  0  1.053065  0
H  H20  1  0.15603904  0.16654841  0.66816620  1  0  0.115215  0  0.984152  0  0  0.12182  0  1.050609  0  0  0.1259  0  1.047022  0  0  0.104151  0.118836  0  1.053317  0
H  H21  1  0.49101359  0.33348413  0.83171629  1  0  0.115847  0  0.983522  0  0  0.122067  0  1.050391  0  0  0.1262  0  1.046775  0  0  0.104272  0.119086  0  1.053065  0
H  H22  1  0.21206849  0.82939091  0.94156816  1  0  0.1026  0  0.95932  0  0  0.108893  0  1.027159  0  0  0.112599  0  1.024592  0  0  0.107847  0.106224  0  1.029087  0
H  H23  1  0.48272711  0.67077858  0.55844991  1  0  0.102302  0  0.959568  0  0  0.108902  0  1.027242  0  0  0.11263  0  1.024648  0  0  0.107824  0.106242  0  1.029152  0
H  H24  1  0.78793163  0.17060920  0.05842981  1  0  0.102614  0  0.959308  0  0  0.108868  0  1.027173  0  0  0.112573  0  1.024609  0  0  0.107832  0.106198  0  1.029103  0
H  H25  1  0.51727473  0.32922153  0.44154874  1  0  0.102235  0  0.959613  0  0  0.108854  0  1.027269  0  0  0.112583  0  1.024674  0  0  0.107793  0.106195  0  1.029179  0
H  H26  1  0.98192352  0.13604459  0.88663073  1  0  0.095456  0  0.95543  0  0  0.104781  0  1.01734  0  0  0.108433  0  1.014743  0  0  0.101827  0.102144  0  1.019269  0
H  H27  1  0.50503236  0.36382438  0.61326303  1  0  0.095977  0  0.954406  0  0  0.105399  0  1.016197  0  0  0.109021  0  1.013648  0  0  0.101613  0.102796  0  1.018082  0
H  H28  1  0.01807708  0.86395471  0.11336710  1  0  0.095427  0  0.955389  0  0  0.104735  0  1.017327  0  0  0.108387  0  1.014732  0  0  0.101795  0.102097  0  1.019256  0
H  H29  1  0.49496996  0.63617491  0.38673614  1  0  0.096022  0  0.954374  0  0  0.10545  0  1.016156  0  0  0.10907  0  1.01361  0  0  0.101631  0.102847  0  1.018041  0
H  H30  1  0.37250489  0.83889022  0.49163154  1  0  0.417924  0  0.834694  0  0  0.403819  0  0.885845  0  0  0.411297  0  0.87541  0  0  0.319935  0.398456  0  0.891733  0
H  H31  1  0.20301115  0.66098304  0.00846847  1  0  0.418216  0  0.833892  0  0  0.403977  0  0.885364  0  0  0.411485  0  0.874995  0  0  0.320176  0.398602  0  0.891266  0
H  H32  1  0.62749345  0.16111150  0.50836977  1  0  0.417947  0  0.834593  0  0  0.403844  0  0.885748  0  0  0.411323  0  0.875356  0  0  0.319963  0.398482  0  0.891634  0
H  H33  1  0.79699023  0.33901787  0.99153167  1  0  0.418239  0  0.833834  0  0  0.403994  0  0.885313  0  0  0.411503  0  0.874963  0  0  0.320164  0.398619  0  0.891217  0
H  H34  1  0.41182994  0.92233502  0.43021633  1  0  0.434541  0  0.86621  0  0  0.398238  0  0.938089  0  0  0.410155  0  0.920838  0  0  0.2884  0.389758  0  0.950354  0
H  H35  1  0.26436599  0.57761300  0.06988015  1  0  0.43463  0  0.86571  0  0  0.397986  0  0.937955  0  0  0.40987  0  0.920768  0  0  0.288363  0.389568  0  0.950105  0
H  H36  1  0.58816924  0.07766671  0.56978329  1  0  0.434546  0  0.866197  0  0  0.398252  0  0.938061  0  0  0.410168  0  0.920812  0  0  0.288419  0.389773  0  0.950325  0
H  H37  1  0.73563500  0.42238711  0.93011883  1  0  0.434624  0  0.865717  0  0  0.397975  0  0.937971  0  0  0.409859  0  0.920784  0  0  0.288364  0.389557  0  0.950121  0
H  H38  1  0.73043760  0.81391697  0.76544774  1  0  0.4315  0  0.825717  0  0  0.412081  0  0.878407  0  0  0.42006  0  0.866875  0  0  0.329815  0.406355  0  0.886718  0
H  H39  1  0.80938220  0.68645795  0.73464660  1  0  0.432457  0  0.82531  0  0  0.412619  0  0.877937  0  0  0.420631  0  0.866357  0  0  0.33015  0.406869  0  0.88628  0
H  H40  1  0.26955481  0.18608474  0.23455864  1  0  0.43144  0  0.825843  0  0  0.41203  0  0.878484  0  0  0.420007  0  0.866955  0  0  0.329806  0.406304  0  0.886795  0
H  H41  1  0.19061459  0.31354213  0.26535947  1  0  0.432431  0  0.825349  0  0  0.412606  0  0.877962  0  0  0.420619  0  0.86638  0  0  0.330113  0.406855  0  0.886307  0
C  C42  1  0.81343567  0.71839441  0.42747750  1  0  -0.061509  0  3.750478  0  0  -0.037848  0  3.980309  0  0  -0.046436  0  4.003534  0  0  -0.012771  -0.032235  0  3.964633  0
C  C43  1  0.45954352  0.78154629  0.07251189  1  0  -0.060213  0  3.746502  0  0  -0.036803  0  3.9764  0  0  -0.045404  0  3.999614  0  0  -0.012181  -0.031251  0  3.960817  0
C  C44  1  0.18656446  0.28160570  0.57252115  1  0  -0.061493  0  3.750479  0  0  -0.037847  0  3.980308  0  0  -0.046435  0  4.003535  0  0  -0.012762  -0.032232  0  3.964632  0
C  C45  1  0.54045710  0.21845300  0.92748796  1  0  -0.060193  0  3.74659  0  0  -0.036776  0  3.976453  0  0  -0.045363  0  3.999652  0  0  -0.012182  -0.031231  0  3.960878  0
C  C46  1  0.87259511  0.61356745  0.44621919  1  0  -0.069674  0  3.728144  0  0  -0.093585  0  3.977844  0  0  -0.093716  0  3.997744  0  0  -0.078976  -0.093294  0  3.964337  0
C  C47  1  0.43290471  0.88631750  0.05370170  1  0  -0.069089  0  3.729358  0  0  -0.092656  0  3.97873  0  0  -0.092854  0  3.99859  0  0  -0.078378  -0.092314  0  3.965273  0
C  C48  1  0.12740419  0.38643265  0.55378115  1  0  -0.069592  0  3.728128  0  0  -0.093509  0  3.977815  0  0  -0.093642  0  3.997716  0  0  -0.078955  -0.093224  0  3.964305  0
C  C49  1  0.56709289  0.11368260  0.94629999  1  0  -0.069026  0  3.729378  0  0  -0.092587  0  3.978741  0  0  -0.092789  0  3.998597  0  0  -0.078306  -0.092243  0  3.965285  0
C  C50  1  0.00639520  0.54572800  0.38723293  1  0  -0.088498  0  3.75697  0  0  -0.110247  0  4.004474  0  0  -0.112693  0  4.026343  0  0  -0.089166  -0.108527  0  3.989684  0
C  C51  1  0.43986210  0.95411350  0.11271481  1  0  -0.089504  0  3.760572  0  0  -0.111128  0  4.007766  0  0  -0.113599  0  4.029699  0  0  -0.08941  -0.109429  0  3.992895  0
C  C52  1  0.99360543  0.45427129  0.61276759  1  0  -0.088591  0  3.756934  0  0  -0.110351  0  4.004443  0  0  -0.112798  0  4.02631  0  0  -0.089194  -0.108631  0  3.989655  0
C  C53  1  0.56013769  0.04588579  0.88728672  1  0  -0.089532  0  3.76066  0  0  -0.111154  0  4.007851  0  0  -0.113626  0  4.029786  0  0  -0.08944  -0.109453  0  3.992978  0
C  C54  1  0.08293118  0.58111442  0.30918247  1  0  -0.057625  0  3.75924  0  0  -0.035933  0  3.991431  0  0  -0.041965  0  4.01403  0  0  -0.015617  -0.03192  0  3.976103  0
C  C55  1  0.47348895  0.91871104  0.19082323  1  0  -0.057352  0  3.75943  0  0  -0.035657  0  3.991575  0  0  -0.041681  0  4.014158  0  0  -0.015168  -0.031647  0  3.97627  0
C  C56  1  0.91707021  0.41888649  0.69081901  1  0  -0.05759  0  3.759273  0  0  -0.035881  0  3.991439  0  0  -0.041913  0  4.014036  0  0  -0.015616  -0.031868  0  3.97611  0
C  C57  1  0.52651301  0.08128744  0.80917680  1  0  -0.057381  0  3.759451  0  0  -0.035697  0  3.991603  0  0  -0.041718  0  4.01418  0  0  -0.015211  -0.031689  0  3.976297  0
C  C58  1  0.02275998  0.68477236  0.28918720  1  0  -0.068411  0  3.738242  0  0  -0.090952  0  3.9856  0  0  -0.093001  0  4.006469  0  0  -0.08328  -0.089459  0  3.971408  0
C  C59  1  0.49671523  0.81510109  0.21089917  1  0  -0.069249  0  3.740169  0  0  -0.091597  0  3.987274  0  0  -0.093664  0  4.008086  0  0  -0.083534  -0.090124  0  3.973128  0
C  C60  1  0.97724064  0.31522693  0.71081265  1  0  -0.06844  0  3.738294  0  0  -0.090981  0  3.985634  0  0  -0.093032  0  4.006507  0  0  -0.083271  -0.08949  0  3.971441  0
C  C61  1  0.50328806  0.18489659  0.78910038  1  0  -0.069185  0  3.740166  0  0  -0.091535  0  3.987252  0  0  -0.093592  0  4.00807  0  0  -0.083485  -0.090062  0  3.973104  0
C  C62  1  0.88905713  0.75289223  0.34758112  1  0  -0.060315  0  3.70911  0  0  -0.084262  0  3.953406  0  0  -0.084133  0  3.9731  0  0  -0.079681  -0.084164  0  3.940033  0
C  C63  1  0.48951192  0.74702627  0.15248014  1  0  -0.061482  0  3.708946  0  0  -0.08507  0  3.953251  0  0  -0.085014  0  3.972931  0  0  -0.080179  -0.084923  0  3.939866  0
C  C64  1  0.11094225  0.24710625  0.65241791  1  0  -0.060339  0  3.709092  0  0  -0.084263  0  3.953375  0  0  -0.084143  0  3.973062  0  0  -0.0797  -0.084165  0  3.940003  0
C  C65  1  0.51048920  0.25297222  0.84752090  1  0  -0.061567  0  3.709041  0  0  -0.085126  0  3.953314  0  0  -0.085073  0  3.972986  0  0  -0.080203  -0.084975  0  3.939929  0
C  C66  1  0.67200017  0.79460185  0.49477399  1  0  0.687171  0  3.867649  0  0  0.636066  0  4.152289  0  0  0.673151  0  4.143154  0  0  0.223785  0.610778  0  4.157602  0
C  C67  1  0.46146856  0.70548884  0.00519405  1  0  0.688148  0  3.86319  0  0  0.637217  0  4.147942  0  0  0.67434  0  4.138688  0  0  0.223455  0.611928  0  4.153345  0
C  C68  1  0.32799791  0.20539744  0.50522755  1  0  0.687192  0  3.867467  0  0  0.636101  0  4.152088  0  0  0.673185  0  4.142955  0  0  0.223822  0.610812  0  4.1574  0
C  C69  1  0.53853244  0.29451126  0.99480628  1  0  0.68809  0  3.863128  0  0  0.637148  0  4.147884  0  0  0.674266  0  4.138631  0  0  0.223422  0.611862  0  4.153287  0
C  C70  1  0.22841267  0.51046021  0.25188647  1  0  0.670502  0  3.899277  0  0  0.618922  0  4.19223  0  0  0.654442  0  4.183336  0  0  0.219239  0.59475  0  4.197372  0
C  C71  1  0.49094011  0.98939015  0.24814538  1  0  0.668603  0  3.896697  0  0  0.616846  0  4.190147  0  0  0.652327  0  4.181302  0  0  0.21808  0.592718  0  4.195245  0
C  C72  1  0.77158484  0.48954151  0.74811652  1  0  0.670553  0  3.899256  0  0  0.618964  0  4.192217  0  0  0.654486  0  4.183322  0  0  0.219267  0.594793  0  4.19736  0
C  C73  1  0.50906148  0.01060752  0.75185484  1  0  0.668518  0  3.896817  0  0  0.616778  0  4.190244  0  0  0.652256  0  4.1814  0  0  0.218065  0.592654  0  4.195338  0
C  C74  1  0.22088556  0.96070944  0.80317060  1  0  0.664091  0  3.90534  0  0  0.615194  0  4.191216  0  0  0.65099  0  4.18392  0  0  0.213222  0.590884  0  4.195135  0
C  C75  1  0.48480916  0.53933588  0.69672235  1  0  0.662197  0  3.908015  0  0  0.613084  0  4.193993  0  0  0.648832  0  4.186857  0  0  0.212253  0.588808  0  4.197829  0
C  C76  1  0.77911371  0.03929067  0.19682771  1  0  0.664155  0  3.905219  0  0  0.615234  0  4.191134  0  0  0.651029  0  4.183838  0  0  0.213223  0.590921  0  4.195056  0
C  C77  1  0.51519135  0.46066503  0.30327679  1  0  0.662242  0  3.907949  0  0  0.613095  0  4.193977  0  0  0.648842  0  4.186842  0  0  0.212269  0.588819  0  4.197815  0
C  C78  1  0.10697522  0.98080804  0.90483101  1  0  -0.04236  0  3.736354  0  0  -0.018543  0  3.96363  0  0  -0.02556  0  3.986433  0  0  -0.009676  -0.014088  0  3.948491  0
C  C79  1  0.49267629  0.51922189  0.59508836  1  0  -0.039855  0  3.735488  0  0  -0.015787  0  3.962452  0  0  -0.022579  0  3.984924  0  0  -0.009013  -0.01148  0  3.947524  0
C  C80  1  0.89302538  0.01919126  0.09516614  1  0  -0.042445  0  3.736409  0  0  -0.018623  0  3.963698  0  0  -0.025641  0  3.9865  0  0  -0.009688  -0.014165  0  3.948553  0
C  C81  1  0.50732214  0.48077821  0.40491165  1  0  -0.039857  0  3.735433  0  0  -0.01578  0  3.962416  0  0  -0.022568  0  3.984882  0  0  -0.009006  -0.011473  0  3.947489  0
C  C82  1  0.11834580  0.90333986  0.96799626  1  0  -0.076602  0  3.735992  0  0  -0.098579  0  3.983859  0  0  -0.100013  0  4.004989  0  0  -0.081685  -0.097443  0  3.969394  0
C  C83  1  0.48952359  0.59676523  0.53199177  1  0  -0.077267  0  3.737231  0  0  -0.099678  0  3.984961  0  0  -0.101203  0  4.00624  0  0  -0.082013  -0.0985  0  3.97041  0
C  C84  1  0.88165394  0.09665944  0.03200123  1  0  -0.076632  0  3.735913  0  0  -0.098576  0  3.983806  0  0  -0.10001  0  4.004936  0  0  -0.081675  -0.09744  0  3.969342  0
C  C85  1  0.51047607  0.40323568  0.46800771  1  0  -0.07721  0  3.737259  0  0  -0.099637  0  3.984974  0  0  -0.101165  0  4.006255  0  0  -0.081989  -0.098461  0  3.970422  0
C  C86  1  0.98811446  0.07743599  0.93743746  1  0  -0.078771  0  3.751108  0  0  -0.101988  0  3.99848  0  0  -0.103392  0  4.019791  0  0  -0.085382  -0.100854  0  3.983861  0
C  C87  1  0.50325534  0.42247625  0.56249579  1  0  -0.07957  0  3.750032  0  0  -0.102963  0  3.997293  0  0  -0.104416  0  4.018771  0  0  -0.084602  -0.101816  0  3.982575  0
C  C88  1  0.01188528  0.92256331  0.06256003  1  0  -0.078751  0  3.751142  0  0  -0.101958  0  3.998529  0  0  -0.103363  0  4.019844  0  0  -0.085343  -0.100825  0  3.98391  0
C  C89  1  0.49674432  0.57752466  0.43750436  1  0  -0.079653  0  3.750035  0  0  -0.103056  0  3.997307  0  0  -0.104509  0  4.018783  0  0  -0.08465  -0.101909  0  3.982589  0
O  O90  1  0.60722137  0.76895139  0.57591087  1  0  -0.728941  0  2.00128  0  0  -0.666074  0  2.256782  0  0  -0.695312  0  2.242567  0  0  -0.363241  -0.645248  0  2.26577  0
O  O91  1  0.45223977  0.73123384  0.92408782  1  0  -0.729958  0  2.000196  0  0  -0.667044  0  2.255336  0  0  -0.69634  0  2.241203  0  0  -0.363381  -0.646165  0  2.264257  0
O  O92  1  0.39277865  0.23105034  0.42408773  1  0  -0.729024  0  2.000959  0  0  -0.666164  0  2.25647  0  0  -0.695404  0  2.242254  0  0  -0.363323  -0.645337  0  2.265457  0
O  O93  1  0.54776171  0.26876545  0.07591236  1  0  -0.729941  0  2.000166  0  0  -0.667027  0  2.255311  0  0  -0.696325  0  2.241181  0  0  -0.363378  -0.646147  0  2.264232  0
O  O94  1  0.35645263  0.91281007  0.49928864  1  0  -0.817646  0  1.815524  0  0  -0.761892  0  1.98849  0  0  -0.782757  0  1.956571  0  0  -0.577656  -0.747212  0  2.009286  0
O  O95  1  0.26850186  0.58706720  0.00083122  1  0  -0.817827  0  1.813775  0  0  -0.761634  0  1.987521  0  0  -0.782503  0  1.955702  0  0  -0.577795  -0.746956  0  2.008278  0
O  O96  1  0.64354656  0.08719166  0.50071165  1  0  -0.817673  0  1.81542  0  0  -0.761923  0  1.988375  0  0  -0.782788  0  1.9565  0  0  -0.577696  -0.747244  0  2.009169  0
O  O97  1  0.73149781  0.41293371  0.99916892  1  0  -0.817845  0  1.813719  0  0  -0.761649  0  1.987475  0  0  -0.782518  0  1.955675  0  0  -0.577789  -0.746972  0  2.008233  0
O  O98  1  0.61717552  0.88587236  0.47066584  1  0  -0.675345  0  2.093532  0  0  -0.595722  0  2.350654  0  0  -0.630148  0  2.338974  0  0  -0.325274  -0.571344  0  2.357641  0
O  O99  1  0.47358207  0.61423850  0.02927622  1  0  -0.67615  0  2.092481  0  0  -0.596533  0  2.349685  0  0  -0.631  0  2.337953  0  0  -0.325295  -0.572213  0  2.356822  0
O  O100  1  0.38282451  0.11412937  0.52933344  1  0  -0.675306  0  2.093608  0  0  -0.595682  0  2.350715  0  0  -0.630106  0  2.339029  0  0  -0.32525  -0.571308  0  2.357703  0
O  O101  1  0.52642025  0.38576079  0.97072295  1  0  -0.676117  0  2.09244  0  0  -0.596479  0  2.349614  0  0  -0.630946  0  2.337884  0  0  -0.325264  -0.572159  0  2.356749  0
O  O102  1  0.72689187  0.75028034  0.74965840  1  0  -0.845111  0  1.843069  0  0  -0.799669  0  2.007222  0  0  -0.816775  0  1.980121  0  0  -0.587965  -0.787464  0  2.026343  0
O  O103  1  0.27310823  0.24971978  0.25033756  1  0  -0.845028  0  1.843219  0  0  -0.799609  0  2.007317  0  0  -0.816716  0  1.980215  0  0  -0.587921  -0.787403  0  2.026438  0
O  O104  1  0.29157031  0.53909799  0.17103642  1  0  -0.675466  0  2.069818  0  0  -0.599815  0  2.310666  0  0  -0.631335  0  2.298115  0  0  -0.321206  -0.577611  0  2.31848  0
O  O105  1  0.50149388  0.96092857  0.32914333  1  0  -0.674736  0  2.068573  0  0  -0.599237  0  2.30949  0  0  -0.630767  0  2.296995  0  0  -0.32132  -0.577022  0  2.317303  0
O  O106  1  0.70842987  0.46090211  0.82896694  1  0  -0.675505  0  2.069825  0  0  -0.599841  0  2.310669  0  0  -0.631361  0  2.298118  0  0  -0.321228  -0.577638  0  2.318485  0
O  O107  1  0.49850675  0.03907073  0.67085719  1  0  -0.674685  0  2.068583  0  0  -0.599199  0  2.309498  0  0  -0.630728  0  2.297001  0  0  -0.321313  -0.576989  0  2.317311  0
O  O108  1  0.28140380  0.42904114  0.28646479  1  0  -0.685793  0  2.000122  0  0  -0.63139  0  2.245537  0  0  -0.65852  0  2.23541  0  0  -0.351059  -0.612123  0  2.251791  0
O  O109  1  0.49739802  0.07068931  0.21343350  1  0  -0.68459  0  1.999382  0  0  -0.629749  0  2.244256  0  0  -0.656866  0  2.234193  0  0  -0.350412  -0.610517  0  2.25048  0
O  O110  1  0.71859728  0.57095735  0.71353289  1  0  -0.68581  0  2.000151  0  0  -0.631407  0  2.24556  0  0  -0.658537  0  2.235435  0  0  -0.351048  -0.612141  0  2.251813  0
O  O111  1  0.50260298  0.92931080  0.78656683  1  0  -0.684542  0  1.999446  0  0  -0.629719  0  2.244328  0  0  -0.656833  0  2.234265  0  0  -0.350411  -0.610488  0  2.250549  0
O  O112  1  0.20836448  0.03744268  0.75207748  1  0  -0.634222  0  1.977872  0  0  -0.567826  0  2.213837  0  0  -0.59937  0  2.203114  0  0  -0.321565  -0.545599  0  2.220334  0
O  O113  1  0.49806350  0.46254641  0.74776046  1  0  -0.635091  0  1.977948  0  0  -0.56839  0  2.213867  0  0  -0.600005  0  2.203194  0  0  -0.321749  -0.546201  0  2.220342  0
O  O114  1  0.79163478  0.96255743  0.24792016  1  0  -0.634219  0  1.977865  0  0  -0.567809  0  2.213837  0  0  -0.599351  0  2.203112  0  0  -0.321558  -0.545582  0  2.220334  0
O  O115  1  0.50193531  0.53745450  0.25224003  1  0  -0.63513  0  1.977978  0  0  -0.568425  0  2.213917  0  0  -0.600038  0  2.203244  0  0  -0.321775  -0.546237  0  2.220395  0
O  O116  1  0.32515768  0.86979353  0.77018341  1  0  -0.718677  0  2.023132  0  0  -0.655181  0  2.269081  0  0  -0.684626  0  2.257001  0  0  -0.362176  -0.634194  0  2.276541  0
O  O117  1  0.46508552  0.63027372  0.72977350  1  0  -0.717254  0  2.02334  0  0  -0.653668  0  2.269207  0  0  -0.683108  0  2.257182  0  0  -0.361521  -0.632686  0  2.276596  0
O  O118  1  0.67484283  0.13020738  0.22981572  1  0  -0.718676  0  2.023043  0  0  -0.655164  0  2.268993  0  0  -0.684612  0  2.256913  0  0  -0.362158  -0.634177  0  2.276456  0
O  O119  1  0.53491463  0.36972639  0.27022650  1  0  -0.717259  0  2.023314  0  0  -0.653658  0  2.269194  0  0  -0.683098  0  2.257166  0  0  -0.361512  -0.632671  0  2.276579  0
