# generated using pymatgen
data_CdH22C26N3O5
_symmetry_space_group_name_H-M   'P 1'
_cell_length_a   10.37692813
_cell_length_b   10.54617513
_cell_length_c   13.88297388
_cell_angle_alpha   101.86021953
_cell_angle_beta   101.69185314
_cell_angle_gamma   109.44039294
_symmetry_Int_Tables_number   1
_chemical_formula_structural   CdH22C26N3O5
_chemical_formula_sum   'Cd2 H44 C52 N6 O10'
_cell_volume   1340.26562685
_cell_formula_units_Z   2
loop_
 _symmetry_equiv_pos_site_id
 _symmetry_equiv_pos_as_xyz
  1  'x, y, z'
loop_
 _atom_site_type_symbol
 _atom_site_label
 _atom_site_symmetry_multiplicity
 _atom_site_fract_x
 _atom_site_fract_y
 _atom_site_fract_z
 _atom_site_occupancy
 _atom_site_hle17_bader_spin_density
 _atom_site_hle17_ddec_charge
 _atom_site_hle17_ddec_spin_density
 _atom_site_hle17_ddec_sum_bond_order
 _atom_site_hle17_magmom
 _atom_site_hse06_10hf_bader_spin_density
 _atom_site_hse06_10hf_ddec_charge
 _atom_site_hse06_10hf_ddec_spin_density
 _atom_site_hse06_10hf_ddec_sum_bond_order
 _atom_site_hse06_10hf_magmom
 _atom_site_hse06_bader_spin_density
 _atom_site_hse06_ddec_charge
 _atom_site_hse06_ddec_spin_density
 _atom_site_hse06_ddec_sum_bond_order
 _atom_site_hse06_magmom
 _atom_site_pbe_bader_spin_density
 _atom_site_pbe_cm5_charge
 _atom_site_pbe_ddec_charge
 _atom_site_pbe_ddec_spin_density
 _atom_site_pbe_ddec_sum_bond_order
 _atom_site_pbe_magmom
Cd  Cd0  1  0.12457599  0.26883437  0.31070396  1  0  1.033975  0  1.756137  0  0  0.82643  0  2.208094  0  0  0.884801  0  2.159856  0  0  0.75325  0.781556  0  2.243619  0
Cd  Cd1  1  0.87541606  0.73116270  0.68929556  1  0  1.03398  0  1.756132  0  0  0.826449  0  2.208049  0  0  0.884808  0  2.159835  0  0  0.753264  0.781578  0  2.243577  0
H  H2  1  0.61806607  0.27629401  0.30942050  1  0  0.107417  0  0.960655  0  0  0.113748  0  1.031857  0  0  0.118236  0  1.02781  0  0  0.10174  0.110611  0  1.034925  0
H  H3  1  0.38193919  0.72369651  0.69058243  1  0  0.107397  0  0.96059  0  0  0.11372  0  1.031788  0  0  0.118203  0  1.02775  0  0  0.101777  0.110582  0  1.034855  0
H  H4  1  0.26007085  0.87821509  0.21553211  1  0  0.112287  0  0.973573  0  0  0.12034  0  1.04086  0  0  0.124088  0  1.038226  0  0  0.105033  0.117823  0  1.042393  0
H  H5  1  0.73992821  0.12178396  0.78447439  1  0  0.112203  0  0.973551  0  0  0.120225  0  1.040888  0  0  0.123971  0  1.038269  0  0  0.104992  0.11772  0  1.042409  0
H  H6  1  0.67792509  0.89161017  0.21006724  1  0  0.10239  0  1.000789  0  0  0.108754  0  1.072952  0  0  0.112691  0  1.069646  0  0  0.099211  0.106006  0  1.075114  0
H  H7  1  0.32206818  0.10838054  0.78992919  1  0  0.102386  0  1.000802  0  0  0.108782  0  1.07292  0  0  0.112719  0  1.069613  0  0  0.099242  0.106034  0  1.075081  0
H  H8  1  0.20057857  0.49462214  0.54070870  1  0  0.077747  0  0.953787  0  0  0.086495  0  1.01688  0  0  0.088532  0  1.015811  0  0  0.115439  0.085065  0  1.017537  0
H  H9  1  0.79943110  0.50538952  0.45929261  1  0  0.07783  0  0.953764  0  0  0.086565  0  1.016874  0  0  0.088604  0  1.015803  0  0  0.115482  0.085152  0  1.017513  0
H  H10  1  0.21255429  0.50175277  0.72048010  1  0  0.120932  0  0.941437  0  0  0.131901  0  0.998182  0  0  0.135852  0  0.996076  0  0  0.111143  0.12896  0  1.000106  0
H  H11  1  0.78744866  0.49826427  0.27951984  1  0  0.120848  0  0.941377  0  0  0.131831  0  0.998126  0  0  0.135779  0  0.996019  0  0  0.111103  0.128892  0  1.000049  0
H  H12  1  0.13343608  0.05804735  0.63533151  1  0  0.121273  0  0.976512  0  0  0.12768  0  1.041292  0  0  0.131313  0  1.040405  0  0  0.105608  0.125123  0  1.041953  0
H  H13  1  0.86656599  0.94196228  0.36467067  1  0  0.12124  0  0.976484  0  0  0.127616  0  1.041303  0  0  0.131251  0  1.040415  0  0  0.105607  0.125063  0  1.041962  0
H  H14  1  0.13073697  0.07174115  0.45558186  1  0  0.07688  0  0.944413  0  0  0.084734  0  1.010799  0  0  0.087307  0  1.008638  0  0  0.113236  0.08268  0  1.012762  0
H  H15  1  0.86926790  0.92827267  0.54442354  1  0  0.076941  0  0.944301  0  0  0.084832  0  1.010657  0  0  0.087404  0  1.008498  0  0  0.113259  0.082779  0  1.012619  0
H  H16  1  0.17233147  0.17434032  0.81030416  1  0  0.092979  0  0.946154  0  0  0.111169  0  1.004179  0  0  0.113097  0  1.002805  0  0  0.099141  0.109821  0  1.005099  0
H  H17  1  0.82767045  0.82566933  0.18969512  1  0  0.093193  0  0.946007  0  0  0.111233  0  1.004153  0  0  0.11315  0  1.002782  0  0  0.09916  0.109885  0  1.005072  0
H  H18  1  0.26727433  0.36093941  0.85704787  1  0  0.073706  0  0.922285  0  0  0.091856  0  0.979694  0  0  0.093392  0  0.978966  0  0  0.09291  0.090936  0  0.979977  0
H  H19  1  0.73272707  0.63906599  0.14295495  1  0  0.073671  0  0.922312  0  0  0.091852  0  0.979658  0  0  0.093385  0  0.978924  0  0  0.092921  0.090927  0  0.979947  0
H  H20  1  0.94254046  0.20042336  0.77078201  1  0  0.091667  0  0.942145  0  0  0.107233  0  1.005287  0  0  0.109019  0  1.004048  0  0  0.098195  0.105915  0  1.006073  0
H  H21  1  0.05746441  0.79959367  0.22921744  1  0  0.091707  0  0.942079  0  0  0.107236  0  1.005225  0  0  0.109022  0  1.00399  0  0  0.098203  0.105917  0  1.006007  0
H  H22  1  0.03054572  0.38774515  0.81331838  1  0  0.08135  0  0.928991  0  0  0.098732  0  0.98882  0  0  0.099617  0  0.989212  0  0  0.096237  0.09807  0  0.988596  0
H  H23  1  0.96946039  0.61226652  0.18668969  1  0  0.081367  0  0.928993  0  0  0.098736  0  0.988805  0  0  0.099621  0  0.989197  0  0  0.096221  0.098073  0  0.988582  0
H  H24  1  0.90777505  0.06857067  0.89476511  1  0  0.119541  0  0.968032  0  0  0.127162  0  1.031388  0  0  0.13051  0  1.030729  0  0  0.107582  0.124668  0  1.032224  0
H  H25  1  0.09222131  0.93142529  0.10523188  1  0  0.119617  0  0.96804  0  0  0.127192  0  1.031443  0  0  0.130542  0  1.030781  0  0  0.107596  0.124697  0  1.032279  0
H  H26  1  0.93718589  0.07447794  0.08046648  1  0  0.0791  0  0.937583  0  0  0.087667  0  0.999562  0  0  0.090047  0  0.997936  0  0  0.115034  0.085754  0  1.001076  0
H  H27  1  0.06281012  0.92550744  0.91952939  1  0  0.079089  0  0.937688  0  0  0.087626  0  0.999678  0  0  0.090005  0  0.998053  0  0  0.115014  0.085714  0  1.001191  0
H  H28  1  0.20711010  0.49634288  0.18196481  1  0  0.075446  0  0.968112  0  0  0.080655  0  1.037571  0  0  0.083185  0  1.035721  0  0  0.110593  0.078785  0  1.038754  0
H  H29  1  0.79289353  0.50364552  0.81804189  1  0  0.075536  0  0.968104  0  0  0.080725  0  1.037563  0  0  0.083225  0  1.035742  0  0  0.110608  0.078856  0  1.038746  0
H  H30  1  0.18190760  0.51105392  0.00368619  1  0  0.108578  0  0.943361  0  0  0.119105  0  1.001054  0  0  0.122863  0  0.999779  0  0  0.106052  0.116352  0  1.002204  0
H  H31  1  0.81809563  0.48894294  0.99632334  1  0  0.10857  0  0.943268  0  0  0.119119  0  1.00095  0  0  0.122877  0  0.999675  0  0  0.106037  0.116365  0  1.002101  0
H  H32  1  0.03605464  0.52764826  0.35615978  1  0  0.085689  0  0.981876  0  0  0.091427  0  1.052989  0  0  0.093978  0  1.050668  0  0  0.112361  0.089509  0  1.054822  0
H  H33  1  0.96394441  0.47235400  0.64384078  1  0  0.085668  0  0.98193  0  0  0.091414  0  1.053039  0  0  0.093964  0  1.050719  0  0  0.112363  0.089495  0  1.054874  0
H  H34  1  0.13923152  0.79069043  0.42832974  1  0  0.105957  0  0.944726  0  0  0.118771  0  1.000181  0  0  0.12113  0  1.001394  0  0  0.106141  0.116744  0  1.00027  0
H  H35  1  0.86077174  0.20930964  0.57167457  1  0  0.10601  0  0.944651  0  0  0.118814  0  1.000109  0  0  0.121172  0  1.001321  0  0  0.106176  0.116793  0  1.000191  0
H  H36  1  0.55731862  0.77734918  0.46101611  1  0  0.102243  0  0.969734  0  0  0.111822  0  1.032461  0  0  0.114182  0  1.033368  0  0  0.10353  0.109741  0  1.032859  0
H  H37  1  0.44268300  0.22264777  0.53898026  1  0  0.102283  0  0.969724  0  0  0.11187  0  1.032427  0  0  0.11423  0  1.033333  0  0  0.103548  0.109787  0  1.032827  0
H  H38  1  0.43596986  0.51644907  0.38760973  1  0  0.097345  0  0.951357  0  0  0.105737  0  1.013631  0  0  0.108897  0  1.010342  0  0  0.117676  0.103413  0  1.016164  0
H  H39  1  0.56402937  0.48354686  0.61238617  1  0  0.097311  0  0.95134  0  0  0.105689  0  1.013631  0  0  0.108846  0  1.010345  0  0  0.117671  0.103367  0  1.016159  0
H  H40  1  0.36022619  0.00566992  0.44129370  1  0  0.083155  0  0.943773  0  0  0.100105  0  1.008644  0  0  0.10083  0  1.008706  0  0  0.097132  0.099569  0  1.00858  0
H  H41  1  0.63977442  0.99432494  0.55869930  1  0  0.083149  0  0.943734  0  0  0.100063  0  1.008648  0  0  0.100785  0  1.008711  0  0  0.097141  0.099529  0  1.008583  0
H  H42  1  0.39864986  0.99257425  0.56749658  1  0  0.083205  0  0.950359  0  0  0.099959  0  1.015639  0  0  0.09935  0  1.01881  0  0  0.096187  0.100422  0  1.013306  0
H  H43  1  0.60135180  0.00743012  0.43250032  1  0  0.083162  0  0.950485  0  0  0.099934  0  1.015732  0  0  0.099325  0  1.018902  0  0  0.096186  0.100397  0  1.013398  0
H  H44  1  0.47612622  0.68800312  0.16851196  1  0  0.376247  0  0.828219  0  0  0.367638  0  0.875364  0  0  0.37482  0  0.867952  0  0  0.334181  0.362672  0  0.880415  0
H  H45  1  0.52386205  0.31198766  0.83148171  1  0  0.376275  0  0.828097  0  0  0.367583  0  0.875354  0  0  0.374761  0  0.86795  0  0  0.33417  0.362618  0  0.880403  0
C  C46  1  0.66450054  0.09197863  0.26243287  1  0  -0.033257  0  3.778106  0  0  -0.005733  0  4.008575  0  0  -0.012205  0  4.030686  0  0  -0.020497  -0.001913  0  3.994734  0
C  C47  1  0.33549872  0.90800987  0.73756393  1  0  -0.033386  0  3.778272  0  0  -0.005898  0  4.008819  0  0  -0.012364  0  4.030919  0  0  -0.020578  -0.002076  0  3.99498  0
C  C48  1  0.57488529  0.16205968  0.28078732  1  0  -0.094595  0  3.710851  0  0  -0.136147  0  3.962134  0  0  -0.135081  0  3.980749  0  0  -0.090227  -0.137377  0  3.951131  0
C  C49  1  0.42511325  0.83793413  0.71921174  1  0  -0.094361  0  3.710934  0  0  -0.135871  0  3.962204  0  0  -0.134807  0  3.980818  0  0  -0.090168  -0.137104  0  3.951202  0
C  C50  1  0.42918817  0.08488266  0.26352576  1  0  -0.039954  0  3.77189  0  0  -0.011864  0  4.002622  0  0  -0.018626  0  4.024971  0  0  -0.019717  -0.007647  0  3.988234  0
C  C51  1  0.57081187  0.91511748  0.73647240  1  0  -0.040247  0  3.772155  0  0  -0.012167  0  4.002881  0  0  -0.018927  0  4.025224  0  0  -0.019765  -0.007948  0  3.988497  0
C  C52  1  0.37285012  0.93774857  0.22760297  1  0  -0.178393  0  3.694667  0  0  -0.212811  0  3.943067  0  0  -0.214221  0  3.960583  0  0  -0.098323  -0.210853  0  3.930699  0
C  C53  1  0.62714455  0.06224529  0.77239633  1  0  -0.178212  0  3.694676  0  0  -0.212607  0  3.943109  0  0  -0.214022  0  3.960627  0  0  -0.098255  -0.210658  0  3.930733  0
C  C54  1  0.46187063  0.86796061  0.20774698  1  0  0.315627  0  3.85154  0  0  0.313894  0  4.116969  0  0  0.322589  0  4.132826  0  0  0.073778  0.307559  0  4.105915  0
C  C55  1  0.53812248  0.13203433  0.79225159  1  0  0.315651  0  3.851675  0  0  0.313904  0  4.117084  0  0  0.322602  0  4.13294  0  0  0.073785  0.307568  0  4.106033  0
C  C56  1  0.60711266  0.94464823  0.22513074  1  0  -0.224877  0  3.755985  0  0  -0.258359  0  4.006273  0  0  -0.260391  0  4.023736  0  0  -0.110318  -0.256132  0  3.994221  0
C  C57  1  0.39288585  0.05534557  0.77486759  1  0  -0.224937  0  3.755975  0  0  -0.258436  0  4.00628  0  0  -0.260471  0  4.023742  0  0  -0.110356  -0.256207  0  3.994226  0
C  C58  1  0.82250753  0.17224372  0.28358609  1  0  0.621587  0  3.949165  0  0  0.576719  0  4.234929  0  0  0.610472  0  4.228888  0  0  0.18564  0.553896  0  4.238049  0
C  C59  1  0.17749506  0.82774580  0.71641058  1  0  0.621617  0  3.949303  0  0  0.576738  0  4.235116  0  0  0.610492  0  4.229078  0  0  0.185605  0.553914  0  4.23824  0
C  C60  1  0.33215576  0.15919803  0.28437848  1  0  0.61748  0  3.957003  0  0  0.572712  0  4.243258  0  0  0.606248  0  4.237523  0  0  0.185078  0.549961  0  4.24612  0
C  C61  1  0.66784450  0.84080320  0.71561556  1  0  0.617978  0  3.95651  0  0  0.573233  0  4.242707  0  0  0.606773  0  4.236957  0  0  0.185263  0.550482  0  4.245574  0
C  C62  1  0.18813247  0.39982279  0.56405954  1  0  0.144446  0  3.705541  0  0  0.115158  0  3.954986  0  0  0.122669  0  3.97328  0  0  0.051527  0.110077  0  3.943311  0
C  C63  1  0.81187176  0.60019000  0.43594128  1  0  0.144322  0  3.705737  0  0  0.11504  0  3.955196  0  0  0.122548  0  3.973492  0  0  0.051477  0.109948  0  3.943514  0
C  C64  1  0.19456435  0.40277879  0.66554852  1  0  -0.177016  0  3.700441  0  0  -0.192413  0  3.943907  0  0  -0.200435  0  3.964239  0  0  -0.084599  -0.187855  0  3.931595  0
C  C65  1  0.80543823  0.59723720  0.33445264  1  0  -0.177039  0  3.70061  0  0  -0.192438  0  3.944141  0  0  -0.200452  0  3.96447  0  0  -0.084623  -0.18788  0  3.931828  0
C  C66  1  0.17351106  0.27869643  0.69332428  1  0  0.145364  0  3.735495  0  0  0.161483  0  3.974668  0  0  0.166115  0  3.998297  0  0  0.00871  0.158523  0  3.958731  0
C  C67  1  0.82649030  0.72131849  0.30668015  1  0  0.145492  0  3.735578  0  0  0.161524  0  3.974811  0  0  0.166148  0  3.998433  0  0  0.008762  0.158564  0  3.958874  0
C  C68  1  0.15018162  0.15693341  0.61670237  1  0  -0.190468  0  3.710355  0  0  -0.206376  0  3.957087  0  0  -0.21516  0  3.978913  0  0  -0.091296  -0.200524  0  3.94284  0
C  C69  1  0.84981986  0.84307729  0.38329920  1  0  -0.190351  0  3.710395  0  0  -0.206188  0  3.957144  0  0  -0.21497  0  3.978967  0  0  -0.091321  -0.200346  0  3.942908  0
C  C70  1  0.14778311  0.16389244  0.51733336  1  0  0.119448  0  3.745125  0  0  0.090527  0  3.998938  0  0  0.097662  0  4.017525  0  0  0.040266  0.08571  0  3.987076  0
C  C71  1  0.85221853  0.83611614  0.48266859  1  0  0.119226  0  3.745329  0  0  0.090256  0  3.999175  0  0  0.097392  0  4.017767  0  0  0.040285  0.08544  0  3.987311  0
C  C72  1  0.17146657  0.27491324  0.80062184  1  0  -0.155856  0  3.684068  0  0  -0.200724  0  3.937643  0  0  -0.202362  0  3.948564  0  0  -0.15464  -0.199404  0  3.929464  0
C  C73  1  0.82853339  0.72509854  0.19937972  1  0  -0.156099  0  3.684241  0  0  -0.200833  0  3.937731  0  0  -0.202438  0  3.948605  0  0  -0.154712  -0.199504  0  3.929538  0
C  C74  1  0.03713792  0.28964616  0.82483347  1  0  -0.14883  0  3.665919  0  0  -0.191866  0  3.915371  0  0  -0.193409  0  3.926845  0  0  -0.150806  -0.190461  0  3.907087  0
C  C75  1  0.96286628  0.71036342  0.17517257  1  0  -0.149001  0  3.666033  0  0  -0.191925  0  3.915346  0  0  -0.193481  0  3.926818  0  0  -0.150807  -0.190516  0  3.907057  0
C  C76  1  0.04348775  0.28923958  0.93375243  1  0  0.153715  0  3.731411  0  0  0.172399  0  3.965243  0  0  0.176983  0  3.988862  0  0  0.010563  0.169166  0  3.949438  0
C  C77  1  0.95651407  0.71075946  0.06625080  1  0  0.153785  0  3.731317  0  0  0.172431  0  3.965142  0  0  0.177014  0  3.988772  0  0  0.010561  0.169196  0  3.949342  0
C  C78  1  0.97375649  0.16575150  0.95684945  1  0  -0.180688  0  3.700406  0  0  -0.195847  0  3.941168  0  0  -0.204905  0  3.96357  0  0  -0.085323  -0.190145  0  3.926553  0
C  C79  1  0.02623854  0.83424341  0.04314864  1  0  -0.180802  0  3.700546  0  0  -0.195942  0  3.941326  0  0  -0.205  0  3.963726  0  0  -0.085364  -0.190239  0  3.926712  0
C  C80  1  0.99090555  0.16823463  0.05943384  1  0  0.131808  0  3.723703  0  0  0.10357  0  3.971419  0  0  0.110665  0  3.990825  0  0  0.046462  0.099101  0  3.958152  0
C  C81  1  0.00908748  0.83175290  0.94056347  1  0  0.13186  0  3.723849  0  0  0.103663  0  3.971525  0  0  0.110759  0  3.990932  0  0  0.046505  0.099193  0  3.958259  0
C  C82  1  0.14045748  0.40368884  0.11659306  1  0  0.126537  0  3.737927  0  0  0.096316  0  3.99122  0  0  0.103653  0  4.009874  0  0  0.038942  0.091806  0  3.978372  0
C  C83  1  0.85953720  0.59630180  0.88341219  1  0  0.126342  0  3.737966  0  0  0.096155  0  3.991265  0  0  0.103516  0  4.009931  0  0  0.038858  0.091645  0  3.978416  0
C  C84  1  0.12665186  0.41084475  0.01636571  1  0  -0.183824  0  3.731205  0  0  -0.202297  0  3.97856  0  0  -0.210886  0  4.000554  0  0  -0.091041  -0.196945  0  3.964344  0
C  C85  1  0.87334732  0.58915219  0.98364045  1  0  -0.183704  0  3.730907  0  0  -0.202209  0  3.978273  0  0  -0.210796  0  4.000261  0  0  -0.090984  -0.196856  0  3.964057  0
C  C86  1  0.15091033  0.58911789  0.38002038  1  0  0.110277  0  3.735638  0  0  0.07774  0  3.991395  0  0  0.085291  0  4.009541  0  0  0.039436  0.073048  0  3.978641  0
C  C87  1  0.84909044  0.41088117  0.61998128  1  0  0.110319  0  3.735644  0  0  0.077765  0  3.991392  0  0  0.085315  0  4.009535  0  0  0.039421  0.07307  0  3.978643  0
C  C88  1  0.20946083  0.73440626  0.42033176  1  0  -0.166998  0  3.705972  0  0  -0.184021  0  3.95351  0  0  -0.1927  0  3.975736  0  0  -0.085775  -0.17842  0  3.938816  0
C  C89  1  0.79053994  0.26559279  0.57966991  1  0  -0.167164  0  3.705931  0  0  -0.184139  0  3.953499  0  0  -0.192817  0  3.975725  0  0  -0.085848  -0.178542  0  3.938804  0
C  C90  1  0.35817633  0.80776245  0.45041546  1  0  0.165668  0  3.705143  0  0  0.181045  0  3.942363  0  0  0.186465  0  3.964731  0  0  0.018841  0.177575  0  3.926937  0
C  C91  1  0.64182546  0.19223449  0.54958453  1  0  0.165617  0  3.705173  0  0  0.180893  0  3.942495  0  0  0.186309  0  3.964877  0  0  0.018764  0.177424  0  3.927071  0
C  C92  1  0.44122144  0.72810453  0.43874953  1  0  -0.163305  0  3.697593  0  0  -0.180893  0  3.944525  0  0  -0.189269  0  3.9662  0  0  -0.086602  -0.175309  0  3.930344  0
C  C93  1  0.55877973  0.27189348  0.56124912  1  0  -0.163318  0  3.697578  0  0  -0.180883  0  3.944534  0  0  -0.189256  0  3.96621  0  0  -0.086574  -0.175299  0  3.930356  0
C  C94  1  0.37521908  0.58243846  0.39811677  1  0  0.127947  0  3.704467  0  0  0.095616  0  3.956755  0  0  0.104187  0  3.972964  0  0  0.047156  0.090184  0  3.945153  0
C  C95  1  0.62478268  0.41755847  0.60188249  1  0  0.128016  0  3.704533  0  0  0.095681  0  3.956835  0  0  0.104254  0  3.973038  0  0  0.047174  0.090249  0  3.945229  0
C  C96  1  0.42045098  0.96512005  0.49309658  1  0  -0.162744  0  3.726517  0  0  -0.206085  0  3.973378  0  0  -0.207332  0  3.985768  0  0  -0.158625  -0.205065  0  3.964514  0
C  C97  1  0.57955106  0.03487796  0.50690002  1  0  -0.162579  0  3.72659  0  0  -0.205839  0  3.973403  0  0  -0.207082  0  3.985793  0  0  -0.158576  -0.20482  0  3.964537  0
N  N98  1  0.16517297  0.28275236  0.49062387  1  0  -0.333021  0  3.239308  0  0  -0.259745  0  3.502661  0  0  -0.27915  0  3.521408  0  0  -0.327795  -0.246425  0  3.49034  0
N  N99  1  0.83483127  0.71726043  0.50937695  1  0  -0.332785  0  3.239536  0  0  -0.259492  0  3.502878  0  0  -0.278899  0  3.521637  0  0  -0.32772  -0.246173  0  3.490559  0
N  N100  1  0.07440283  0.28435798  0.13832442  1  0  -0.327545  0  3.246861  0  0  -0.252119  0  3.508096  0  0  -0.272069  0  3.527333  0  0  -0.326723  -0.238449  0  3.494385  0
N  N101  1  0.92559513  0.71562947  0.86167420  1  0  -0.327552  0  3.24686  0  0  -0.252137  0  3.508075  0  0  -0.272084  0  3.527302  0  0  -0.326703  -0.238465  0  3.494365  0
N  N102  1  0.23238393  0.51399877  0.36870087  1  0  -0.343003  0  3.302453  0  0  -0.264644  0  3.569773  0  0  -0.285676  0  3.588465  0  0  -0.339954  -0.249446  0  3.555384  0
N  N103  1  0.76761608  0.48600137  0.63129656  1  0  -0.34302  0  3.302479  0  0  -0.264637  0  3.569782  0  0  -0.285664  0  3.588465  0  0  -0.339951  -0.249442  0  3.555406  0
O  O104  1  0.87418660  0.30504934  0.31317912  1  0  -0.637448  0  1.91631  0  0  -0.590808  0  2.146002  0  0  -0.615638  0  2.137402  0  0  -0.337215  -0.572449  0  2.150381  0
O  O105  1  0.12581200  0.69493914  0.68682409  1  0  -0.637481  0  1.916288  0  0  -0.590866  0  2.146028  0  0  -0.615681  0  2.137402  0  0  -0.337227  -0.572502  0  2.150399  0
O  O106  1  0.89748127  0.09757707  0.27043011  1  0  -0.647314  0  1.977949  0  0  -0.57979  0  2.219293  0  0  -0.608618  0  2.209129  0  0  -0.341317  -0.558714  0  2.226966  0
O  O107  1  0.10251478  0.90240941  0.72955802  1  0  -0.647321  0  1.978039  0  0  -0.579753  0  2.21932  0  0  -0.608586  0  2.209158  0  0  -0.341281  -0.558679  0  2.226997  0
O  O108  1  0.37967401  0.29196523  0.30652200  1  0  -0.637499  0  1.927833  0  0  -0.587277  0  2.154819  0  0  -0.612806  0  2.145847  0  0  -0.341639  -0.568605  0  2.1597  0
O  O109  1  0.62033701  0.70803585  0.69347335  1  0  -0.637739  0  1.927608  0  0  -0.587515  0  2.154582  0  0  -0.613048  0  2.145598  0  0  -0.341778  -0.568846  0  2.159466  0
O  O110  1  0.20310831  0.08239514  0.27826719  1  0  -0.650377  0  1.9379  0  0  -0.587345  0  2.17787  0  0  -0.614917  0  2.167327  0  0  -0.345744  -0.566917  0  2.185564  0
O  O111  1  0.79688366  0.91760835  0.72171899  1  0  -0.650529  0  1.937851  0  0  -0.587544  0  2.177879  0  0  -0.615099  0  2.167298  0  0  -0.345801  -0.567121  0  2.18559  0
O  O112  1  0.40074067  0.72301005  0.17130110  1  0  -0.512023  0  2.079271  0  0  -0.469156  0  2.272431  0  0  -0.484905  0  2.264423  0  0  -0.355837  -0.457768  0  2.277235  0
O  O113  1  0.59924855  0.27697962  0.82870043  1  0  -0.51201  0  2.079296  0  0  -0.469055  0  2.272521  0  0  -0.484801  0  2.264509  0  0  -0.355804  -0.457667  0  2.277322  0
