# generated using pymatgen
data_ZnH16C8(N5O3)2
_symmetry_space_group_name_H-M   'P 1'
_cell_length_a   6.37473787
_cell_length_b   7.77272744
_cell_length_c   8.39115451
_cell_angle_alpha   113.53577637
_cell_angle_beta   106.27335903
_cell_angle_gamma   93.53573824
_symmetry_Int_Tables_number   1
_chemical_formula_structural   ZnH16C8(N5O3)2
_chemical_formula_sum   'Zn1 H16 C8 N10 O6'
_cell_volume   358.72749452
_cell_formula_units_Z   1
loop_
 _symmetry_equiv_pos_site_id
 _symmetry_equiv_pos_as_xyz
  1  'x, y, z'
loop_
 _atom_site_type_symbol
 _atom_site_label
 _atom_site_symmetry_multiplicity
 _atom_site_fract_x
 _atom_site_fract_y
 _atom_site_fract_z
 _atom_site_occupancy
 _atom_site_hle17_bader_spin_density
 _atom_site_hle17_ddec_charge
 _atom_site_hle17_ddec_spin_density
 _atom_site_hle17_ddec_sum_bond_order
 _atom_site_hle17_magmom
 _atom_site_hse06_10hf_bader_spin_density
 _atom_site_hse06_10hf_ddec_charge
 _atom_site_hse06_10hf_ddec_spin_density
 _atom_site_hse06_10hf_ddec_sum_bond_order
 _atom_site_hse06_10hf_magmom
 _atom_site_hse06_bader_spin_density
 _atom_site_hse06_ddec_charge
 _atom_site_hse06_ddec_spin_density
 _atom_site_hse06_ddec_sum_bond_order
 _atom_site_hse06_magmom
 _atom_site_pbe_bader_spin_density
 _atom_site_pbe_cm5_charge
 _atom_site_pbe_ddec_charge
 _atom_site_pbe_ddec_spin_density
 _atom_site_pbe_ddec_sum_bond_order
 _atom_site_pbe_magmom
Zn  Zn0  1  0.50000098  0.50000042  0.00000083  1  0  1.122374  0  1.771275  0  0  0.957665  0  2.214054  0  0  1.001509  0  2.16109  0  0  0.69085  0.927019  0  2.250274  0
H  H1  1  0.29691143  0.81769324  0.10409743  1  0  0.433148  0  0.866904  0  0  0.398946  0  0.935778  0  0  0.410121  0  0.919568  0  0  0.292306  0.391087  0  0.94716  0
H  H2  1  0.70309099  0.18230685  0.89590254  1  0  0.433128  0  0.866935  0  0  0.398914  0  0.93583  0  0  0.410088  0  0.919622  0  0  0.2923  0.391055  0  0.947211  0
H  H3  1  0.17490097  0.64694325  0.12758491  1  0  0.400046  0  0.899851  0  0  0.358767  0  0.99301  0  0  0.368812  0  0.978125  0  0  0.297136  0.351621  0  1.003585  0
H  H4  1  0.82509854  0.35305829  0.87241375  1  0  0.400003  0  0.899873  0  0  0.358721  0  0.99307  0  0  0.368767  0  0.978183  0  0  0.297124  0.351575  0  1.003645  0
H  H5  1  0.46574062  0.68494905  0.42679406  1  0  0.342069  0  0.913261  0  0  0.315243  0  0.995  0  0  0.323062  0  0.987696  0  0  0.30506  0.309955  0  0.999811  0
H  H6  1  0.53425522  0.31505119  0.57321047  1  0  0.342131  0  0.913142  0  0  0.315259  0  0.994902  0  0  0.323084  0  0.987601  0  0  0.305104  0.309968  0  0.999715  0
H  H7  1  0.66045086  0.79646934  0.65041322  1  0  0.349516  0  0.919916  0  0  0.323179  0  0.992806  0  0  0.333001  0  0.983862  0  0  0.296282  0.316201  0  0.999184  0
H  H8  1  0.33954336  0.20353089  0.34958977  1  0  0.349599  0  0.919805  0  0  0.323228  0  0.992752  0  0  0.333059  0  0.983798  0  0  0.296318  0.31625  0  0.999133  0
H  H9  1  0.27179368  0.74502321  0.75854620  1  0  0.096211  0  0.935874  0  0  0.106512  0  1.004577  0  0  0.107882  0  1.003996  0  0  0.118827  0.10539  0  1.005167  0
H  H10  1  0.72819930  0.25497840  0.24145224  1  0  0.096129  0  0.935862  0  0  0.106454  0  1.004552  0  0  0.107829  0  1.003963  0  0  0.118798  0.105332  0  1.005143  0
H  H11  1  0.01236545  0.76879967  0.79627609  1  0  0.089972  0  0.934943  0  0  0.100295  0  1.004802  0  0  0.101502  0  1.004072  0  0  0.117874  0.099291  0  1.005499  0
H  H12  1  0.98763961  0.23120473  0.20372839  1  0  0.089936  0  0.934884  0  0  0.100253  0  1.00478  0  0  0.101465  0  1.004043  0  0  0.117857  0.09925  0  1.005477  0
H  H13  1  0.03858852  0.08201932  0.76701609  1  0  0.110279  0  0.942922  0  0  0.123355  0  1.005004  0  0  0.125199  0  1.004948  0  0  0.104047  0.122043  0  1.0051  0
H  H14  1  0.96141458  0.91798365  0.23298625  1  0  0.110298  0  0.942912  0  0  0.123363  0  1.005005  0  0  0.125204  0  1.004949  0  0  0.104045  0.122047  0  1.0051  0
H  H15  1  0.30468006  0.06103346  0.74622338  1  0  0.117648  0  0.938524  0  0  0.132452  0  0.997861  0  0  0.13465  0  0.997281  0  0  0.105271  0.130843  0  0.998446  0
H  H16  1  0.69531876  0.93896522  0.25377410  1  0  0.117621  0  0.938471  0  0  0.132411  0  0.997831  0  0  0.134604  0  0.997255  0  0  0.105272  0.130802  0  0.998419  0
C  C17  1  0.78879387  0.68442530  0.43706028  1  0  0.546207  0  3.810895  0  0  0.483579  0  4.100407  0  0  0.5082  0  4.109121  0  0  0.354308  0.467241  0  4.094038  0
C  C18  1  0.21122220  0.31556303  0.56292654  1  0  0.546216  0  3.811389  0  0  0.483562  0  4.100901  0  0  0.50818  0  4.109622  0  0  0.354388  0.467225  0  4.094524  0
C  C19  1  0.12446948  0.80876523  0.73345786  1  0  0.019188  0  3.626935  0  0  -0.049314  0  3.893281  0  0  -0.043805  0  3.9025  0  0  -0.055797  -0.052872  0  3.887081  0
C  C20  1  0.87553289  0.19123492  0.26654689  1  0  0.019258  0  3.626847  0  0  -0.049255  0  3.893151  0  0  -0.043761  0  3.902384  0  0  -0.0558  -0.05279  0  3.886903  0
C  C21  1  0.18765990  0.02472228  0.80742177  1  0  -0.304343  0  3.682914  0  0  -0.3457  0  3.938619  0  0  -0.352413  0  3.946687  0  0  -0.172198  -0.341179  0  3.933094  0
C  C22  1  0.81234118  0.97527202  0.19257106  1  0  -0.304437  0  3.683078  0  0  -0.345756  0  3.938741  0  0  -0.352456  0  3.946793  0  0  -0.172253  -0.341235  0  3.933223  0
C  C23  1  0.28843733  0.13108702  0.01623190  1  0  0.724624  0  3.814999  0  0  0.672895  0  4.120041  0  0  0.706885  0  4.111458  0  0  0.214181  0.649858  0  4.125106  0
C  C24  1  0.71157197  0.86891442  0.98376888  1  0  0.724685  0  3.814809  0  0  0.672993  0  4.1198  0  0  0.706975  0  4.111219  0  0  0.214207  0.649955  0  4.124865  0
N  N25  1  0.62782250  0.72066481  0.50969929  1  0  -0.672971  0  3.126242  0  0  -0.641271  0  3.382457  0  0  -0.661661  0  3.37494  0  0  -0.568449  -0.627288  0  3.387134  0
N  N26  1  0.37215465  0.27933282  0.49030736  1  0  -0.672991  0  3.127097  0  0  -0.641158  0  3.383339  0  0  -0.661559  0  3.3758  0  0  -0.568455  -0.627177  0  3.388012  0
N  N27  1  0.01061921  0.72099564  0.53490875  1  0  -0.085808  0  3.451265  0  0  -0.002227  0  3.68999  0  0  -0.018473  0  3.711984  0  0  -0.135506  0.008394  0  3.674995  0
N  N28  1  0.98937536  0.27900603  0.46509482  1  0  -0.085796  0  3.451143  0  0  -0.002192  0  3.689893  0  0  -0.018436  0  3.711895  0  0  -0.135484  0.008427  0  3.674898  0
N  N29  1  0.12631735  0.67061305  0.41494828  1  0  -0.099214  0  2.924766  0  0  -0.097296  0  3.207528  0  0  -0.094381  0  3.215412  0  0  -0.077259  -0.09915  0  3.202025  0
N  N30  1  0.87367724  0.32938858  0.58505290  1  0  -0.099235  0  2.924509  0  0  -0.097405  0  3.20738  0  0  -0.094496  0  3.215273  0  0  -0.077301  -0.099253  0  3.201872  0
N  N31  1  0.98206727  0.60253075  0.25122090  1  0  -0.064186  0  3.103083  0  0  -0.049779  0  3.401249  0  0  -0.046198  0  3.409034  0  0  -0.079267  -0.051905  0  3.395927  0
N  N32  1  0.01792894  0.39747088  0.74878183  1  0  -0.064072  0  3.102868  0  0  -0.049622  0  3.401024  0  0  -0.04604  0  3.40881  0  0  -0.079267  -0.051753  0  3.395699  0
N  N33  1  0.77184020  0.60658225  0.25666276  1  0  -0.413048  0  3.113329  0  0  -0.353823  0  3.410537  0  0  -0.374964  0  3.420668  0  0  -0.235899  -0.339805  0  3.403488  0
N  N34  1  0.22814721  0.39341654  0.74333225  1  0  -0.413167  0  3.112961  0  0  -0.353949  0  3.410206  0  0  -0.37509  0  3.420332  0  0  -0.235912  -0.339932  0  3.403166  0
O  O35  1  0.36453878  0.31024172  0.08859280  1  0  -0.659653  0  2.005139  0  0  -0.598843  0  2.271753  0  0  -0.625972  0  2.25931  0  0  -0.332479  -0.579913  0  2.27953  0
O  O36  1  0.63546828  0.68976408  0.91141143  1  0  -0.659617  0  2.005013  0  0  -0.598842  0  2.271641  0  0  -0.625962  0  2.259187  0  0  -0.332481  -0.579911  0  2.279422  0
O  O37  1  0.28788435  0.03951953  0.11289151  1  0  -0.657293  0  1.974498  0  0  -0.581203  0  2.187357  0  0  -0.607977  0  2.178987  0  0  -0.315527  -0.562565  0  2.19238  0
O  O38  1  0.71212824  0.96048184  0.88710638  1  0  -0.657332  0  1.974302  0  0  -0.581235  0  2.187104  0  0  -0.607995  0  2.178738  0  0  -0.315531  -0.562603  0  2.192139  0
O  O39  1  0.31834062  0.70308195  0.12814621  1  0  -0.833582  0  1.950058  0  0  -0.774614  0  2.178222  0  0  -0.794246  0  2.143636  0  0  -0.578351  -0.760776  0  2.202222  0
O  O40  1  0.68165855  0.29691816  0.87185185  1  0  -0.833538  0  1.950064  0  0  -0.774559  0  2.178252  0  0  -0.794191  0  2.143666  0  0  -0.578339  -0.760721  0  2.202252  0
