# generated using pymatgen
data_ZnH8C14O5
_symmetry_space_group_name_H-M   'P 1'
_cell_length_a   7.37544842
_cell_length_b   10.52325993
_cell_length_c   15.72246492
_cell_angle_alpha   89.99967828
_cell_angle_beta   89.99992500
_cell_angle_gamma   103.19930186
_symmetry_Int_Tables_number   1
_chemical_formula_structural   ZnH8C14O5
_chemical_formula_sum   'Zn4 H32 C56 O20'
_cell_volume   1188.04189977
_cell_formula_units_Z   4
loop_
 _symmetry_equiv_pos_site_id
 _symmetry_equiv_pos_as_xyz
  1  'x, y, z'
loop_
 _atom_site_type_symbol
 _atom_site_label
 _atom_site_symmetry_multiplicity
 _atom_site_fract_x
 _atom_site_fract_y
 _atom_site_fract_z
 _atom_site_occupancy
 _atom_site_hle17_bader_spin_density
 _atom_site_hle17_ddec_charge
 _atom_site_hle17_ddec_spin_density
 _atom_site_hle17_ddec_sum_bond_order
 _atom_site_hle17_magmom
 _atom_site_hse06_10hf_bader_spin_density
 _atom_site_hse06_10hf_ddec_charge
 _atom_site_hse06_10hf_ddec_spin_density
 _atom_site_hse06_10hf_ddec_sum_bond_order
 _atom_site_hse06_10hf_magmom
 _atom_site_hse06_bader_spin_density
 _atom_site_hse06_ddec_charge
 _atom_site_hse06_ddec_spin_density
 _atom_site_hse06_ddec_sum_bond_order
 _atom_site_hse06_magmom
 _atom_site_pbe_bader_spin_density
 _atom_site_pbe_cm5_charge
 _atom_site_pbe_ddec_charge
 _atom_site_pbe_ddec_spin_density
 _atom_site_pbe_ddec_sum_bond_order
 _atom_site_pbe_magmom
Zn  Zn0  1  0.73632651  0.44879562  0.96239511  1  0  1.201767  0  1.714741  0  0  1.032391  0  2.194883  0  0  1.080846  0  2.129404  0  0  0.715899  0.998103  0  2.240482  0
Zn  Zn1  1  0.23632675  0.94879657  0.53760597  1  0  1.201771  0  1.714782  0  0  1.032366  0  2.194941  0  0  1.08082  0  2.12946  0  0  0.715906  0.998073  0  2.240541  0
Zn  Zn2  1  0.26367358  0.55120904  0.03760432  1  0  1.201868  0  1.714759  0  0  1.032411  0  2.194911  0  0  1.080875  0  2.12943  0  0  0.715913  0.998119  0  2.240504  0
Zn  Zn3  1  0.76367742  0.05120811  0.46239346  1  0  1.201774  0  1.714761  0  0  1.032391  0  2.1949  0  0  1.080845  0  2.12942  0  0  0.715918  0.998098  0  2.240505  0
H  H4  1  0.18718727  0.64523199  0.84139416  1  0  0.106964  0  0.953412  0  0  0.112186  0  1.020753  0  0  0.116112  0  1.017258  0  0  0.105192  0.10937  0  1.023267  0
H  H5  1  0.68717640  0.14522898  0.65860490  1  0  0.106936  0  0.95342  0  0  0.112228  0  1.020683  0  0  0.116159  0  1.017179  0  0  0.105216  0.109412  0  1.023198  0
H  H6  1  0.81281638  0.35476683  0.15860527  1  0  0.106942  0  0.953542  0  0  0.112215  0  1.020822  0  0  0.116141  0  1.017328  0  0  0.105211  0.109398  0  1.023334  0
H  H7  1  0.31282317  0.85476983  0.34139516  1  0  0.106952  0  0.953499  0  0  0.112244  0  1.020749  0  0  0.116176  0  1.017244  0  0  0.105214  0.109424  0  1.023268  0
H  H8  1  0.93437603  0.60819442  0.73386125  1  0  0.111302  0  0.963214  0  0  0.122793  0  1.020125  0  0  0.125872  0  1.019338  0  0  0.105575  0.120587  0  1.020831  0
H  H9  1  0.43436998  0.10819056  0.76614035  1  0  0.111297  0  0.963211  0  0  0.122785  0  1.020127  0  0  0.125862  0  1.019346  0  0  0.105567  0.12058  0  1.020829  0
H  H10  1  0.06562082  0.39180438  0.26614072  1  0  0.111293  0  0.963225  0  0  0.122757  0  1.020166  0  0  0.125834  0  1.019383  0  0  0.105575  0.120569  0  1.020849  0
H  H11  1  0.56563366  0.89180826  0.23386098  1  0  0.11133  0  0.96323  0  0  0.122827  0  1.020124  0  0  0.125904  0  1.019338  0  0  0.105589  0.120619  0  1.020833  0
H  H12  1  0.06399484  0.24338863  0.66378285  1  0  0.124472  0  0.959683  0  0  0.13464  0  1.017995  0  0  0.137659  0  1.017305  0  0  0.108066  0.132465  0  1.018713  0
H  H13  1  0.56399402  0.74338468  0.83621910  1  0  0.124521  0  0.959604  0  0  0.134711  0  1.017871  0  0  0.137741  0  1.017182  0  0  0.108079  0.132538  0  1.018585  0
H  H14  1  0.93599252  0.75661015  0.33621530  1  0  0.124386  0  0.959706  0  0  0.134581  0  1.017977  0  0  0.137609  0  1.017286  0  0  0.107962  0.132405  0  1.018696  0
H  H15  1  0.43600659  0.25661316  0.16378096  1  0  0.124458  0  0.959699  0  0  0.134668  0  1.017941  0  0  0.137695  0  1.017251  0  0  0.108069  0.13249  0  1.018656  0
H  H16  1  0.31997832  0.28148734  0.77252392  1  0  0.094984  0  0.951777  0  0  0.106161  0  1.011625  0  0  0.109042  0  1.009402  0  0  0.106023  0.104078  0  1.013281  0
H  H17  1  0.81997471  0.78148636  0.72747582  1  0  0.094996  0  0.951778  0  0  0.106142  0  1.011654  0  0  0.109025  0  1.009426  0  0  0.106019  0.10406  0  1.013308  0
H  H18  1  0.68001624  0.71850853  0.22747169  1  0  0.095035  0  0.951783  0  0  0.106236  0  1.011628  0  0  0.109132  0  1.009366  0  0  0.106051  0.104152  0  1.013284  0
H  H19  1  0.18002486  0.21851246  0.27252296  1  0  0.094997  0  0.9518  0  0  0.106133  0  1.011694  0  0  0.109014  0  1.009471  0  0  0.106027  0.104045  0  1.013357  0
H  H20  1  0.01185115  0.60102986  0.53996446  1  0  0.121889  0  0.946393  0  0  0.129817  0  1.009542  0  0  0.133529  0  1.007734  0  0  0.108689  0.127171  0  1.010988  0
H  H21  1  0.51184383  0.10102794  0.96003233  1  0  0.121885  0  0.946377  0  0  0.129837  0  1.009488  0  0  0.133548  0  1.00768  0  0  0.108699  0.127191  0  1.010932  0
H  H22  1  0.98814550  0.39896407  0.46003369  1  0  0.121914  0  0.946335  0  0  0.129847  0  1.009478  0  0  0.13356  0  1.007669  0  0  0.108662  0.127199  0  1.010927  0
H  H23  1  0.48814927  0.89897183  0.03996837  1  0  0.121868  0  0.946246  0  0  0.129821  0  1.009376  0  0  0.133534  0  1.007565  0  0  0.108674  0.127175  0  1.010817  0
H  H24  1  0.85389151  0.76973659  0.48554812  1  0  0.102158  0  0.993869  0  0  0.109447  0  1.060143  0  0  0.112792  0  1.057392  0  0  0.101451  0.107024  0  1.062207  0
H  H25  1  0.35388935  0.26973412  0.01445069  1  0  0.102154  0  0.993814  0  0  0.109395  0  1.060135  0  0  0.112735  0  1.057395  0  0  0.101442  0.106976  0  1.062192  0
H  H26  1  0.14611109  0.23026321  0.51445321  1  0  0.102118  0  0.993859  0  0  0.109407  0  1.060133  0  0  0.112752  0  1.057387  0  0  0.101441  0.106986  0  1.062197  0
H  H27  1  0.64611054  0.73026567  0.98554937  1  0  0.102154  0  0.993835  0  0  0.109396  0  1.060149  0  0  0.112736  0  1.05741  0  0  0.101446  0.106977  0  1.06221  0
H  H28  1  0.35235038  0.58470278  0.61835286  1  0  0.098543  0  0.954668  0  0  0.105876  0  1.020593  0  0  0.108276  0  1.02015  0  0  0.103301  0.104153  0  1.020968  0
H  H29  1  0.85234697  0.08469966  0.88165269  1  0  0.098476  0  0.954817  0  0  0.105833  0  1.020719  0  0  0.108233  0  1.020277  0  0  0.103237  0.10411  0  1.021095  0
H  H30  1  0.64765002  0.41530286  0.38164847  1  0  0.09855  0  0.954746  0  0  0.105895  0  1.020657  0  0  0.108296  0  1.020214  0  0  0.103291  0.104169  0  1.02103  0
H  H31  1  0.14765395  0.91529916  0.11835119  1  0  0.098579  0  0.954691  0  0  0.105878  0  1.020657  0  0  0.108279  0  1.020214  0  0  0.103284  0.104153  0  1.021027  0
H  H32  1  0.50641990  0.40864575  0.66679720  1  0  0.115412  0  0.96321  0  0  0.126102  0  1.022517  0  0  0.129227  0  1.021424  0  0  0.105695  0.123836  0  1.023505  0
H  H33  1  0.00641129  0.90864293  0.83320289  1  0  0.115448  0  0.963205  0  0  0.126127  0  1.022527  0  0  0.129246  0  1.021439  0  0  0.105687  0.12386  0  1.023516  0
H  H34  1  0.49357622  0.59135501  0.33320159  1  0  0.11541  0  0.963269  0  0  0.126166  0  1.022507  0  0  0.129271  0  1.021436  0  0  0.1057  0.123898  0  1.023495  0
H  H35  1  0.99358587  0.09135685  0.16679590  1  0  0.115499  0  0.963222  0  0  0.126192  0  1.022507  0  0  0.12931  0  1.021419  0  0  0.105722  0.123929  0  1.023493  0
C  C36  1  0.42562390  0.49171103  0.87500742  1  0  0.667938  0  3.88164  0  0  0.615104  0  4.17328  0  0  0.650985  0  4.165665  0  0  0.218632  0.590463  0  4.177989  0
C  C37  1  0.92561619  0.99170904  0.62499274  1  0  0.66804  0  3.881618  0  0  0.615182  0  4.173266  0  0  0.651066  0  4.165648  0  0  0.218597  0.590542  0  4.177979  0
C  C38  1  0.57437870  0.50828877  0.12498818  1  0  0.667909  0  3.881531  0  0  0.615128  0  4.173089  0  0  0.651013  0  4.165469  0  0  0.218576  0.590487  0  4.177806  0
C  C39  1  0.07438609  0.00828978  0.37500732  1  0  0.667993  0  3.881725  0  0  0.615172  0  4.173313  0  0  0.651059  0  4.165693  0  0  0.218554  0.590529  0  4.178033  0
C  C40  1  0.27121511  0.46613284  0.81301088  1  0  -0.124467  0  3.811161  0  0  -0.10561  0  4.053247  0  0  -0.118551  0  4.079572  0  0  -0.036102  -0.09712  0  4.035564  0
C  C41  1  0.77120870  0.96613126  0.68698884  1  0  -0.124468  0  3.811203  0  0  -0.105616  0  4.053303  0  0  -0.118556  0  4.079626  0  0  -0.036072  -0.09713  0  4.035627  0
C  C42  1  0.72878520  0.53386402  0.18698727  1  0  -0.124384  0  3.811095  0  0  -0.105558  0  4.05318  0  0  -0.118498  0  4.079504  0  0  -0.036085  -0.097073  0  4.0355  0
C  C43  1  0.22879191  0.03386658  0.31301058  1  0  -0.124427  0  3.811122  0  0  -0.105539  0  4.053142  0  0  -0.118481  0  4.079464  0  0  -0.036033  -0.097055  0  4.035463  0
C  C44  1  0.16020424  0.55707758  0.80269747  1  0  -0.029669  0  3.732312  0  0  -0.053221  0  3.982931  0  0  -0.049104  0  4.001088  0  0  -0.078332  -0.055723  0  3.970628  0
C  C45  1  0.66019754  0.05707520  0.69730130  1  0  -0.029685  0  3.732246  0  0  -0.053309  0  3.982902  0  0  -0.049192  0  4.00106  0  0  -0.078369  -0.055807  0  3.970596  0
C  C46  1  0.83979366  0.44292025  0.19730004  1  0  -0.029669  0  3.732406  0  0  -0.053277  0  3.983032  0  0  -0.049162  0  4.001187  0  0  -0.078341  -0.055785  0  3.970735  0
C  C47  1  0.33980444  0.94292265  0.30269876  1  0  -0.029712  0  3.732293  0  0  -0.053329  0  3.982902  0  0  -0.049213  0  4.001058  0  0  -0.078399  -0.05583  0  3.970598  0
C  C48  1  0.01845297  0.53668745  0.74256194  1  0  -0.19417  0  3.741899  0  0  -0.211306  0  3.987995  0  0  -0.218726  0  4.007163  0  0  -0.102325  -0.206433  0  3.975107  0
C  C49  1  0.51844831  0.03668353  0.75743826  1  0  -0.194107  0  3.741804  0  0  -0.211232  0  3.987937  0  0  -0.218655  0  4.007105  0  0  -0.102308  -0.206353  0  3.975043  0
C  C50  1  0.98154253  0.46331135  0.25743748  1  0  -0.194103  0  3.741828  0  0  -0.211192  0  3.987957  0  0  -0.21861  0  4.007127  0  0  -0.102309  -0.206333  0  3.975054  0
C  C51  1  0.48155502  0.96331432  0.24256243  1  0  -0.194217  0  3.741879  0  0  -0.211366  0  3.988016  0  0  -0.218789  0  4.007189  0  0  -0.102328  -0.206493  0  3.975126  0
C  C52  1  0.98579272  0.42337125  0.69279422  1  0  0.302995  0  3.765519  0  0  0.291621  0  4.025491  0  0  0.305278  0  4.039327  0  0  0.098817  0.282344  0  4.015917  0
C  C53  1  0.48578938  0.92336772  0.80720807  1  0  0.302967  0  3.76556  0  0  0.29154  0  4.02558  0  0  0.305205  0  4.039417  0  0  0.098796  0.282268  0  4.016013  0
C  C54  1  0.01419902  0.57662851  0.30720583  1  0  0.303001  0  3.765475  0  0  0.291573  0  4.025524  0  0  0.30523  0  4.039364  0  0  0.098839  0.282283  0  4.01595  0
C  C55  1  0.51421155  0.07663110  0.19279326  1  0  0.303099  0  3.765422  0  0  0.291687  0  4.025432  0  0  0.305346  0  4.039268  0  0  0.098848  0.282423  0  4.015854  0
C  C56  1  0.09286191  0.33022027  0.70352899  1  0  -0.179209  0  3.705806  0  0  -0.19952  0  3.959357  0  0  -0.207012  0  3.978935  0  0  -0.098455  -0.194638  0  3.94627  0
C  C57  1  0.59286133  0.83021670  0.79647198  1  0  -0.179307  0  3.705816  0  0  -0.199619  0  3.959344  0  0  -0.207127  0  3.97893  0  0  -0.098498  -0.194733  0  3.946246  0
C  C58  1  0.90712638  0.66978144  0.29646789  1  0  -0.179185  0  3.705787  0  0  -0.199489  0  3.959311  0  0  -0.206996  0  3.978902  0  0  -0.098444  -0.194612  0  3.946216  0
C  C59  1  0.40714095  0.16978212  0.20352744  1  0  -0.179245  0  3.705815  0  0  -0.19957  0  3.959334  0  0  -0.207073  0  3.978917  0  0  -0.098482  -0.194688  0  3.946231  0
C  C60  1  0.23480212  0.35234771  0.76318812  1  0  -0.033439  0  3.76024  0  0  -0.056084  0  4.009962  0  0  -0.052043  0  4.028936  0  0  -0.077546  -0.058519  0  3.996978  0
C  C61  1  0.73479949  0.85234566  0.73681268  1  0  -0.033383  0  3.760308  0  0  -0.055995  0  4.010003  0  0  -0.051952  0  4.028978  0  0  -0.0775  -0.058429  0  3.99702  0
C  C62  1  0.76519202  0.64765109  0.23680812  1  0  -0.033511  0  3.760287  0  0  -0.056185  0  4.009993  0  0  -0.052139  0  4.02897  0  0  -0.077544  -0.058614  0  3.997004  0
C  C63  1  0.26520112  0.14765218  0.26318675  1  0  -0.033405  0  3.760277  0  0  -0.056039  0  4.00999  0  0  -0.051996  0  4.028964  0  0  -0.077523  -0.058467  0  3.997002  0
C  C64  1  0.76568300  0.49546866  0.60576582  1  0  0.271148  0  3.788942  0  0  0.261806  0  4.05115  0  0  0.27264  0  4.066887  0  0  0.086896  0.25442  0  4.040374  0
C  C65  1  0.26567841  0.99546626  0.89423506  1  0  0.271266  0  3.78898  0  0  0.261888  0  4.051212  0  0  0.272732  0  4.066947  0  0  0.086966  0.254519  0  4.040425  0
C  C66  1  0.23431250  0.50453014  0.39423551  1  0  0.271132  0  3.789009  0  0  0.261872  0  4.051121  0  0  0.272708  0  4.066855  0  0  0.086956  0.25447  0  4.040348  0
C  C67  1  0.73432450  0.00453452  0.10576627  1  0  0.271177  0  3.789078  0  0  0.261829  0  4.051275  0  0  0.272665  0  4.067014  0  0  0.086909  0.254451  0  4.040501  0
C  C68  1  0.86637553  0.59625447  0.55524044  1  0  -0.177295  0  3.729564  0  0  -0.199095  0  3.987138  0  0  -0.20518  0  4.006204  0  0  -0.095928  -0.195172  0  3.974491  0
C  C69  1  0.36637270  0.09625383  0.94475742  1  0  -0.177274  0  3.729713  0  0  -0.199085  0  3.98728  0  0  -0.205164  0  4.006328  0  0  -0.095942  -0.195162  0  3.974625  0
C  C70  1  0.13362373  0.40374336  0.44475898  1  0  -0.177301  0  3.729614  0  0  -0.199123  0  3.987154  0  0  -0.205204  0  4.006205  0  0  -0.095939  -0.195199  0  3.974519  0
C  C71  1  0.63362854  0.90374596  0.05524327  1  0  -0.177166  0  3.729565  0  0  -0.198993  0  3.987116  0  0  -0.205073  0  4.006165  0  0  -0.095872  -0.195062  0  3.974457  0
C  C72  1  0.77810580  0.69114272  0.52570739  1  0  -0.03963  0  3.726293  0  0  -0.065097  0  3.975799  0  0  -0.063651  0  3.997392  0  0  -0.083141  -0.065951  0  3.961203  0
C  C73  1  0.27810050  0.19113887  0.97429144  1  0  -0.03968  0  3.726384  0  0  -0.065134  0  3.975911  0  0  -0.063684  0  3.997504  0  0  -0.083167  -0.066003  0  3.961346  0
C  C74  1  0.22189878  0.30885903  0.47429394  1  0  -0.039583  0  3.726317  0  0  -0.065046  0  3.975797  0  0  -0.0636  0  3.997395  0  0  -0.083112  -0.065909  0  3.961212  0
C  C75  1  0.72190043  0.80885995  0.02570861  1  0  -0.039724  0  3.72645  0  0  -0.065172  0  3.975998  0  0  -0.063721  0  3.997592  0  0  -0.083169  -0.066053  0  3.961455  0
C  C76  1  0.59358660  0.68834816  0.54884759  1  0  -0.104581  0  3.784544  0  0  -0.081779  0  4.017556  0  0  -0.093919  0  4.04411  0  0  -0.026625  -0.073601  0  3.999509  0
C  C77  1  0.09358280  0.18834453  0.95115200  1  0  -0.104607  0  3.784504  0  0  -0.081763  0  4.017424  0  0  -0.093899  0  4.043983  0  0  -0.026646  -0.073588  0  3.999381  0
C  C78  1  0.40641620  0.31165651  0.45115438  1  0  -0.10459  0  3.784497  0  0  -0.081776  0  4.017482  0  0  -0.093912  0  4.044039  0  0  -0.026631  -0.073605  0  3.999444  0
C  C79  1  0.90641542  0.81165428  0.04884678  1  0  -0.104521  0  3.784519  0  0  -0.081737  0  4.017497  0  0  -0.093872  0  4.044049  0  0  -0.02662  -0.073566  0  3.999456  0
C  C80  1  0.50708702  0.79635052  0.52176578  1  0  0.690178  0  3.86246  0  0  0.637708  0  4.152057  0  0  0.673912  0  4.143769  0  0  0.226429  0.612796  0  4.157408  0
C  C81  1  0.00707972  0.29634467  0.97823982  1  0  0.690368  0  3.862173  0  0  0.637932  0  4.1517  0  0  0.674124  0  4.143425  0  0  0.226609  0.613025  0  4.157052  0
C  C82  1  0.49291850  0.20365416  0.47823873  1  0  0.690372  0  3.861973  0  0  0.637924  0  4.151554  0  0  0.674116  0  4.143275  0  0  0.226612  0.613016  0  4.156906  0
C  C83  1  0.99291943  0.70365707  0.02176278  1  0  0.6905  0  3.862236  0  0  0.638041  0  4.151762  0  0  0.674243  0  4.14348  0  0  0.226646  0.613126  0  4.157123  0
C  C84  1  0.49520905  0.58642512  0.59997465  1  0  -0.027335  0  3.72272  0  0  -0.051439  0  3.972549  0  0  -0.049202  0  3.994381  0  0  -0.074535  -0.052533  0  3.957391  0
C  C85  1  0.99520010  0.08642181  0.90002762  1  0  -0.027289  0  3.722815  0  0  -0.051418  0  3.9726  0  0  -0.049183  0  3.994436  0  0  -0.074449  -0.052512  0  3.957446  0
C  C86  1  0.50479135  0.41358052  0.40002732  1  0  -0.027313  0  3.722713  0  0  -0.051439  0  3.972552  0  0  -0.049204  0  3.994382  0  0  -0.074482  -0.052524  0  3.957383  0
C  C87  1  0.00479571  0.91357797  0.09997307  1  0  -0.027399  0  3.722749  0  0  -0.051492  0  3.97259  0  0  -0.049255  0  3.994423  0  0  -0.074495  -0.052569  0  3.957417  0
C  C88  1  0.58060619  0.48881185  0.62751629  1  0  -0.171811  0  3.734652  0  0  -0.195352  0  3.98858  0  0  -0.202032  0  4.009211  0  0  -0.095779  -0.190799  0  3.974547  0
C  C89  1  0.08059693  0.98881159  0.87248473  1  0  -0.171869  0  3.734698  0  0  -0.195411  0  3.988647  0  0  -0.202085  0  4.009282  0  0  -0.095813  -0.190851  0  3.974605  0
C  C90  1  0.41939161  0.51118988  0.37248377  1  0  -0.171864  0  3.734749  0  0  -0.195483  0  3.988633  0  0  -0.20215  0  4.009279  0  0  -0.095848  -0.190933  0  3.974602  0
C  C91  1  0.91940087  0.01119014  0.12751533  1  0  -0.171952  0  3.734809  0  0  -0.1955  0  3.988726  0  0  -0.202176  0  4.009365  0  0  -0.09587  -0.190952  0  3.974689  0
O  O92  1  0.55863942  0.43318911  0.86581937  1  0  -0.619356  0  2.006443  0  0  -0.546025  0  2.26575  0  0  -0.574363  0  2.250889  0  0  -0.307245  -0.526308  0  2.275543  0
O  O93  1  0.05863668  0.93319012  0.63418060  1  0  -0.619463  0  2.006471  0  0  -0.546076  0  2.265745  0  0  -0.574412  0  2.250881  0  0  -0.307252  -0.526358  0  2.275536  0
O  O94  1  0.44135942  0.56681165  0.13417624  1  0  -0.619314  0  2.006225  0  0  -0.546002  0  2.265539  0  0  -0.574341  0  2.250672  0  0  -0.307192  -0.526284  0  2.275332  0
O  O95  1  0.94136393  0.06680772  0.36582009  1  0  -0.619424  0  2.006539  0  0  -0.546099  0  2.265854  0  0  -0.574438  0  2.250988  0  0  -0.307244  -0.526383  0  2.275653  0
O  O96  1  0.42495909  0.57489369  0.93492090  1  0  -0.69273  0  2.127094  0  0  -0.620715  0  2.413055  0  0  -0.64752  0  2.392724  0  0  -0.328187  -0.601822  0  2.42663  0
O  O97  1  0.92495755  0.07489352  0.56507764  1  0  -0.692791  0  2.127068  0  0  -0.620801  0  2.413068  0  0  -0.647606  0  2.392735  0  0  -0.328193  -0.601907  0  2.426645  0
O  O98  1  0.57504017  0.42510415  0.06507407  1  0  -0.692761  0  2.127265  0  0  -0.620784  0  2.413225  0  0  -0.647592  0  2.392893  0  0  -0.328198  -0.601893  0  2.426807  0
O  O99  1  0.07504640  0.92510628  0.43492369  1  0  -0.692777  0  2.12712  0  0  -0.620772  0  2.413056  0  0  -0.647579  0  2.392726  0  0  -0.328163  -0.601878  0  2.426634  0
O  O100  1  0.59046402  0.87924521  0.46698220  1  0  -0.694472  0  2.099915  0  0  -0.624362  0  2.390417  0  0  -0.652022  0  2.369892  0  0  -0.332833  -0.605111  0  2.404468  0
O  O101  1  0.09047354  0.37924553  0.03301762  1  0  -0.694527  0  2.099748  0  0  -0.624433  0  2.390256  0  0  -0.652086  0  2.369728  0  0  -0.332895  -0.605183  0  2.404307  0
O  O102  1  0.40954025  0.12075556  0.53301976  1  0  -0.694504  0  2.099758  0  0  -0.624426  0  2.39032  0  0  -0.652079  0  2.369794  0  0  -0.332889  -0.605182  0  2.404376  0
O  O103  1  0.90954388  0.62075821  0.96698244  1  0  -0.694529  0  2.09975  0  0  -0.624483  0  2.390282  0  0  -0.652132  0  2.369752  0  0  -0.332952  -0.605234  0  2.404341  0
O  O104  1  0.34928814  0.79954784  0.55454185  1  0  -0.628751  0  2.035053  0  0  -0.552505  0  2.301348  0  0  -0.581021  0  2.284593  0  0  -0.306625  -0.532696  0  2.312559  0
O  O105  1  0.84927298  0.29953824  0.94546925  1  0  -0.628878  0  2.035085  0  0  -0.552663  0  2.301401  0  0  -0.581165  0  2.284618  0  0  -0.306697  -0.532853  0  2.312607  0
O  O106  1  0.65072573  0.20046174  0.44546457  1  0  -0.628895  0  2.034897  0  0  -0.552672  0  2.301216  0  0  -0.581185  0  2.28446  0  0  -0.30675  -0.532858  0  2.312422  0
O  O107  1  0.15072649  0.70046448  0.05453335  1  0  -0.629168  0  2.035293  0  0  -0.552739  0  2.301383  0  0  -0.581286  0  2.284654  0  0  -0.306719  -0.532922  0  2.312586  0
O  O108  1  0.84700509  0.39504208  0.63273440  1  0  -0.29283  0  2.328805  0  0  -0.223512  0  2.551547  0  0  -0.241803  0  2.552658  0  0  -0.147034  -0.210343  0  2.550191  0
O  O109  1  0.34700004  0.89503798  0.86726808  1  0  -0.292823  0  2.328846  0  0  -0.223441  0  2.551576  0  0  -0.241748  0  2.552697  0  0  -0.146995  -0.210303  0  2.55024  0
O  O110  1  0.15298770  0.60495671  0.36726820  1  0  -0.292813  0  2.328729  0  0  -0.223533  0  2.551512  0  0  -0.241822  0  2.552622  0  0  -0.147026  -0.210322  0  2.550123  0
O  O111  1  0.65300225  0.10496084  0.13273261  1  0  -0.292836  0  2.328793  0  0  -0.223476  0  2.551515  0  0  -0.241768  0  2.552629  0  0  -0.147026  -0.210336  0  2.550177  0
