# generated using pymatgen
data_Zn4H32C65(N6O)3
_symmetry_space_group_name_H-M   'P 1'
_cell_length_a   19.16219620
_cell_length_b   20.09151955
_cell_length_c   19.98513794
_cell_angle_alpha   104.14195146
_cell_angle_beta   112.31034469
_cell_angle_gamma   109.61390295
_symmetry_Int_Tables_number   1
_chemical_formula_structural   Zn4H32C65(N6O)3
_chemical_formula_sum   'Zn4 H32 C65 N18 O3'
_cell_volume   6064.50215704
_cell_formula_units_Z   1
loop_
 _symmetry_equiv_pos_site_id
 _symmetry_equiv_pos_as_xyz
  1  'x, y, z'
loop_
 _atom_site_type_symbol
 _atom_site_label
 _atom_site_symmetry_multiplicity
 _atom_site_fract_x
 _atom_site_fract_y
 _atom_site_fract_z
 _atom_site_occupancy
 _atom_site_pbe_bader_charge
 _atom_site_pbe_bader_spin_density
 _atom_site_pbe_cm5_charge
 _atom_site_pbe_ddec_charge
 _atom_site_pbe_ddec_spin_density
 _atom_site_pbe_ddec_sum_bond_order
 _atom_site_pbe_magmom
Zn  Zn0  1  0.11534749  0.50122313  0.11791868  1  1.207759  0  0.770853  0.698638  0  2.223413  0
Zn  Zn1  1  0.89389797  0.50428432  0.88462246  1  1.221817  0  0.775373  0.750288  0  2.176092  0
Zn  Zn2  1  0.89129359  0.39217746  0.99071734  1  1.189568  0  0.745693  0.632842  0  2.393354  0
Zn  Zn3  1  0.11881749  0.60968935  0.01272390  1  1.197662  0  0.74337  0.64069  0  2.40383  0
H  H4  1  0.13987847  0.34921858  0.11304876  1  0.091009  0  0.119629  0.108418  0  0.996974  0
H  H5  1  0.74207892  0.54055191  0.91495387  1  0.112622  0  0.12286  0.112894  0  0.994669  0
H  H6  1  0.85972319  0.51180407  0.10064223  1  0.135224  0  0.12533  0.122125  0  1.003865  0
H  H7  1  0.10872171  0.73319341  0.13896442  1  0.138292  0  0.118355  0.108016  0  1.053206  0
H  H8  1  0.86280403  0.66238323  0.93731894  1  0.109844  0  0.130041  0.12092  0  0.977298  0
H  H9  1  0.09976878  0.54998019  0.28640744  1  0.114865  0  0.129272  0.120722  0  0.978654  0
H  H10  1  0.27245485  0.79164602  0.16352039  1  0.086749  0  0.127503  0.120309  0  0.976321  0
H  H11  1  0.68962578  0.33801545  0.96739136  1  0.108534  0  0.125579  0.118281  0  0.980897  0
H  H12  1  0.87247995  0.57121120  0.52729040  1  0.085726  0  0.110603  0.114371  0  0.981182  0
H  H13  1  0.84356102  0.56457914  0.39322525  1  0.119029  0  0.113365  0.120327  0  0.976566  0
H  H14  1  0.14424487  0.67379790  0.61218655  1  0.07983  0  0.115104  0.125155  0  0.97856  0
H  H15  1  0.38192345  0.88056848  0.53137639  1  0.079144  0  0.109677  0.116884  0  0.983772  0
H  H16  1  0.50092125  0.99708048  0.65704371  1  0.072539  0  0.10593  0.10956  0  0.98969  0
H  H17  1  0.48051016  0.14420203  0.53344567  1  0.067036  0  0.100111  0.099751  0  1.005807  0
H  H18  1  0.36251135  0.02777842  0.40797951  1  0.055275  0  0.103712  0.106369  0  0.993268  0
H  H19  1  0.14824650  0.13164938  0.21313699  1  0.098037  0  0.109577  0.113142  0  0.982233  0
H  H20  1  0.13835673  0.00510137  0.21214863  1  0.094853  0  0.110973  0.116658  0  0.980892  0
H  H21  1  0.87426156  0.01783724  0.05472103  1  0.132018  0  0.115936  0.125988  0  0.976711  0
H  H22  1  0.81057170  0.23218135  0.85594923  1  0.100729  0  0.121392  0.114686  0  0.987563  0
H  H23  1  0.17369567  0.52161118  0.90490493  1  0.07826  0  0.123259  0.117191  0  1.001543  0
H  H24  1  0.26426277  0.45124884  0.09570440  1  0.104946  0  0.126675  0.115202  0  0.982004  0
H  H25  1  0.86645551  0.22975191  0.02425019  1  0.080737  0  0.124801  0.114463  0  0.985039  0
H  H26  1  0.18949652  0.65616539  0.28253285  1  0.10954  0  0.121447  0.111987  0  1.01602  0
H  H27  1  0.87949957  0.38790599  0.66344545  1  0.048251  0  0.102942  0.104766  0  0.975975  0
H  H28  1  0.89539143  0.45599574  0.61935530  1  0.067197  0  0.098349  0.099851  0  1.009123  0
H  H29  1  0.79206436  0.40319309  0.60846482  1  0.097675  0  0.110585  0.118238  0  0.971249  0
H  H30  1  0.60895060  0.33191468  0.72975801  1  0.081165  0  0.106404  0.110301  0  0.98257  0
H  H31  1  0.59821575  0.28030103  0.63632054  1  0.056574  0  0.100277  0.103048  0  1.007611  0
H  H32  1  0.61331246  0.37841425  0.66407371  1  0.068895  0  0.112097  0.11777  0  0.966582  0
H  H33  1  0.20239388  0.71008527  0.80798265  1  0.070966  0  0.103321  0.107071  0  0.987401  0
H  H34  1  0.20763036  0.62111595  0.79977654  1  0.069962  0  0.104877  0.105151  0  0.980827  0
H  H35  1  0.29420685  0.71223013  0.88235898  1  0.07258  0  0.116869  0.12442  0  0.961138  0
C  C36  1  0.07184820  0.33102573  0.08843433  1  0.432882  0  0.014176  -0.048442  0  3.966643  0
C  C37  1  0.03641027  0.58424028  0.77421891  1  0.133681  0  -0.051511  -0.204238  0  4.207795  0
C  C38  1  0.73167154  0.26618178  0.76877403  1  0.160665  0  -0.037042  -0.066523  0  4.191358  0
C  C39  1  0.24132581  0.47708411  0.98775782  1  0.145844  0  -0.0258  0.031307  0  4.204337  0
C  C40  1  0.20331127  0.67620946  0.24110388  1  0.425498  0  0.020947  -0.029446  0  3.938967  0
C  C41  1  0.74250961  0.49124085  0.92793165  1  0.445267  0  0.017447  -0.040784  0  3.967736  0
C  C42  1  0.92163780  0.51613222  0.13576056  1  0.445563  0  0.023274  -0.027257  0  3.905576  0
C  C43  1  0.04878905  0.70357255  0.08259857  1  0.438438  0  0.019085  -0.027157  0  3.916059  0
C  C44  1  0.92255016  0.66739130  0.97940698  1  0.458197  0  0.02882  -0.02682  0  3.92922  0
C  C45  1  0.04481265  0.53530083  0.23057363  1  0.432374  0  0.030229  -0.023812  0  3.932821  0
C  C46  1  0.24690607  0.74640061  0.18115025  1  0.436695  0  0.018817  -0.05002  0  3.955577  0
C  C47  1  0.96470816  0.53494304  0.77669158  1  1.094628  0  0.191391  0.313678  0  4.113484  0
C  C48  1  0.71513781  0.38737881  0.95471184  1  0.41196  0  0.018441  -0.048834  0  3.956979  0
C  C49  1  0.24812052  0.75411730  0.25370165  1  0.112186  0  -0.02568  0.043337  0  4.190217  0
C  C50  1  0.68158015  0.43796988  0.93842341  1  0.114499  0  -0.032753  0.018181  0  4.227975  0
C  C51  1  0.97259713  0.54583451  0.21936629  1  0.091418  0  -0.0235  0.038132  0  4.179622  0
C  C52  1  0.98614924  0.72757656  0.05645115  1  0.077816  0  -0.025028  0.035982  0  4.182153  0
C  C53  1  0.29682548  0.46167007  0.96483436  1  -0.052141  0  -0.030987  -0.06735  0  4.086364  0
C  C54  1  0.35108504  0.45202103  0.95126255  1  -0.171745  0  -0.049652  -0.06215  0  4.347352  0
C  C55  1  0.41342147  0.44452070  0.94050383  1  -0.094218  0  -0.03314  -0.025874  0  4.259045  0
C  C56  1  0.47422182  0.44019328  0.93534195  1  0.012708  0  -0.029388  -0.016629  0  4.25819  0
C  C57  1  0.54234379  0.43757656  0.93328414  1  -0.058552  0  -0.052286  -0.068536  0  4.34406  0
C  C58  1  0.80365849  0.27570791  0.83461294  1  0.438454  0  0.010239  -0.036084  0  3.972154  0
C  C59  1  0.60687101  0.43680761  0.93474012  1  -0.144272  0  -0.028404  -0.057925  0  4.091356  0
C  C60  1  0.90926484  0.58884446  0.44134269  1  -0.046443  0  -0.078521  -0.122478  0  3.976228  0
C  C61  1  0.97648561  0.61265561  0.42469609  1  0.156263  0  0.011501  0.115083  0  4.084709  0
C  C62  1  0.06237162  0.64674430  0.48926864  1  0.071981  0  0.00945  0.019002  0  4.044168  0
C  C63  1  0.07841747  0.65005671  0.56463805  1  -0.003951  0  -0.069146  -0.154862  0  3.899304  0
C  C64  1  0.01000301  0.61994316  0.57839795  1  0.084898  0  -0.001863  0.140873  0  4.143591  0
C  C65  1  0.92545102  0.59224678  0.51613980  1  -0.009801  0  -0.076871  -0.115138  0  3.950732  0
C  C66  1  0.96254156  0.59646343  0.34676081  1  -0.177544  0  -0.053649  -0.133813  0  4.143665  0
C  C67  1  0.02393159  0.61292641  0.65032491  1  0.147823  0  -0.057856  -0.149121  0  4.134365  0
C  C68  1  0.03331210  0.60046448  0.70928255  1  -0.523786  0  -0.049586  -0.048129  0  4.241974  0
C  C69  1  0.18641701  0.50729951  0.95573816  1  0.481426  0  0.021524  -0.028224  0  3.918086  0
C  C70  1  0.96024131  0.57481663  0.28289857  1  -0.133578  0  -0.034581  -0.060532  0  4.128587  0
C  C71  1  0.47063067  0.00363718  0.60237816  1  -0.015254  0  -0.085954  -0.128712  0  3.973663  0
C  C72  1  0.50279704  0.07824325  0.60281019  1  0.128857  0  -0.005819  0.134534  0  4.131828  0
C  C73  1  0.45911445  0.08630346  0.53272761  1  -0.036626  0  -0.089438  -0.129329  0  3.984072  0
C  C74  1  0.39317509  0.02131208  0.46261636  1  -0.059289  0  -0.087608  -0.128822  0  3.984021  0
C  C75  1  0.36826287  0.94561265  0.45986569  1  0.114333  0  -0.001379  0.138605  0  4.116533  0
C  C76  1  0.40434625  0.93850963  0.53224865  1  -0.032991  0  -0.080021  -0.1175  0  3.947403  0
C  C77  1  0.58061313  0.14282492  0.66772381  1  -0.472731  0  -0.054453  -0.129635  0  4.13583  0
C  C78  1  0.31652608  0.87878060  0.38573814  1  -0.170155  0  -0.050299  -0.117569  0  4.132958  0
C  C79  1  0.28426026  0.82177735  0.32326664  1  -0.178111  0  -0.051817  -0.095948  0  4.162824  0
C  C80  1  0.75979685  0.34186578  0.77004367  1  1.063342  0  0.19628  0.302645  0  4.059372  0
C  C81  1  0.65163669  0.19923756  0.71530002  1  0.061349  0  -0.058345  -0.088936  0  4.203217  0
C  C82  1  0.08061244  0.00816662  0.17795744  1  -0.037776  0  -0.079819  -0.123024  0  3.969208  0
C  C83  1  0.00165731  0.93827516  0.13042385  1  0.11469  0  0.012179  0.116226  0  4.0814  0
C  C84  1  0.92631318  0.94387335  0.08858440  1  0.099769  0  0.009733  0.021912  0  4.045639  0
C  C85  1  0.93213576  0.01523514  0.08934112  1  -0.016352  0  -0.066268  -0.148576  0  3.891646  0
C  C86  1  0.01235489  0.08320826  0.13137922  1  0.064922  0  -0.000978  0.142502  0  4.133955  0
C  C87  1  0.08611812  0.07889709  0.17834838  1  -0.012464  0  -0.07733  -0.11686  0  3.953099  0
C  C88  1  0.99684314  0.86430142  0.11689066  1  0.032022  0  -0.054012  -0.134575  0  4.143575  0
C  C89  1  0.01660233  0.15133095  0.12116737  1  0.045235  0  -0.057292  -0.134751  0  4.147026  0
C  C90  1  0.01391547  0.20420806  0.10223332  1  -0.366448  0  -0.050031  -0.087934  0  4.178256  0
C  C91  1  0.23313873  0.47177946  0.05393331  1  0.431949  0  0.026488  -0.028443  0  3.931052  0
C  C92  1  0.99119241  0.79963144  0.09249388  1  -0.367646  0  -0.032745  -0.056175  0  4.130513  0
C  C93  1  0.10374878  0.61878750  0.85500246  1  1.091779  0  0.196035  0.308861  0  4.106761  0
C  C94  1  0.93192086  0.26972378  0.04296629  1  0.454105  0  0.019884  -0.044928  0  3.944878  0
C  C95  1  0.00710641  0.26358336  0.07961604  1  0.091627  0  -0.03101  0.039001  0  4.207563  0
C  C96  1  0.13204029  0.67321382  0.47488382  1  0.813168  0  0.17642  0.24622  0  4.037999  0
C  C97  1  0.86160073  0.43100306  0.64812728  1  0.353185  0  -0.131197  -0.160546  0  3.880089  0
C  C98  1  0.84452881  0.87535688  0.04206583  1  0.828509  0  0.171635  0.239275  0  4.046038  0
C  C99  1  0.62944466  0.33776300  0.68611558  1  0.376222  0  -0.129591  -0.164332  0  3.874818  0
C  C100  1  0.22467188  0.67863616  0.84166474  1  0.370176  0  -0.126803  -0.163006  0  3.876931  0
N  N101  1  0.03810768  0.37389888  0.06052107  1  -0.774103  0  -0.266949  -0.215908  0  3.497368  0
N  N102  1  0.80590812  0.47348606  0.93682117  1  -0.776039  0  -0.261581  -0.227831  0  3.475206  0
N  N103  1  0.96047910  0.48952699  0.10034290  1  -0.791076  0  -0.274531  -0.211308  0  3.537257  0
N  N104  1  0.02565553  0.63579405  0.02507470  1  -0.794228  0  -0.271827  -0.210203  0  3.528465  0
N  N105  1  0.94749385  0.61401736  0.96177706  1  -0.79523  0  -0.280344  -0.185314  0  3.634565  0
N  N106  1  0.03626924  0.50159364  0.15950716  1  -0.804847  0  -0.282809  -0.184832  0  3.628987  0
N  N107  1  0.20474575  0.67016448  0.13025900  1  -0.790505  0  -0.283833  -0.186484  0  3.563481  0
N  N108  1  0.78871951  0.40935497  0.95324195  1  -0.798913  0  -0.279388  -0.180354  0  3.636978  0
N  N109  1  0.98711745  0.54026518  0.85033399  1  -0.817955  0  -0.279816  -0.306247  0  3.500298  0
N  N110  1  0.86847001  0.35006569  0.87252285  1  -0.773943  0  -0.288329  -0.22117  0  3.462923  0
N  N111  1  0.15006586  0.51995452  0.00011893  1  -0.78976  0  -0.274178  -0.202883  0  3.549927  0
N  N112  1  0.84049672  0.38978588  0.83062067  1  -0.83313  0  -0.294379  -0.28958  0  3.610782  0
N  N113  1  0.17940050  0.49807395  0.06045747  1  -0.793084  0  -0.278241  -0.176555  0  3.636789  0
N  N114  1  0.07345503  0.59367719  0.89956013  1  -0.814195  0  -0.292476  -0.273417  0  3.572237  0
N  N115  1  0.95180101  0.33581845  0.03273860  1  -0.802264  0  -0.275623  -0.161568  0  3.622849  0
N  N116  1  0.17755246  0.62673659  0.16751674  1  -0.801778  0  -0.26941  -0.217537  0  3.531607  0
N  N117  1  0.18876822  0.69405754  0.46250910  1  -1.138249  0  -0.323959  -0.382524  0  2.693611  0
N  N118  1  0.77719219  0.81962367  0.00358171  1  -1.141706  0  -0.33076  -0.379133  0  2.675711  0
O  O119  1  0.88091755  0.49162510  0.71922594  1  -1.088339  0  -0.196325  -0.197544  0  2.552848  0
O  O120  1  0.72170745  0.37224505  0.72379300  1  -1.097209  0  -0.185692  -0.183769  0  2.567843  0
O  O121  1  0.18789266  0.67003370  0.89201612  1  -1.092887  0  -0.186237  -0.177905  0  2.553281  0
