# generated using pymatgen
data_CoH22C24(N2O5)2
_symmetry_space_group_name_H-M   'P 1'
_cell_length_a   7.90180140
_cell_length_b   7.70396890
_cell_length_c   11.03488777
_cell_angle_alpha   81.18391523
_cell_angle_beta   75.16580605
_cell_angle_gamma   62.28954097
_symmetry_Int_Tables_number   1
_chemical_formula_structural   CoH22C24(N2O5)2
_chemical_formula_sum   'Co1 H22 C24 N4 O10'
_cell_volume   574.42667151
_cell_formula_units_Z   1
loop_
 _symmetry_equiv_pos_site_id
 _symmetry_equiv_pos_as_xyz
  1  'x, y, z'
loop_
 _atom_site_type_symbol
 _atom_site_label
 _atom_site_symmetry_multiplicity
 _atom_site_fract_x
 _atom_site_fract_y
 _atom_site_fract_z
 _atom_site_occupancy
 _atom_site_pbe_cm5_charge
 _atom_site_pbe_ddec_charge
 _atom_site_pbe_ddec_spin_density
 _atom_site_pbe_ddec_sum_bond_order
 _atom_site_pbe_magmom
Co  Co0  1  0.49999822  0.50000405  0.00000016  1  0.574454  0.88816  1.027728  2.686901  0.95
H  H1  1  0.42002109  0.04971718  0.23279998  1  0.105414  0.109431  7e-06  1.000332  0.0
H  H2  1  0.57997758  0.95028365  0.76720069  1  0.105388  0.109422  7e-06  1.000327  0.0
H  H3  1  0.19778162  0.49365990  0.50061127  1  0.097234  0.087858  -0.00011  1.069395  0.0
H  H4  1  0.80221840  0.50633805  0.49938848  1  0.097222  0.087833  -0.00011  1.069408  0.0
H  H5  1  0.11255438  0.27630802  0.66946319  1  0.10948  0.131838  7.9e-05  1.05164  0.0
H  H6  1  0.88744825  0.72368997  0.33053698  1  0.109493  0.131865  7.9e-05  1.051623  0.0
H  H7  1  0.32319610  0.83464755  0.39612391  1  0.105406  0.121421  -7.7e-05  1.042001  0.0
H  H8  1  0.67681250  0.16534613  0.60387642  1  0.105406  0.121428  -7.7e-05  1.042023  0.0
H  H9  1  0.94832038  0.12612813  0.78004406  1  0.150909  0.13251  -8.5e-05  1.04056  0.0
H  H10  1  0.05168065  0.87387601  0.21995227  1  0.150897  0.132513  -8.5e-05  1.040554  0.0
H  H11  1  0.34139316  0.63743723  0.55359454  1  0.133112  0.134244  -0.000142  1.01449  0.0
H  H12  1  0.65861541  0.36255930  0.44640737  1  0.133119  0.134233  -0.000142  1.014547  0.0
H  H13  1  0.15423751  0.50984392  0.77581992  1  0.137429  0.162144  -2.1e-05  1.012501  0.0
H  H14  1  0.84575915  0.49015838  0.22418009  1  0.137425  0.162139  -2.1e-05  1.012513  0.0
H  H15  1  0.80021705  0.95953850  0.96283359  1  0.117825  0.119015  -4.5e-05  1.016229  0.0
H  H16  1  0.19977770  0.04046231  0.03716600  1  0.117817  0.119007  -4.5e-05  1.016218  0.0
H  H17  1  0.83511051  0.71703202  0.94014936  1  0.122168  0.138847  0.000459  0.994011  0.001
H  H18  1  0.16489275  0.28296462  0.05984899  1  0.122188  0.138849  0.000459  0.994021  0.001
H  H19  1  0.54208166  0.19667405  0.94118491  1  0.315346  0.382071  -0.000137  0.903066  0.0
H  H20  1  0.45791886  0.80333120  0.05881687  1  0.315321  0.38205  -0.000137  0.903069  0.0
H  H21  1  0.54918787  0.34232657  0.81868376  1  0.286213  0.363346  -0.000211  0.996639  0.0
H  H22  1  0.45081014  0.65767566  0.18131782  1  0.286233  0.363384  -0.000211  0.996587  0.0
C  C23  1  0.36460436  0.42171861  0.25869152  1  0.210484  0.561359  -0.012403  4.17862  -0.007
C  C24  1  0.63539368  0.57828077  0.74130848  1  0.210524  0.561504  -0.012405  4.178654  -0.007
C  C25  1  0.35023344  0.09949107  0.32801695  1  -0.083548  -0.071849  -0.003228  3.971987  -0.002
C  C26  1  0.64976187  0.90051131  0.67198150  1  -0.083556  -0.071887  -0.003229  3.972094  -0.002
C  C27  1  0.22798517  0.34765347  0.47954318  1  -0.085686  -0.077691  -0.004351  3.9887  -0.003
C  C28  1  0.77201284  0.65234596  0.52045591  1  -0.085659  -0.077661  -0.004352  3.988622  -0.003
C  C29  1  0.17737970  0.22754057  0.57343128  1  -0.08959  -0.16549  0.000503  3.946594  0.001
C  C30  1  0.82262425  0.77245461  0.42656707  1  -0.089607  -0.165511  0.000503  3.946526  0.001
C  C31  1  0.29856033  0.97765855  0.42031236  1  -0.095573  -0.180114  -0.000127  3.979076  0.001
C  C32  1  0.70144242  0.02233920  0.57969143  1  -0.095584  -0.18015  -0.000127  3.97922  0.001
C  C33  1  0.31389483  0.28672547  0.35618872  1  -0.021073  -0.048305  -0.001687  3.983705  0.0
C  C34  1  0.68610004  0.71327230  0.64381200  1  -0.021066  -0.048301  -0.001687  3.983578  0.0
C  C35  1  0.21200902  0.04289420  0.54278369  1  0.095973  0.171999  -0.00574  3.990547  -0.004
C  C36  1  0.78799107  0.95710364  0.45721787  1  0.095998  0.172058  -0.005743  3.990477  -0.004
C  C37  1  0.02850582  0.97695145  0.74786757  1  0.178919  0.072874  -0.001268  3.736045  -0.001
C  C38  1  0.97149527  0.02305257  0.25213058  1  0.178937  0.072867  -0.001269  3.736085  -0.001
C  C39  1  0.23068257  0.71698624  0.63190899  1  0.018409  -0.080354  -0.000996  3.894415  -0.001
C  C40  1  0.76932270  0.28301173  0.36809251  1  0.018346  -0.080373  -0.000996  3.894514  -0.001
C  C41  1  0.14173447  0.65389012  0.73971902  1  0.033274  -0.044131  -4.2e-05  3.811767  0.0
C  C42  1  0.85826747  0.34610933  0.26028115  1  0.033274  -0.044168  -4.2e-05  3.811816  0.0
C  C43  1  0.90787102  0.80937065  0.93686568  1  -0.055717  -0.232213  0.00157  3.833947  0.002
C  C44  1  0.09213010  0.19063051  0.06313088  1  -0.055745  -0.232238  0.00157  3.834039  0.002
C  C45  1  0.04046467  0.73270800  0.03404095  1  0.202248  0.614084  0.006848  4.205102  0.009
C  C46  1  0.95953962  0.26729476  0.96595488  1  0.202261  0.614038  0.006847  4.205314  0.009
N  N47  1  0.15877583  0.91863835  0.63784693  1  -0.209039  0.02535  0.000126  3.787644  0.001
N  N48  1  0.84122878  0.08135822  0.36215299  1  -0.208979  0.025369  0.000126  3.787708  0.001
N  N49  1  0.01642468  0.81788870  0.80955786  1  -0.221973  0.09137  -0.000688  3.800421  -0.001
N  N50  1  0.98357377  0.18211534  0.19043895  1  -0.221948  0.091465  -0.000688  3.800375  -0.001
O  O51  1  0.42331787  0.36535856  0.14551932  1  -0.305614  -0.515757  -0.005806  2.462453  -0.003
O  O52  1  0.57667549  0.63464518  0.85448028  1  -0.305664  -0.515814  -0.005806  2.46246  -0.003
O  O53  1  0.34937173  0.58051679  0.29283391  1  -0.324101  -0.565597  -0.00496  2.230406  -0.004
O  O54  1  0.65062776  0.41948233  0.70717037  1  -0.324088  -0.565636  -0.004961  2.23046  -0.004
O  O55  1  0.97142366  0.67339376  0.13830999  1  -0.330615  -0.570914  0.00431  2.165386  0.008
O  O56  1  0.02857705  0.32660273  0.86168975  1  -0.330582  -0.57085  0.00431  2.165682  0.008
O  O57  1  0.46501514  0.32516334  0.90535567  1  -0.551321  -0.700381  -0.003913  2.225321  -0.003
O  O58  1  0.53497963  0.67484020  0.09464731  1  -0.551308  -0.700394  -0.003912  2.225301  -0.003
O  O59  1  0.20014104  0.74668765  0.00097878  1  -0.333212  -0.61106  0.018275  2.30756  0.027
O  O60  1  0.79985520  0.25332382  0.99901692  1  -0.3333  -0.611104  0.018277  2.307412  0.027
