# generated using pymatgen
data_NiH18C18N4O5
_symmetry_space_group_name_H-M   'P 1'
_cell_length_a   8.79588415
_cell_length_b   9.73340085
_cell_length_c   11.52656444
_cell_angle_alpha   73.25729685
_cell_angle_beta   80.08547261
_cell_angle_gamma   66.71573046
_symmetry_Int_Tables_number   1
_chemical_formula_structural   NiH18C18N4O5
_chemical_formula_sum   'Ni2 H36 C36 N8 O10'
_cell_volume   866.12535030
_cell_formula_units_Z   2
loop_
 _symmetry_equiv_pos_site_id
 _symmetry_equiv_pos_as_xyz
  1  'x, y, z'
loop_
 _atom_site_type_symbol
 _atom_site_label
 _atom_site_symmetry_multiplicity
 _atom_site_fract_x
 _atom_site_fract_y
 _atom_site_fract_z
 _atom_site_occupancy
 _atom_site_pbe_cm5_charge
 _atom_site_pbe_ddec_charge
 _atom_site_pbe_ddec_spin_density
 _atom_site_pbe_ddec_sum_bond_order
 _atom_site_pbe_magmom
Ni  Ni0  1  0.79270171  0.18954600  0.37238518  1  0.614349  0.647996  0.022765  2.610725  0.01
Ni  Ni1  1  0.20729666  0.81045852  0.62761500  1  0.614346  0.647915  -0.022764  2.610758  -0.01
H  H2  1  0.28994064  0.77946801  0.88914363  1  0.30414  0.361236  4.4e-05  0.9816  0.0
H  H3  1  0.71006257  0.22053308  0.11085501  1  0.30412  0.361211  -4.5e-05  0.981686  0.0
H  H4  1  0.30461275  0.59982100  0.40718733  1  0.104616  0.116105  4.8e-05  1.02549  0.0
H  H5  1  0.69538777  0.40017546  0.59281976  1  0.104655  0.116176  -4.8e-05  1.025622  0.0
H  H6  1  0.02034528  0.95415377  0.12042885  1  0.106968  0.129908  0.000117  1.052028  0.0
H  H7  1  0.97965471  0.04584961  0.87957139  1  0.106936  0.12983  -0.000117  1.051955  0.0
H  H8  1  0.45112931  0.58213153  0.03252679  1  0.100394  0.112962  1e-05  1.077223  0.0
H  H9  1  0.54886638  0.41786254  0.96747720  1  0.100419  0.112945  -1e-05  1.077214  0.0
H  H10  1  0.91682854  0.45323005  0.35782797  1  0.124796  0.125361  -0.000211  0.990341  0.0
H  H11  1  0.08318070  0.54676767  0.64217677  1  0.124811  0.125364  0.000211  0.990338  0.0
H  H12  1  0.15822066  0.50687857  0.17836097  1  0.11395  0.114809  -0.000139  1.06901  0.0
H  H13  1  0.84178929  0.49311451  0.82164221  1  0.11395  0.114852  0.000139  1.068952  0.0
H  H14  1  0.02308199  0.15705642  0.12690433  1  0.134152  0.100252  -0.000176  1.073196  0.0
H  H15  1  0.97691408  0.84294806  0.87309443  1  0.134148  0.100293  0.000176  1.073184  0.0
H  H16  1  0.37152961  0.26250365  0.05446614  1  0.109176  0.095153  9e-06  0.978974  0.0
H  H17  1  0.62847019  0.73749161  0.94553353  1  0.109184  0.095128  -9e-06  0.97897  0.0
H  H18  1  0.23368000  0.42940775  0.96199329  1  0.111421  0.097022  -4.4e-05  0.968092  0.0
H  H19  1  0.76632506  0.57059454  0.03800914  1  0.11139  0.09694  4.4e-05  0.968168  0.0
H  H20  1  0.10930161  0.26918836  0.90534908  1  0.090094  0.082839  -6e-06  1.021699  0.0
H  H21  1  0.89069260  0.73082076  0.09465225  1  0.090126  0.082857  6e-06  1.021685  0.0
H  H22  1  0.24546210  0.09966242  0.99573132  1  0.093416  0.091918  -3e-06  0.999976  0.0
H  H23  1  0.75453050  0.90034201  0.00426445  1  0.09339  0.091884  3e-06  0.999956  0.0
H  H24  1  0.37430592  0.31661813  0.79165154  1  0.0896  0.085677  -1.7e-05  1.026685  0.0
H  H25  1  0.62568506  0.68338743  0.20834244  1  0.089561  0.08562  1.7e-05  1.026754  0.0
H  H26  1  0.48891363  0.12741615  0.86908946  1  0.092181  0.092713  -2e-06  0.980965  0.0
H  H27  1  0.51107620  0.87258939  0.13090381  1  0.092208  0.092822  2e-06  0.980893  0.0
H  H28  1  0.29607593  0.03991867  0.78126222  1  0.115842  0.105724  -7.6e-05  0.997333  0.0
H  H29  1  0.70391344  0.96008802  0.21873169  1  0.115885  0.105734  7.6e-05  0.997296  0.0
H  H30  1  0.22349907  0.22883901  0.68864036  1  0.112014  0.093796  -3.4e-05  0.966013  0.0
H  H31  1  0.77649447  0.77116311  0.31135499  1  0.112012  0.093793  3.4e-05  0.965982  0.0
H  H32  1  0.46695692  0.31483876  0.53579652  1  0.138172  0.113802  -0.000104  1.003876  0.0
H  H33  1  0.53303589  0.68516797  0.46419605  1  0.138144  0.113787  0.000103  1.003921  0.0
H  H34  1  0.55693213  0.84929052  0.72239530  1  0.118325  0.125474  -0.000116  1.047432  0.0
H  H35  1  0.44306211  0.15071279  0.27760313  1  0.118317  0.125386  0.000116  1.047522  0.0
H  H36  1  0.80735474  0.86339918  0.53847883  1  0.117826  0.123761  -0.000156  1.061383  0.0
H  H37  1  0.19264342  0.13660303  0.46152281  1  0.11784  0.123817  0.000156  1.061444  0.0
C  C38  1  0.53257238  0.42135676  0.25664906  1  0.212562  0.564173  0.00149  4.175513  0.001
C  C39  1  0.46742860  0.57863855  0.74335825  1  0.212541  0.564025  -0.001491  4.175915  -0.001
C  C40  1  0.39268710  0.57347574  0.22391065  1  -0.023323  -0.015974  -0.000387  4.035076  -0.001
C  C41  1  0.60731394  0.42651380  0.77610069  1  -0.023307  -0.015885  0.000387  4.035126  0.001
C  C42  1  0.28700316  0.64779162  0.31059991  1  -0.095662  -0.160725  0.001315  3.968084  0.001
C  C43  1  0.71299775  0.35220943  0.68939644  1  -0.095692  -0.160855  -0.001315  3.967913  -0.001
C  C44  1  0.15321990  0.78590629  0.27254904  1  -0.018128  -0.005234  0.001225  3.987475  0.001
C  C45  1  0.84678155  0.21408785  0.72745676  1  -0.018105  -0.005266  -0.001225  3.987821  -0.001
C  C46  1  0.12751257  0.84994353  0.14903354  1  -0.104414  -0.237193  0.001352  3.942595  0.001
C  C47  1  0.87248531  0.15006212  0.85096121  1  -0.10439  -0.237087  -0.001352  3.942945  -0.001
C  C48  1  0.23703345  0.77783469  0.06205927  1  0.072317  0.30934  -0.000192  4.115875  0.0
C  C49  1  0.76296868  0.22216063  0.93794702  1  0.072383  0.309414  0.000192  4.115806  0.0
C  C50  1  0.36772042  0.63857955  0.10013719  1  -0.1109  -0.260462  0.001619  3.985864  0.001
C  C51  1  0.63227985  0.36141455  0.89986271  1  -0.110979  -0.260487  -0.001618  3.986147  -0.001
C  C52  1  0.03930037  0.86469542  0.36717078  1  0.21049  0.566115  0.004432  4.195283  0.002
C  C53  1  0.96070312  0.13530223  0.63283561  1  0.210393  0.566001  -0.004432  4.195358  -0.002
C  C54  1  0.97209405  0.40308446  0.28103280  1  0.005158  -0.022031  -0.000628  3.962495  0.0
C  C55  1  0.02791194  0.59691552  0.71896834  1  0.005115  -0.022095  0.000628  3.962621  0.0
C  C56  1  0.09146090  0.42984492  0.19362670  1  -0.004518  -0.114965  -0.000682  3.919966  -0.001
C  C57  1  0.90854858  0.57014932  0.80637627  1  -0.004559  -0.115088  0.000682  3.920034  0.001
C  C58  1  0.02598709  0.24505390  0.16487561  1  0.142375  0.085318  -0.000253  3.89711  0.0
C  C59  1  0.97401774  0.75494605  0.83512396  1  0.142326  0.085184  0.000253  3.897044  0.0
C  C60  1  0.24824398  0.31290654  0.01796773  1  -0.049696  -0.054852  -0.00024  3.870977  0.0
C  C61  1  0.75175786  0.68709221  0.98202907  1  -0.049661  -0.054727  0.00024  3.870847  0.0
C  C62  1  0.23343404  0.21603487  0.94066186  1  -0.164371  -0.17045  -4e-05  3.942425  0.0
C  C63  1  0.76656248  0.78396844  0.05933280  1  -0.164382  -0.17047  4e-05  3.942395  0.0
C  C64  1  0.36610332  0.20320907  0.83518009  1  -0.163963  -0.164157  6e-06  3.927741  0.0
C  C65  1  0.63388882  0.79679651  0.16481460  1  -0.163959  -0.164265  -6e-06  3.927808  0.0
C  C66  1  0.32936531  0.14156516  0.73949600  1  -0.04918  -0.05886  -0.000248  3.858375  0.0
C  C67  1  0.67063236  0.85843816  0.26049676  1  -0.049171  -0.0588  0.000248  3.858187  0.0
C  C68  1  0.52575766  0.19044729  0.55964976  1  0.139642  0.080173  -0.000325  3.890256  0.0
C  C69  1  0.47424164  0.80955491  0.44034740  1  0.139576  0.08  0.000325  3.890104  0.0
C  C70  1  0.57906936  0.94623134  0.65758650  1  -0.003714  -0.109711  -0.000565  3.91749  -0.001
C  C71  1  0.42092163  0.05377423  0.34241007  1  -0.003653  -0.1095  0.000565  3.917354  0.001
C  C72  1  0.69736730  0.95366288  0.56399138  1  -0.003972  -0.032616  -0.00024  3.959594  0.0
C  C73  1  0.30262741  0.04633928  0.43600901  1  -0.004071  -0.032909  0.00024  3.959838  0.0
N  N74  1  0.47162482  0.09605245  0.65337949  1  -0.243749  0.043734  -0.000328  3.78775  0.0
N  N75  1  0.52836983  0.90395548  0.34661514  1  -0.243781  0.043834  0.000328  3.787497  0.0
N  N76  1  0.66245293  0.10680214  0.50296832  1  -0.362226  -0.25429  -0.012197  3.677817  -0.009
N  N77  1  0.33754199  0.89320233  0.49703060  1  -0.362106  -0.254063  0.012194  3.677599  0.009
N  N78  1  0.93292360  0.28735407  0.26203043  1  -0.359478  -0.232623  -0.013275  3.646142  -0.011
N  N79  1  0.06708077  0.71264705  0.73797064  1  -0.359396  -0.232496  0.013271  3.646065  0.011
N  N80  1  0.12336246  0.32960594  0.12040649  1  -0.244138  0.034792  -0.000489  3.769018  -0.001
N  N81  1  0.87664493  0.67039057  0.87959445  1  -0.244129  0.034904  0.000489  3.76878  0.001
O  O82  1  0.56529208  0.32945005  0.18946231  1  -0.3155  -0.580467  -0.00226  2.272338  -0.003
O  O83  1  0.43471218  0.67053134  0.81053846  1  -0.31547  -0.580333  0.00226  2.272783  0.003
O  O84  1  0.61052505  0.39459867  0.35066054  1  -0.289954  -0.485178  0.016955  2.327278  0.017
O  O85  1  0.38947564  0.60540007  0.64933728  1  -0.289938  -0.485149  -0.016954  2.327144  -0.017
O  O86  1  0.05292975  0.79332261  0.47652437  1  -0.305314  -0.554081  0.0102  2.304589  0.009
O  O87  1  0.94707211  0.20667616  0.52347676  1  -0.305303  -0.554072  -0.010203  2.30454  -0.009
O  O88  1  0.93581299  0.00173028  0.32351075  1  -0.307657  -0.518064  0.026813  2.440892  0.027
O  O89  1  0.06419024  0.99827084  0.67649309  1  -0.307592  -0.517952  -0.026806  2.441017  -0.027
O  O90  1  0.21146426  0.84654545  0.94258223  1  -0.354096  -0.468181  -9.2e-05  2.372791  0.0
O  O91  1  0.78854499  0.15345228  0.05742424  1  -0.354155  -0.468257  9.2e-05  2.372933  0.0
