# generated using pymatgen
data_CuH6C6(SN4)2
_symmetry_space_group_name_H-M   'P 1'
_cell_length_a   7.93968381
_cell_length_b   8.83338432
_cell_length_c   9.82611447
_cell_angle_alpha   114.63202976
_cell_angle_beta   89.99945418
_cell_angle_gamma   90.00047943
_symmetry_Int_Tables_number   1
_chemical_formula_structural   CuH6C6(SN4)2
_chemical_formula_sum   'Cu2 H12 C12 S4 N16'
_cell_volume   626.43727442
_cell_formula_units_Z   2
loop_
 _symmetry_equiv_pos_site_id
 _symmetry_equiv_pos_as_xyz
  1  'x, y, z'
loop_
 _atom_site_type_symbol
 _atom_site_label
 _atom_site_symmetry_multiplicity
 _atom_site_fract_x
 _atom_site_fract_y
 _atom_site_fract_z
 _atom_site_occupancy
 _atom_site_hle17_ddec_charge
 _atom_site_hle17_ddec_spin_density
 _atom_site_hle17_ddec_sum_bond_order
 _atom_site_hle17_magmom
 _atom_site_hse06_10hf_ddec_charge
 _atom_site_hse06_10hf_ddec_spin_density
 _atom_site_hse06_10hf_ddec_sum_bond_order
 _atom_site_hse06_10hf_magmom
 _atom_site_hse06_ddec_charge
 _atom_site_hse06_ddec_spin_density
 _atom_site_hse06_ddec_sum_bond_order
 _atom_site_hse06_magmom
 _atom_site_pbe_cm5_charge
 _atom_site_pbe_ddec_charge
 _atom_site_pbe_ddec_spin_density
 _atom_site_pbe_ddec_sum_bond_order
 _atom_site_pbe_magmom
Cu  Cu0  1  0.99999574  0.00000231  0.00000213  1  0.841369  -0.698881  2.060981  -0.526  0.824971  -0.795377  2.469936  -0.656  0.906965  -0.854242  2.403066  -0.735  0.811025  0.773628  -0.749435  2.51435  -0.598
Cu  Cu1  1  0.50000667  0.49999966  0.50000329  1  0.841366  -0.69889  2.061197  -0.526  0.824965  -0.795364  2.47018  -0.656  0.906935  -0.85422  2.40334  -0.735  0.811039  0.773638  -0.749431  2.514594  -0.598
H  H2  1  0.83244619  0.95894011  0.33674458  1  0.265347  -0.000559  0.954351  -0.001  0.241591  -0.000339  1.030455  0.0  0.249241  -0.000242  1.025491  0.0  0.293146  0.236096  -0.000438  1.034009  -0.001
H  H3  1  0.33244803  0.54105957  0.16325863  1  0.265335  -0.000559  0.954302  -0.001  0.241553  -0.000338  1.030418  0.0  0.249201  -0.000242  1.025454  0.0  0.293102  0.236059  -0.000438  1.033956  -0.001
H  H4  1  0.16755456  0.04105065  0.66325155  1  0.265252  -0.00056  0.954414  -0.001  0.241559  -0.000339  1.030464  0.0  0.24921  -0.000242  1.025499  0.0  0.293156  0.236062  -0.000438  1.034012  -0.001
H  H5  1  0.66754768  0.45893624  0.83673641  1  0.265307  -0.000559  0.95433  -0.001  0.241509  -0.000339  1.030453  0.0  0.249158  -0.000242  1.02549  0.0  0.293078  0.236018  -0.000438  1.033993  -0.001
H  H6  1  0.69462750  0.30552459  0.18112546  1  0.103146  0.000243  0.92874  0.0  0.111892  7.9e-05  0.987549  0.0  0.113081  7.6e-05  0.986175  0.0  0.137104  0.110566  8.6e-05  0.989124  0.0
H  H7  1  0.19461885  0.19446981  0.31887327  1  0.103122  0.000237  0.928767  0.0  0.111862  7.9e-05  0.987591  0.0  0.113047  7.6e-05  0.986221  0.0  0.137109  0.110539  8.6e-05  0.989167  0.0
H  H8  1  0.30537576  0.69446989  0.81887314  1  0.103121  0.000242  0.92877  0.0  0.11187  7.9e-05  0.987578  0.0  0.113052  7.6e-05  0.986212  0.0  0.137119  0.110547  8.7e-05  0.989154  0.0
H  H9  1  0.80537560  0.80552969  0.68112524  1  0.103123  0.000242  0.928779  0.0  0.11187  8e-05  0.987593  0.0  0.113052  7.6e-05  0.986228  0.0  0.137116  0.110548  8.6e-05  0.989173  0.0
H  H10  1  0.64440737  0.17689382  0.54694357  1  0.094891  -0.000103  0.96601  0.0  0.099261  5e-06  1.039395  0.0  0.10185  3.1e-05  1.035843  0.0  0.126571  0.097926  -7e-05  1.04124  0.0
H  H11  1  0.14439076  0.32311882  0.95306782  1  0.094932  -0.000101  0.966016  0.0  0.099301  6e-06  1.039396  0.0  0.101889  3.1e-05  1.035846  0.0  0.126563  0.097966  -7e-05  1.041234  0.0
H  H12  1  0.35560975  0.82311057  0.45306092  1  0.09489  -0.000105  0.966027  0.0  0.099279  6e-06  1.039404  0.0  0.101863  3.2e-05  1.035853  0.0  0.126575  0.097944  -7e-05  1.041246  0.0
H  H13  1  0.85558858  0.67688686  0.04693514  1  0.094954  -0.000103  0.965976  0.0  0.099322  6e-06  1.03935  0.0  0.101908  3.2e-05  1.035803  0.0  0.126613  0.097987  -7e-05  1.04119  0.0
C  C14  1  0.26216597  0.84093182  0.12963276  1  0.290598  0.010242  4.012572  0.002  0.294197  -0.003118  4.318078  -0.009  0.320905  -0.001485  4.330295  -0.007  0.142532  0.275913  -0.004523  4.309953  -0.01
C  C15  1  0.76218235  0.65907646  0.37036416  1  0.290495  0.010253  4.012263  0.002  0.294087  -0.003125  4.317801  -0.009  0.320801  -0.001492  4.330022  -0.007  0.142402  0.2758  -0.004533  4.309677  -0.01
C  C16  1  0.73783352  0.15907882  0.87037314  1  0.290465  0.010248  4.01262  0.002  0.294055  -0.003119  4.318153  -0.009  0.320763  -0.001487  4.330375  -0.007  0.142443  0.275767  -0.004526  4.310026  -0.01
C  C17  1  0.23782092  0.34092059  0.62963137  1  0.290449  0.010228  4.012252  0.002  0.294044  -0.003124  4.317802  -0.009  0.320758  -0.001493  4.330024  -0.007  0.142372  0.275757  -0.004533  4.309675  -0.01
C  C18  1  0.70664866  0.24034581  0.25266607  1  0.211306  0.004993  3.67248  0.003  0.165988  0.001535  3.952715  0.0  0.180073  0.002351  3.967468  0.001  0.150347  0.15737  0.00101  3.942132  0.0
C  C19  1  0.20664525  0.25965360  0.24733553  1  0.211436  0.005059  3.67248  0.003  0.166135  0.001533  3.952709  0.0  0.180221  0.002352  3.967464  0.001  0.150399  0.157515  0.00101  3.942142  0.0
C  C20  1  0.29335460  0.75965237  0.74733499  1  0.21148  0.005022  3.672454  0.003  0.166187  0.001534  3.952664  0.0  0.180278  0.002352  3.967416  0.001  0.150431  0.157569  0.00101  3.942098  0.0
C  C21  1  0.79335172  0.74035086  0.75266593  1  0.211433  0.005007  3.672555  0.003  0.1661  0.001534  3.952795  0.0  0.180192  0.002353  3.96755  0.001  0.15036  0.15748  0.001011  3.94223  0.0
C  C22  1  0.67962099  0.17807830  0.44038838  1  0.234729  0.006061  3.637768  0.003  0.173926  0.002159  3.905868  0.0  0.192047  0.003419  3.915932  0.002  0.16461  0.161948  0.00112  3.89893  0.0
C  C23  1  0.17960905  0.32192839  0.05961932  1  0.234669  0.006077  3.637823  0.003  0.173868  0.002159  3.905907  0.0  0.191988  0.003419  3.915972  0.002  0.164621  0.16189  0.00112  3.898956  0.0
C  C24  1  0.32038983  0.82192111  0.55961417  1  0.234649  0.006087  3.637745  0.003  0.173869  0.002159  3.905898  0.0  0.191998  0.003418  3.915958  0.002  0.164573  0.161892  0.00112  3.898953  0.0
C  C25  1  0.82037280  0.67807482  0.94038166  1  0.234656  0.00607  3.637835  0.003  0.173815  0.002158  3.905925  0.0  0.191935  0.003418  3.915993  0.002  0.164556  0.161839  0.001119  3.898975  0.0
S  S26  1  0.43708548  0.77990655  0.17581480  1  -0.311167  -0.036369  2.039721  -0.04  -0.323012  -0.006821  2.326004  -0.009  -0.34054  -0.002173  2.321261  -0.005  -0.153215  -0.310176  -0.01248  2.329185  -0.014
S  S27  1  0.93708912  0.72010244  0.32418715  1  -0.310995  -0.03635  2.040246  -0.04  -0.322815  -0.006824  2.326527  -0.009  -0.340341  -0.002175  2.32179  -0.005  -0.153087  -0.309974  -0.012481  2.329712  -0.014
S  S28  1  0.56291779  0.22010407  0.82419211  1  -0.311048  -0.036374  2.039839  -0.04  -0.322871  -0.006823  2.326104  -0.009  -0.3404  -0.002176  2.321365  -0.005  -0.153159  -0.310037  -0.012484  2.329285  -0.014
S  S29  1  0.06291289  0.27989592  0.67580583  1  -0.31096  -0.036353  2.040129  -0.04  -0.3228  -0.006823  2.326415  -0.009  -0.340327  -0.002179  2.321676  -0.005  -0.153095  -0.309956  -0.012483  2.329598  -0.014
N  N30  1  0.13210702  0.88536916  0.09899412  1  -0.528196  -0.058245  3.020647  -0.073  -0.519038  -0.038923  3.334662  -0.052  -0.549717  -0.031083  3.338541  -0.045  -0.424225  -0.499538  -0.0443  3.33228  -0.056
N  N31  1  0.63210121  0.61462707  0.40100930  1  -0.528233  -0.05828  3.020043  -0.073  -0.519075  -0.038921  3.334092  -0.052  -0.54976  -0.031082  3.337978  -0.045  -0.424166  -0.499565  -0.0443  3.331705  -0.056
N  N32  1  0.86789624  0.11463530  0.90100734  1  -0.528139  -0.058257  3.020645  -0.073  -0.518983  -0.038924  3.334683  -0.052  -0.549666  -0.031083  3.338566  -0.045  -0.424164  -0.499478  -0.044303  3.332296  -0.056
N  N33  1  0.36790583  0.38536861  0.59899180  1  -0.528226  -0.058262  3.020005  -0.073  -0.519083  -0.038922  3.334074  -0.052  -0.549767  -0.031078  3.337961  -0.045  -0.424169  -0.499576  -0.044299  3.331687  -0.056
N  N34  1  0.77649018  0.06490024  0.33600576  1  -0.165558  -0.002905  3.509715  -0.004  -0.094108  -0.001714  3.739702  -0.002  -0.108051  -0.001184  3.757241  -0.002  -0.260564  -0.085075  -0.00223  3.728196  -0.003
N  N35  1  0.27649191  0.43509832  0.16399293  1  -0.165509  -0.002902  3.509627  -0.004  -0.093977  -0.001713  3.739543  -0.002  -0.107909  -0.001184  3.757064  -0.002  -0.260549  -0.084945  -0.00223  3.728038  -0.003
N  N36  1  0.22351182  0.93509306  0.66398932  1  -0.165386  -0.002903  3.509668  -0.004  -0.094044  -0.001712  3.73969  -0.002  -0.107992  -0.001184  3.75723  -0.002  -0.260592  -0.08501  -0.00223  3.72818  -0.003
N  N37  1  0.72350254  0.56490125  0.83600255  1  -0.16551  -0.002899  3.509625  -0.004  -0.093937  -0.001713  3.739524  -0.002  -0.107874  -0.001184  3.757057  -0.002  -0.260534  -0.08491  -0.00223  3.728017  -0.003
N  N38  1  0.79457869  0.10135512  0.21562535  1  -0.235809  -0.006539  2.992454  -0.009  -0.228307  -0.002842  3.28691  -0.005  -0.24222  -0.001174  3.302413  -0.003  -0.222825  -0.218881  -0.005067  3.275723  -0.007
N  N39  1  0.29457990  0.39864100  0.28437328  1  -0.235863  -0.006578  2.992507  -0.009  -0.22838  -0.002843  3.286927  -0.005  -0.242291  -0.001174  3.302423  -0.003  -0.22283  -0.218958  -0.005068  3.275752  -0.007
N  N40  1  0.20541954  0.89863690  0.78437026  1  -0.235969  -0.006559  2.992555  -0.009  -0.22845  -0.002842  3.287046  -0.005  -0.242361  -0.001174  3.302545  -0.003  -0.222882  -0.219023  -0.005066  3.275866  -0.007
N  N41  1  0.70541958  0.60135732  0.71562172  1  -0.235928  -0.006555  2.992373  -0.009  -0.228456  -0.002842  3.2868  -0.005  -0.242367  -0.001175  3.302296  -0.003  -0.222855  -0.219031  -0.005068  3.275629  -0.007
N  N42  1  0.63386685  0.29183386  0.39043700  1  -0.379988  -0.067384  3.295959  -0.088  -0.334889  -0.052332  3.605469  -0.073  -0.370158  -0.041416  3.624464  -0.062  -0.359037  -0.31299  -0.058385  3.593304  -0.078
N  N43  1  0.13385451  0.20816765  0.10956801  1  -0.380063  -0.067398  3.296052  -0.088  -0.335028  -0.052334  3.605634  -0.073  -0.370305  -0.041415  3.624628  -0.062  -0.359038  -0.313124  -0.058384  3.59347  -0.078
N  N44  1  0.36614397  0.70816430  0.60956506  1  -0.379993  -0.067395  3.295943  -0.088  -0.334951  -0.052331  3.605512  -0.073  -0.37022  -0.041416  3.624499  -0.062  -0.359019  -0.313052  -0.058383  3.593354  -0.078
N  N45  1  0.86613112  0.79183677  0.89043546  1  -0.379979  -0.067384  3.295954  -0.088  -0.334868  -0.05233  3.605469  -0.073  -0.370144  -0.041413  3.624465  -0.062  -0.35896  -0.312966  -0.058381  3.593301  -0.078
