# generated using pymatgen
data_GdPH3CO6
_symmetry_space_group_name_H-M   'P 1'
_cell_length_a   6.54107300
_cell_length_b   6.95459020
_cell_length_c   8.18562585
_cell_angle_alpha   114.39398392
_cell_angle_beta   98.74068409
_cell_angle_gamma   90.21068697
_symmetry_Int_Tables_number   1
_chemical_formula_structural   GdPH3CO6
_chemical_formula_sum   'Gd2 P2 H6 C2 O12'
_cell_volume   334.27288164
_cell_formula_units_Z   2
loop_
 _symmetry_equiv_pos_site_id
 _symmetry_equiv_pos_as_xyz
  1  'x, y, z'
loop_
 _atom_site_type_symbol
 _atom_site_label
 _atom_site_symmetry_multiplicity
 _atom_site_fract_x
 _atom_site_fract_y
 _atom_site_fract_z
 _atom_site_occupancy
 _atom_site_hle17_bader_spin_density
 _atom_site_hle17_ddec_charge
 _atom_site_hle17_ddec_spin_density
 _atom_site_hle17_ddec_sum_bond_order
 _atom_site_hle17_magmom
 _atom_site_hse06_10hf_bader_spin_density
 _atom_site_hse06_10hf_ddec_charge
 _atom_site_hse06_10hf_ddec_spin_density
 _atom_site_hse06_10hf_ddec_sum_bond_order
 _atom_site_hse06_10hf_magmom
 _atom_site_hse06_bader_spin_density
 _atom_site_hse06_ddec_charge
 _atom_site_hse06_ddec_spin_density
 _atom_site_hse06_ddec_sum_bond_order
 _atom_site_hse06_magmom
 _atom_site_pbe_bader_spin_density
 _atom_site_pbe_cm5_charge
 _atom_site_pbe_ddec_charge
 _atom_site_pbe_ddec_spin_density
 _atom_site_pbe_ddec_sum_bond_order
 _atom_site_pbe_magmom
Gd  Gd0  1  0.12064492  0.21797833  0.93442958  1  0  2.239166  0  1.799521  0  0  2.153102  0  2.151173  0  0  2.203871  0  2.095949  0  0  1.525104  2.113771  0  2.194718  0
Gd  Gd1  1  0.87935319  0.78202631  0.06557302  1  0  2.23909  0  1.799635  0  0  2.153068  0  2.151244  0  0  2.203818  0  2.096054  0  0  1.525051  2.113681  0  2.194883  0
P  P2  1  0.67030438  0.25311064  0.01063281  1  0  1.522697  0  4.864368  0  0  1.339676  0  5.392501  0  0  1.391217  0  5.351949  0  0  0.291489  1.303553  0  5.419425  0
P  P3  1  0.32969121  0.74688272  0.98935715  1  0  1.522726  0  4.864071  0  0  1.339691  0  5.392223  0  0  1.391235  0  5.351664  0  0  0.291489  1.303571  0  5.419142  0
H  H4  1  0.64917857  0.33706401  0.19575601  1  0  -0.129642  0  0.85351  0  0  -0.098142  0  0.931206  0  0  -0.101253  0  0.926046  0  0  0.11213  -0.096259  0  0.935116  0
H  H5  1  0.35080999  0.66293886  0.80424013  1  0  -0.129653  0  0.853548  0  0  -0.098146  0  0.931245  0  0  -0.101262  0  0.926087  0  0  0.112136  -0.096267  0  0.935159  0
H  H6  1  0.10762669  0.28808794  0.30534131  1  0  0.435699  0  0.862081  0  0  0.408197  0  0.919582  0  0  0.418796  0  0.904036  0  0  0.306064  0.400649  0  0.930657  0
H  H7  1  0.89237465  0.71192137  0.69465832  1  0  0.435729  0  0.862007  0  0  0.408225  0  0.919518  0  0  0.418825  0  0.903971  0  0  0.306052  0.400675  0  0.930597  0
H  H8  1  0.11568377  0.51546155  0.30677027  1  0  0.439559  0  0.856866  0  0  0.411174  0  0.915513  0  0  0.422212  0  0.899315  0  0  0.305949  0.403311  0  0.927041  0
H  H9  1  0.88432296  0.48453212  0.69323071  1  0  0.439528  0  0.856888  0  0  0.411224  0  0.915422  0  0  0.422237  0  0.899254  0  0  0.30599  0.40336  0  0.92695  0
C  C10  1  0.99318084  0.10995882  0.49918763  1  0  0.586399  0  3.894822  0  0  0.542504  0  4.18888  0  0  0.57228  0  4.180311  0  0  0.242935  0.522218  0  4.194013  0
C  C11  1  0.00682719  0.89005543  0.50082047  1  0  0.586348  0  3.894962  0  0  0.542475  0  4.189003  0  0  0.57225  0  4.180438  0  0  0.24299  0.522195  0  4.194129  0
O  O12  1  0.80493671  0.06071029  0.97257614  1  0  -1.005296  0  2.077522  0  0  -0.936428  0  2.357478  0  0  -0.964314  0  2.33796  0  0  -0.502467  -0.915753  0  2.370375  0
O  O13  1  0.19505981  0.93929431  0.02742506  1  0  -1.005317  0  2.077423  0  0  -0.936429  0  2.35735  0  0  -0.964329  0  2.337858  0  0  -0.50246  -0.915756  0  2.370246  0
O  O14  1  0.45444697  0.20006885  0.89728466  1  0  -0.905337  0  1.953459  0  0  -0.836869  0  2.220206  0  0  -0.863615  0  2.199151  0  0  -0.475159  -0.817459  0  2.234483  0
O  O15  1  0.54555667  0.79993086  0.10270584  1  0  -0.90531  0  1.953327  0  0  -0.83686  0  2.220101  0  0  -0.863603  0  2.199049  0  0  -0.475144  -0.817439  0  2.234381  0
O  O16  1  0.80571740  0.41575072  0.98127705  1  0  -1.006279  0  2.086381  0  0  -0.937199  0  2.366494  0  0  -0.965154  0  2.347066  0  0  -0.501391  -0.916459  0  2.379292  0
O  O17  1  0.19428039  0.58425068  0.01872076  1  0  -1.006308  0  2.086411  0  0  -0.93723  0  2.366532  0  0  -0.965181  0  2.347099  0  0  -0.501414  -0.916481  0  2.379305  0
O  O18  1  0.02191258  0.26676083  0.65287283  1  0  -0.645767  0  2.091941  0  0  -0.598678  0  2.322436  0  0  -0.623229  0  2.312113  0  0  -0.331306  -0.581321  0  2.329252  0
O  O19  1  0.97811250  0.73322529  0.34713603  1  0  -0.645807  0  2.091886  0  0  -0.598705  0  2.322368  0  0  -0.623267  0  2.312055  0  0  -0.331307  -0.581341  0  2.329181  0
O  O20  1  0.04468238  0.88524100  0.65514070  1  0  -0.64601  0  2.093257  0  0  -0.600592  0  2.325917  0  0  -0.624902  0  2.315709  0  0  -0.329632  -0.583403  0  2.332648  0
O  O21  1  0.95530294  0.11475870  0.34485525  1  0  -0.646053  0  2.093061  0  0  -0.600649  0  2.325729  0  0  -0.624961  0  2.315524  0  0  -0.329623  -0.583454  0  2.332462  0
O  O22  1  0.17656225  0.37621580  0.25734351  1  0  -0.885079  0  1.820175  0  0  -0.84666  0  1.988861  0  0  -0.865806  0  1.956221  0  0  -0.64373  -0.832757  0  2.011909  0
O  O23  1  0.82343153  0.62378901  0.74266849  1  0  -0.885084  0  1.820145  0  0  -0.846747  0  1.988721  0  0  -0.865867  0  1.956137  0  0  -0.643747  -0.832835  0  2.011778  0
