# generated using pymatgen
data_CdH20C18(N2O3)2
_symmetry_space_group_name_H-M   'P 1'
_cell_length_a   9.03275009
_cell_length_b   9.28154723
_cell_length_c   14.49026970
_cell_angle_alpha   75.53495158
_cell_angle_beta   81.02205031
_cell_angle_gamma   78.14608090
_symmetry_Int_Tables_number   1
_chemical_formula_structural   CdH20C18(N2O3)2
_chemical_formula_sum   'Cd2 H40 C36 N8 O12'
_cell_volume   1144.18425345
_cell_formula_units_Z   2
loop_
 _symmetry_equiv_pos_site_id
 _symmetry_equiv_pos_as_xyz
  1  'x, y, z'
loop_
 _atom_site_type_symbol
 _atom_site_label
 _atom_site_symmetry_multiplicity
 _atom_site_fract_x
 _atom_site_fract_y
 _atom_site_fract_z
 _atom_site_occupancy
 _atom_site_hle17_bader_spin_density
 _atom_site_hle17_ddec_charge
 _atom_site_hle17_ddec_spin_density
 _atom_site_hle17_ddec_sum_bond_order
 _atom_site_hle17_magmom
 _atom_site_hse06_10hf_bader_spin_density
 _atom_site_hse06_10hf_ddec_charge
 _atom_site_hse06_10hf_ddec_spin_density
 _atom_site_hse06_10hf_ddec_sum_bond_order
 _atom_site_hse06_10hf_magmom
 _atom_site_hse06_bader_spin_density
 _atom_site_hse06_ddec_charge
 _atom_site_hse06_ddec_spin_density
 _atom_site_hse06_ddec_sum_bond_order
 _atom_site_hse06_magmom
 _atom_site_pbe_bader_spin_density
 _atom_site_pbe_cm5_charge
 _atom_site_pbe_ddec_charge
 _atom_site_pbe_ddec_spin_density
 _atom_site_pbe_ddec_sum_bond_order
 _atom_site_pbe_magmom
Cd  Cd0  1  0.12052597  0.30534403  0.02904269  1  0  1.093974  0  1.720038  0  0  0.89039  0  2.184154  0  0  0.951185  0  2.128472  0  0  0.762915  0.847657  0  2.222079  0
Cd  Cd1  1  0.87948050  0.69465024  0.97095742  1  0  1.093965  0  1.720033  0  0  0.890383  0  2.184156  0  0  0.951179  0  2.128472  0  0  0.762903  0.847649  0  2.222082  0
H  H2  1  0.63193507  0.01168337  0.43425687  1  0  0.3213  0  0.936269  0  0  0.302408  0  1.005646  0  0  0.310074  0  0.999819  0  0  0.292694  0.297062  0  1.009696  0
H  H3  1  0.36807110  0.98832667  0.56573995  1  0  0.321307  0  0.936281  0  0  0.302469  0  1.005561  0  0  0.310135  0  0.999736  0  0  0.292771  0.29713  0  1.00959  0
H  H4  1  0.59127512  0.83053036  0.48757516  1  0  0.344816  0  0.91337  0  0  0.326078  0  0.976552  0  0  0.335297  0  0.967982  0  0  0.294138  0.319492  0  0.982794  0
H  H5  1  0.40872389  0.16948221  0.51243089  1  0  0.344915  0  0.913144  0  0  0.326228  0  0.976272  0  0  0.335447  0  0.967698  0  0  0.294158  0.31964  0  0.982522  0
H  H6  1  0.64041268  0.90310065  0.64501708  1  0  0.328825  0  0.867202  0  0  0.321595  0  0.91301  0  0  0.328412  0  0.908422  0  0  0.318928  0.316815  0  0.916249  0
H  H7  1  0.35958463  0.09690171  0.35498602  1  0  0.328798  0  0.867209  0  0  0.321569  0  0.913021  0  0  0.328386  0  0.908434  0  0  0.318903  0.316789  0  0.91626  0
H  H8  1  0.62431789  0.82726311  0.76946390  1  0  0.359866  0  0.929356  0  0  0.333524  0  1.003109  0  0  0.343966  0  0.99374  0  0  0.294153  0.326186  0  1.00962  0
H  H9  1  0.37568426  0.17273012  0.23053818  1  0  0.359894  0  0.929347  0  0  0.333549  0  1.003105  0  0  0.34399  0  0.993734  0  0  0.294165  0.32621  0  1.009615  0
H  H10  1  0.87969553  0.08626457  0.04120178  1  0  0.10346  0  0.943053  0  0  0.108908  0  1.009538  0  0  0.112404  0  1.005948  0  0  0.121251  0.106243  0  1.012372  0
H  H11  1  0.12030866  0.91372295  0.95879830  1  0  0.103494  0  0.943039  0  0  0.108874  0  1.009546  0  0  0.112367  0  1.005966  0  0  0.121238  0.106212  0  1.012378  0
H  H12  1  0.74281789  0.90207381  0.16006439  1  0  0.116728  0  0.956953  0  0  0.123717  0  1.024126  0  0  0.12698  0  1.022763  0  0  0.113346  0.121535  0  1.025001  0
H  H13  1  0.25718051  0.09792177  0.83993973  1  0  0.116723  0  0.957046  0  0  0.12376  0  1.024165  0  0  0.127024  0  1.022805  0  0  0.113374  0.121577  0  1.025041  0
H  H14  1  0.88444755  0.05916747  0.38389887  1  0  0.105817  0  0.937525  0  0  0.118248  0  0.990806  0  0  0.121761  0  0.98975  0  0  0.109585  0.11571  0  0.991714  0
H  H15  1  0.11554574  0.94085292  0.61609883  1  0  0.105824  0  0.937511  0  0  0.118235  0  0.990816  0  0  0.121748  0  0.989762  0  0  0.109574  0.115694  0  0.991728  0
H  H16  1  0.02255706  0.23469890  0.25406657  1  0  0.092496  0  0.9331  0  0  0.101404  0  0.992219  0  0  0.104728  0  0.989409  0  0  0.118067  0.099003  0  0.994197  0
H  H17  1  0.97744371  0.76530999  0.74592544  1  0  0.09255  0  0.933221  0  0  0.101463  0  0.992307  0  0  0.104788  0  0.989494  0  0  0.118098  0.099062  0  0.994286  0
H  H18  1  0.21824492  0.36668908  0.80238285  1  0  0.086108  0  0.96285  0  0  0.092192  0  1.0305  0  0  0.094755  0  1.028439  0  0  0.118835  0.090396  0  1.031892  0
H  H19  1  0.78176415  0.63330294  0.19761945  1  0  0.086094  0  0.962981  0  0  0.092169  0  1.030629  0  0  0.094734  0  1.028565  0  0  0.11885  0.090374  0  1.03202  0
H  H20  1  0.35028042  0.53662428  0.66987144  1  0  0.133793  0  0.926314  0  0  0.141253  0  0.983988  0  0  0.146006  0  0.980513  0  0  0.119328  0.137785  0  0.986648  0
H  H21  1  0.64972081  0.46337462  0.33013047  1  0  0.133827  0  0.926291  0  0  0.141332  0  0.983908  0  0  0.146086  0  0.98043  0  0  0.119349  0.137865  0  0.986568  0
H  H22  1  0.48248355  0.72468564  0.88357543  1  0  0.124841  0  0.967681  0  0  0.134554  0  1.024808  0  0  0.138205  0  1.02378  0  0  0.114164  0.131812  0  1.025936  0
H  H23  1  0.51751114  0.27531902  0.11642753  1  0  0.124902  0  0.967662  0  0  0.134539  0  1.024873  0  0  0.138182  0  1.023852  0  0  0.114185  0.131797  0  1.026002  0
H  H24  1  0.33857966  0.55107209  0.00739362  1  0  0.077658  0  0.951824  0  0  0.086052  0  1.017499  0  0  0.087943  0  1.016672  0  0  0.116688  0.084853  0  1.017874  0
H  H25  1  0.66141654  0.44893025  0.99260752  1  0  0.07763  0  0.951878  0  0  0.08601  0  1.017578  0  0  0.0879  0  1.016746  0  0  0.116679  0.084811  0  1.017954  0
H  H26  1  0.44987196  0.89586150  0.20779183  1  0  0.089877  0  0.933551  0  0  0.105794  0  0.99243  0  0  0.107867  0  0.991778  0  0  0.091944  0.104342  0  0.992975  0
H  H27  1  0.55013264  0.10413050  0.79220607  1  0  0.089866  0  0.933551  0  0  0.10578  0  0.992412  0  0  0.107887  0  0.991723  0  0  0.091973  0.104331  0  0.992957  0
H  H28  1  0.53152461  0.87999705  0.09100532  1  0  0.107547  0  0.953829  0  0  0.121977  0  1.016249  0  0  0.124057  0  1.0159  0  0  0.098823  0.120466  0  1.016777  0
H  H29  1  0.46847829  0.11999159  0.90899332  1  0  0.107594  0  0.953809  0  0  0.122024  0  1.016205  0  0  0.124107  0  1.015859  0  0  0.098824  0.120514  0  1.016734  0
H  H30  1  0.31476051  0.76035740  0.07358545  1  0  0.065776  0  0.945973  0  0  0.084191  0  1.008993  0  0  0.085173  0  1.008784  0  0  0.087705  0.083256  0  1.009429  0
H  H31  1  0.68523697  0.23963700  0.92641550  1  0  0.065789  0  0.946007  0  0  0.084205  0  1.009002  0  0  0.085171  0  1.008815  0  0  0.087716  0.083274  0  1.009426  0
H  H32  1  0.42371467  0.65269897  0.16724872  1  0  0.04876  0  0.982988  0  0  0.066824  0  1.047754  0  0  0.065919  0  1.051804  0  0  0.078702  0.067238  0  1.045102  0
H  H33  1  0.57628394  0.34729539  0.83275075  1  0  0.048724  0  0.982946  0  0  0.066756  0  1.047737  0  0  0.065852  0  1.051782  0  0  0.078672  0.067167  0  1.045085  0
H  H34  1  0.22568522  0.77038611  0.28528014  1  0  0.057481  0  0.921125  0  0  0.077897  0  0.975426  0  0  0.078922  0  0.975471  0  0  0.084932  0.076959  0  0.975634  0
H  H35  1  0.77431472  0.22961388  0.71471895  1  0  0.057462  0  0.921154  0  0  0.07787  0  0.975452  0  0  0.078892  0  0.975501  0  0  0.084925  0.076932  0  0.975661  0
H  H36  1  0.11413498  0.85778842  0.18951374  1  0  0.064367  0  0.966228  0  0  0.079286  0  1.034044  0  0  0.079368  0  1.036638  0  0  0.084335  0.079059  0  1.032457  0
H  H37  1  0.88586476  0.14220591  0.81048493  1  0  0.064372  0  0.966222  0  0  0.079276  0  1.034025  0  0  0.079359  0  1.036617  0  0  0.084336  0.07905  0  1.032438  0
H  H38  1  0.20912438  0.51507638  0.26521918  1  0  0.094612  0  0.932092  0  0  0.109631  0  0.989795  0  0  0.111883  0  0.988984  0  0  0.090801  0.108011  0  0.990442  0
H  H39  1  0.79087290  0.48491921  0.73478435  1  0  0.09463  0  0.932062  0  0  0.109642  0  0.989767  0  0  0.111896  0  0.988953  0  0  0.090783  0.108019  0  0.990416  0
H  H40  1  0.02612108  0.62360333  0.28433408  1  0  0.109882  0  0.922466  0  0  0.125229  0  0.979691  0  0  0.127582  0  0.978932  0  0  0.101662  0.123439  0  0.980432  0
H  H41  1  0.97387698  0.37639442  0.71566487  1  0  0.109876  0  0.922433  0  0  0.125222  0  0.979658  0  0  0.127574  0  0.978899  0  0  0.101641  0.123424  0  0.980408  0
C  C42  1  0.87932058  0.07637444  0.11774800  1  0  0.134489  0  3.665657  0  0  0.101737  0  3.924266  0  0  0.109402  0  3.939757  0  0  0.052573  0.096744  0  3.913807  0
C  C43  1  0.12067879  0.92362214  0.88224964  1  0  0.13448  0  3.665591  0  0  0.101873  0  3.924126  0  0  0.109537  0  3.939617  0  0  0.052708  0.096876  0  3.913667  0
C  C44  1  0.80200773  0.97378272  0.18471324  1  0  -0.105963  0  3.672498  0  0  -0.130671  0  3.926597  0  0  -0.135536  0  3.945458  0  0  -0.069064  -0.127842  0  3.914099  0
C  C45  1  0.19799297  0.02621954  0.81528679  1  0  -0.105922  0  3.672645  0  0  -0.130739  0  3.926733  0  0  -0.135607  0  3.945589  0  0  -0.06912  -0.127911  0  3.91424  0
C  C46  1  0.80200203  0.96553062  0.28229043  1  0  -0.010236  0  3.732117  0  0  0.00926  0  3.962089  0  0  0.007544  0  3.983984  0  0  0.005202  0.010368  0  3.947562  0
C  C47  1  0.19799661  0.03447738  0.71771298  1  0  -0.010191  0  3.732215  0  0  0.009317  0  3.962143  0  0  0.007605  0  3.984034  0  0  0.005215  0.010423  0  3.947618  0
C  C48  1  0.88124068  0.06114606  0.30871440  1  0  -0.143527  0  3.737518  0  0  -0.164656  0  3.985848  0  0  -0.1708  0  4.007437  0  0  -0.083909  -0.160473  0  3.971198  0
C  C49  1  0.11875349  0.93886193  0.69128530  1  0  -0.143496  0  3.737485  0  0  -0.164642  0  3.985787  0  0  -0.170788  0  4.007377  0  0  -0.083925  -0.160457  0  3.971135  0
C  C50  1  0.95793386  0.15891037  0.23746712  1  0  0.122109  0  3.716961  0  0  0.092172  0  3.971796  0  0  0.098409  0  3.990971  0  0  0.044229  0.088211  0  3.958279  0
C  C51  1  0.04205845  0.84109528  0.76252762  1  0  0.122007  0  3.717193  0  0  0.092121  0  3.971968  0  0  0.098359  0  3.991139  0  0  0.044248  0.088162  0  3.958446  0
C  C52  1  0.72307154  0.85151493  0.35573396  1  0  0.599725  0  3.880654  0  0  0.558962  0  4.163481  0  0  0.587639  0  4.161951  0  0  0.233704  0.539585  0  4.163992  0
C  C53  1  0.27692520  0.14847715  0.64426331  1  0  0.599508  0  3.880699  0  0  0.558849  0  4.163348  0  0  0.587523  0  4.161825  0  0  0.233695  0.539472  0  4.163856  0
C  C54  1  0.27578060  0.44864391  0.81802930  1  0  0.139477  0  3.6791  0  0  0.108621  0  3.932089  0  0  0.11493  0  3.950377  0  0  0.052597  0.104528  0  3.919485  0
C  C55  1  0.72422401  0.55135491  0.18197092  1  0  0.139452  0  3.679269  0  0  0.108611  0  3.932215  0  0  0.114916  0  3.950507  0  0  0.052574  0.104518  0  3.919614  0
C  C56  1  0.35043285  0.54347862  0.74374479  1  0  -0.107224  0  3.665515  0  0  -0.13012  0  3.911935  0  0  -0.134383  0  3.930064  0  0  -0.066243  -0.127402  0  3.899662  0
C  C57  1  0.64956672  0.45652367  0.25625602  1  0  -0.107298  0  3.665481  0  0  -0.130218  0  3.911846  0  0  -0.13448  0  3.929976  0  0  -0.06626  -0.127498  0  3.899575  0
C  C58  1  0.42542944  0.64666415  0.76542951  1  0  -0.004558  0  3.717695  0  0  0.013552  0  3.952391  0  0  0.011496  0  3.973651  0  0  0.009566  0.015224  0  3.93775  0
C  C59  1  0.57456528  0.35334043  0.23456932  1  0  -0.004621  0  3.717852  0  0  0.013477  0  3.952531  0  0  0.011419  0  3.973791  0  0  0.009522  0.01515  0  3.937894  0
C  C60  1  0.42461066  0.64822597  0.86191296  1  0  -0.128375  0  3.676557  0  0  -0.149405  0  3.923663  0  0  -0.154782  0  3.944296  0  0  -0.075752  -0.145812  0  3.909855  0
C  C61  1  0.57538647  0.35177752  0.13808996  1  0  -0.128346  0  3.676578  0  0  -0.149318  0  3.923704  0  0  -0.154686  0  3.944325  0  0  -0.075729  -0.145724  0  3.909898  0
C  C62  1  0.34515196  0.55063849  0.93169792  1  0  0.124887  0  3.708551  0  0  0.093253  0  3.966618  0  0  0.099348  0  3.985559  0  0  0.048515  0.089163  0  3.95371  0
C  C63  1  0.65484760  0.44936381  0.06830359  1  0  0.124989  0  3.70852  0  0  0.093349  0  3.966584  0  0  0.09945  0  3.985518  0  0  0.048578  0.08926  0  3.95368  0
C  C64  1  0.49743963  0.75337658  0.68311040  1  0  0.599356  0  3.860825  0  0  0.550284  0  4.154015  0  0  0.578907  0  4.153993  0  0  0.242422  0.531162  0  4.153062  0
C  C65  1  0.50255751  0.24662689  0.31689115  1  0  0.599336  0  3.860826  0  0  0.550258  0  4.154016  0  0  0.578884  0  4.153991  0  0  0.242363  0.531135  0  4.153066  0
C  C66  1  0.33051797  0.04250003  0.09258118  1  0  0.689727  0  3.841382  0  0  0.642218  0  4.138957  0  0  0.675435  0  4.133665  0  0  0.198222  0.619662  0  4.141515  0
C  C67  1  0.66948739  0.95749421  0.90741628  1  0  0.689823  0  3.841085  0  0  0.642265  0  4.138722  0  0  0.675484  0  4.133434  0  0  0.198202  0.619709  0  4.141282  0
C  C68  1  0.42262956  0.89185084  0.13719061  1  0  -0.263601  0  3.678031  0  0  -0.300393  0  3.930219  0  0  -0.306504  0  3.938631  0  0  -0.169395  -0.29616  0  3.924442  0
C  C69  1  0.57737354  0.10814347  0.86280912  1  0  -0.263742  0  3.677997  0  0  -0.300509  0  3.930175  0  0  -0.306652  0  3.93858  0  0  -0.169461  -0.296277  0  3.924392  0
C  C70  1  0.34355207  0.75795897  0.14507537  1  0  -0.086156  0  3.69096  0  0  -0.125743  0  3.947555  0  0  -0.126188  0  3.962205  0  0  -0.172084  -0.125491  0  3.937776  0
C  C71  1  0.65644766  0.24203538  0.85492468  1  0  -0.08608  0  3.690978  0  0  -0.125629  0  3.947477  0  0  -0.12607  0  3.962137  0  0  -0.17203  -0.125375  0  3.937699  0
C  C72  1  0.19920434  0.75883411  0.21597463  1  0  -0.083801  0  3.694797  0  0  -0.122657  0  3.95434  0  0  -0.123098  0  3.968726  0  0  -0.170994  -0.122138  0  3.944568  0
C  C73  1  0.80079408  0.24116139  0.78402535  1  0  -0.083772  0  3.694901  0  0  -0.122591  0  3.95438  0  0  -0.123031  0  3.968762  0  0  -0.171005  -0.122073  0  3.944606  0
C  C74  1  0.13035697  0.61578555  0.23334265  1  0  -0.263813  0  3.672599  0  0  -0.298011  0  3.922158  0  0  -0.304428  0  3.930421  0  0  -0.167331  -0.293688  0  3.91658  0
C  C75  1  0.86964332  0.38421223  0.76665954  1  0  -0.26387  0  3.672624  0  0  -0.298079  0  3.922095  0  0  -0.304488  0  3.930352  0  0  -0.167284  -0.293749  0  3.916524  0
C  C76  1  0.08285661  0.58746805  0.14398012  1  0  0.706396  0  3.860912  0  0  0.656918  0  4.164422  0  0  0.691937  0  4.156744  0  0  0.207264  0.633307  0  4.168618  0
C  C77  1  0.91714630  0.41252741  0.85602082  1  0  0.706434  0  3.861029  0  0  0.657073  0  4.164325  0  0  0.692078  0  4.156666  0  0  0.207285  0.633464  0  4.168519  0
N  N78  1  0.95656200  0.16671010  0.14368766  1  0  -0.330103  0  3.259626  0  0  -0.2536  0  3.524564  0  0  -0.273673  0  3.545057  0  0  -0.328293  -0.239725  0  3.50994  0
N  N79  1  0.04343610  0.83328754  0.85630579  1  0  -0.33012  0  3.259642  0  0  -0.253689  0  3.524567  0  0  -0.273767  0  3.545073  0  0  -0.328411  -0.239814  0  3.509942  0
N  N80  1  0.65278785  0.89871500  0.43523404  1  0  -0.711234  0  3.106476  0  0  -0.67409  0  3.332395  0  0  -0.69709  0  3.325408  0  0  -0.580832  -0.658527  0  3.337118  0
N  N81  1  0.34720989  0.10129863  0.56476713  1  0  -0.711019  0  3.106694  0  0  -0.674018  0  3.332547  0  0  -0.697013  0  3.32556  0  0  -0.58077  -0.658461  0  3.337268  0
N  N82  1  0.27114254  0.45330031  0.91058756  1  0  -0.339237  0  3.257347  0  0  -0.261511  0  3.527421  0  0  -0.280955  0  3.545239  0  0  -0.326116  -0.248114  0  3.515152  0
N  N83  1  0.72886000  0.54669744  0.08941442  1  0  -0.339266  0  3.257457  0  0  -0.261548  0  3.527536  0  0  -0.280992  0  3.545354  0  0  -0.326149  -0.248149  0  3.515268  0
N  N84  1  0.59671070  0.82889881  0.70159814  1  0  -0.673269  0  3.088959  0  0  -0.634863  0  3.320234  0  0  -0.658723  0  3.315029  0  0  -0.553796  -0.618396  0  3.323258  0
N  N85  1  0.40328829  0.17110010  0.29840329  1  0  -0.673233  0  3.088993  0  0  -0.634835  0  3.320271  0  0  -0.658693  0  3.315062  0  0  -0.553742  -0.618367  0  3.323294  0
O  O86  1  0.72756174  0.72370303  0.34215511  1  0  -0.561652  0  1.86545  0  0  -0.522571  0  2.06713  0  0  -0.543067  0  2.06023  0  0  -0.309428  -0.508256  0  2.07151  0
O  O87  1  0.27243170  0.27631633  0.65784759  1  0  -0.561848  0  1.864783  0  0  -0.522799  0  2.066387  0  0  -0.543303  0  2.059492  0  0  -0.309592  -0.508476  0  2.070762  0
O  O88  1  0.46051564  0.76970804  0.60044991  1  0  -0.597299  0  1.92199  0  0  -0.548575  0  2.131212  0  0  -0.569609  0  2.122504  0  0  -0.308584  -0.533933  0  2.136759  0
O  O89  1  0.53947852  0.23029998  0.39955185  1  0  -0.597334  0  1.921929  0  0  -0.548593  0  2.131161  0  0  -0.569629  0  2.122452  0  0  -0.30858  -0.533947  0  2.136713  0
O  O90  1  0.32500844  0.15847344  0.12727500  1  0  -0.670945  0  2.007728  0  0  -0.600884  0  2.244348  0  0  -0.629827  0  2.234697  0  0  -0.332041  -0.580796  0  2.250452  0
O  O91  1  0.67499390  0.84151863  0.87272519  1  0  -0.670902  0  2.007644  0  0  -0.600875  0  2.244343  0  0  -0.629811  0  2.23467  0  0  -0.33204  -0.580787  0  2.250447  0
O  O92  1  0.26066658  0.05221076  0.02121351  1  0  -0.633923  0  1.949583  0  0  -0.567452  0  2.186607  0  0  -0.596241  0  2.178914  0  0  -0.321656  -0.547166  0  2.19121  0
O  O93  1  0.73934215  0.94778343  0.97878363  1  0  -0.633972  0  1.949431  0  0  -0.567497  0  2.186528  0  0  -0.596288  0  2.178828  0  0  -0.321646  -0.547212  0  2.191131  0
O  O94  1  0.02592650  0.70202015  0.08298605  1  0  -0.650891  0  2.022467  0  0  -0.578985  0  2.284668  0  0  -0.609335  0  2.274088  0  0  -0.328896  -0.557905  0  2.291108  0
O  O95  1  0.97407885  0.29797413  0.91701348  1  0  -0.650826  0  2.022393  0  0  -0.578982  0  2.284546  0  0  -0.609329  0  2.273972  0  0  -0.328858  -0.557902  0  2.290985  0
O  O96  1  0.09990760  0.45044700  0.13818770  1  0  -0.678358  0  2.04985  0  0  -0.613916  0  2.321283  0  0  -0.643266  0  2.308086  0  0  -0.342865  -0.593431  0  2.329244  0
O  O97  1  0.90009456  0.54954620  0.86181232  1  0  -0.678393  0  2.049926  0  0  -0.614015  0  2.32135  0  0  -0.643362  0  2.308158  0  0  -0.342917  -0.593529  0  2.329309  0
