# generated using pymatgen
data_Zn2H21C37Br2N3O8
_symmetry_space_group_name_H-M   'P 1'
_cell_length_a   11.62669553
_cell_length_b   13.19257310
_cell_length_c   13.74626886
_cell_angle_alpha   85.76658922
_cell_angle_beta   59.05848646
_cell_angle_gamma   83.79687795
_symmetry_Int_Tables_number   1
_chemical_formula_structural   Zn2H21C37Br2N3O8
_chemical_formula_sum   'Zn2 H21 C37 Br2 N3 O8'
_cell_volume   1797.43185365
_cell_formula_units_Z   1
loop_
 _symmetry_equiv_pos_site_id
 _symmetry_equiv_pos_as_xyz
  1  'x, y, z'
loop_
 _atom_site_type_symbol
 _atom_site_label
 _atom_site_symmetry_multiplicity
 _atom_site_fract_x
 _atom_site_fract_y
 _atom_site_fract_z
 _atom_site_occupancy
 _atom_site_pbe_bader_charge
 _atom_site_pbe_bader_spin_density
 _atom_site_pbe_cm5_charge
 _atom_site_pbe_ddec_charge
 _atom_site_pbe_ddec_spin_density
 _atom_site_pbe_ddec_sum_bond_order
 _atom_site_pbe_magmom
Zn  Zn0  1  0.63557753  0.49944976  0.46250930  1  1.289087  0  0.671842  0.835678  0  2.40745  0
Zn  Zn1  1  0.35907059  0.50480509  0.53746644  1  1.28694  0  0.671278  0.826825  0  2.403957  0
H  H2  1  0.21137461  0.61208279  0.86931429  1  0.079737  0  0.109893  0.118954  0  0.979682  0
H  H3  1  0.12281919  0.37996143  0.66796604  1  0.120839  0  0.134108  0.113907  0  0.958542  0
H  H4  1  0.30538802  0.70869964  0.13832052  1  0.056642  0  0.09566  0.102826  0  1.018887  0
H  H5  1  0.22713325  0.60969270  0.42208046  1  0.15851  0  0.13031  0.108505  0  0.985761  0
H  H6  1  0.18869340  0.67807757  0.04481041  1  0.062763  0  0.098464  0.099934  0  0.998034  0
H  H7  1  0.71356519  0.33296780  0.19128745  1  0.09463  0  0.107894  0.116233  0  0.98883  0
H  H8  1  0.57463912  0.30095392  0.96201462  1  0.076986  0  0.081099  0.084821  0  1.097888  0
H  H9  1  0.70798279  0.23179869  0.04636540  1  0.07587  0  0.10145  0.099638  0  0.988399  0
H  H10  1  0.39368286  0.18048410  0.45403560  1  0.086359  0  0.105407  0.1126  0  1.000074  0
H  H11  1  0.42508042  0.74700666  0.21115471  1  0.389816  0  0.306263  0.240307  0  0.943149  0
H  H12  1  0.61407603  0.73286544  0.24626967  1  0.064315  0  0.099803  0.117204  0  0.996595  0
H  H13  1  0.65800644  0.17732736  0.58554631  1  0.081801  0  0.097787  0.103208  0  1.009657  0
H  H14  1  0.66542399  0.75504564  0.09959391  1  0.016168  0  0.091249  0.088608  0  0.990221  0
H  H15  1  0.68512571  0.63068504  0.15081454  1  0.07574  0  0.107047  0.120605  0  1.014996  0
H  H16  1  0.32720387  0.01945047  0.42517366  1  0.040457  0  0.102834  0.104909  0  0.994679  0
H  H17  1  0.66161095  0.98848998  0.60736886  1  0.085705  0  0.088528  0.091221  0  1.049941  0
H  H18  1  0.33620760  0.82906676  0.43901685  1  0.059636  0  0.10168  0.104863  0  0.998494  0
H  H19  1  0.77681035  0.39477643  0.56452913  1  0.158303  0  0.116787  0.094451  0  1.034025  0
H  H20  1  0.86794983  0.63524273  0.33243377  1  0.135922  0  0.13091  0.110791  0  0.96541  0
H  H21  1  0.91960659  0.34659755  0.65854059  1  0.107728  0  0.114437  0.121717  0  0.998234  0
H  H22  1  0.07613342  0.66431130  0.33591211  1  0.093475  0  0.115604  0.122005  0  0.992446  0
C  C23  1  0.47696264  0.70003445  0.50210999  1  1.614313  0  0.212538  0.604176  0  4.179593  0
C  C24  1  0.59303818  0.46059212  0.17703158  1  -0.087873  0  -0.015903  -0.068636  0  3.929927  0
C  C25  1  0.52522350  0.18979461  0.51815242  1  -0.028541  0  -0.01717  -0.021256  0  3.982394  0
C  C26  1  0.56926647  0.49423471  0.28858283  1  1.575057  0  0.21405  0.595964  0  4.18354  0
C  C27  1  0.46943936  0.81432787  0.50553842  1  0.007613  0  -0.020195  -0.068219  0  3.96863  0
C  C28  1  0.38612982  0.97605719  0.45778057  1  0.030239  0  -0.094591  -0.142523  0  4.02384  0
C  C29  1  0.39146357  0.87140568  0.46471119  1  -0.064126  0  -0.091846  -0.100412  0  4.026602  0
C  C30  1  0.53696174  0.86567908  0.54298932  1  -0.071731  0  -0.009227  0.042335  0  3.887389  0
C  C31  1  0.53399704  0.97417472  0.53802303  1  -0.010707  0  -0.011064  0.034108  0  3.97866  0
C  C32  1  0.45718655  0.02984671  0.49316453  1  0.000395  0  -0.005566  0.087278  0  4.005769  0
C  C33  1  0.45331628  0.13762701  0.48624288  1  -0.050847  0  -0.079436  -0.141062  0  3.931703  0
C  C34  1  0.52386405  0.44975051  0.03609921  1  0.002611  0  -0.005653  0.051713  0  3.931698  0
C  C35  1  0.60206962  0.13477651  0.56089287  1  0.004687  0  -0.088085  -0.090634  0  3.992705  0
C  C36  1  0.60432314  0.03013761  0.57246118  1  -0.074541  0  -0.099833  -0.132944  0  4.010171  0
C  C37  1  0.98503445  0.40532734  0.60506942  1  -0.069983  0  -0.067309  -0.152599  0  3.953153  0
C  C38  1  0.52250400  0.30361127  0.50698323  1  1.590063  0  0.214114  0.593892  0  4.170375  0
C  C39  1  0.09520002  0.42348971  0.61143173  1  0.46411  0  0.052637  0.085414  0  3.915968  0
C  C40  1  0.15451164  0.55440098  0.47405910  1  0.524974  0  0.083659  0.08594  0  3.832606  0
C  C41  1  0.04266745  0.54311075  0.46219716  1  -0.024685  0  0.013631  0.055391  0  3.992982  0
C  C42  1  0.95672761  0.46535086  0.52902415  1  0.085986  0  0.012907  0.056557  0  3.990762  0
C  C43  1  0.84589023  0.45312961  0.51613484  1  0.538874  0  0.07973  0.084266  0  3.839348  0
C  C44  1  0.89949086  0.58834555  0.38453895  1  0.45738  0  0.050328  0.082423  0  3.928317  0
C  C45  1  0.52810499  0.50777816  0.11901349  1  0.048789  0  -0.000777  -0.019781  0  3.874711  0
C  C46  1  0.01192939  0.60461461  0.38838209  1  -0.04432  0  -0.068836  -0.154534  0  3.958326  0
C  C47  1  0.41310459  0.49794067  0.71620248  1  1.591698  0  0.207822  0.601261  0  4.183744  0
C  C48  1  0.26420540  0.61624821  0.99814794  1  -0.024492  0  -0.101565  -0.149537  0  4.022328  0
C  C49  1  0.38257604  0.50787074  0.83560249  1  0.080542  0  -0.030665  -0.087456  0  3.982069  0
C  C50  1  0.66354996  0.36508815  0.14596641  1  -0.032015  0  -0.086369  -0.093548  0  3.994793  0
C  C51  1  0.65925907  0.30901380  0.06590467  1  -0.006608  0  -0.098721  -0.084615  0  4.070971  0
C  C52  1  0.58630250  0.34924937  0.01621489  1  -0.086124  0  -0.103474  -0.139484  0  4.026152  0
C  C53  1  0.61914570  0.70121153  0.17240970  1  0.277059  0  -0.139816  -0.215651  0  3.946728  0
C  C54  1  0.44907122  0.49190183  0.98109424  1  0.036255  0  -0.01402  -0.036011  0  3.921714  0
C  C55  1  0.35516828  0.57872693  0.03433802  1  -0.005071  0  -0.010565  0.109466  0  4.064795  0
C  C56  1  0.36456695  0.63502472  0.11362395  1  -0.041082  0  -0.124495  -0.301387  0  4.043071  0
C  C57  1  0.46062711  0.61027742  0.14388872  1  0.366331  0  0.100204  0.202709  0  4.071677  0
C  C58  1  0.46168314  0.46155537  0.87863787  1  -0.125328  0  -0.005125  0.056495  0  3.854864  0
C  C59  1  0.27673498  0.58089297  0.90122850  1  -0.068672  0  -0.087243  -0.085708  0  4.017139  0
Br  Br60  1  0.63169603  0.79012453  0.60821677  1  -0.067267  0  0.024812  -0.059378  0  1.445339  0
Br  Br61  1  0.58947536  0.35341851  0.78618340  1  -0.092406  0  0.049403  -0.056332  0  1.587462  0
N  N62  1  0.81862777  0.51267905  0.44746029  1  -1.234761  0  -0.310613  -0.18074  0  3.510413  0
N  N63  1  0.17853110  0.49695706  0.54593335  1  -1.225955  0  -0.311612  -0.184129  0  3.520517  0
N  N64  1  0.48444826  0.68123282  0.19951260  1  -1.138312  0  -0.445807  -0.28132  0  3.550676  0
O  O65  1  0.59404232  0.65458884  0.45009792  1  -1.172348  0  -0.314975  -0.556002  0  2.374099  0
O  O66  1  0.36565446  0.65956650  0.54786281  1  -1.157689  0  -0.317156  -0.537708  0  2.274162  0
O  O67  1  0.66924464  0.48259551  0.30406323  1  -1.158489  0  -0.324795  -0.549973  0  2.299147  0
O  O68  1  0.44908034  0.52259338  0.36238003  1  -1.177237  0  -0.313674  -0.562  0  2.403131  0
O  O69  1  0.62334533  0.34433955  0.49588764  1  -1.162461  0  -0.319528  -0.551104  0  2.314009  0
O  O70  1  0.42009760  0.35094350  0.50863901  1  -1.170469  0  -0.319584  -0.555595  0  2.32349  0
O  O71  1  0.53188565  0.51478877  0.63836042  1  -1.16922  0  -0.318212  -0.570183  0  2.397706  0
O  O72  1  0.31672951  0.48242855  0.70156240  1  -1.151046  0  -0.322664  -0.538737  0  2.26152  0
