# generated using pymatgen
data_ZnH7C7NO6
_symmetry_space_group_name_H-M   'P 1'
_cell_length_a   7.27220758
_cell_length_b   9.26746209
_cell_length_c   12.82272259
_cell_angle_alpha   89.99964711
_cell_angle_beta   89.99995123
_cell_angle_gamma   89.99961555
_symmetry_Int_Tables_number   1
_chemical_formula_structural   ZnH7C7NO6
_chemical_formula_sum   'Zn4 H28 C28 N4 O24'
_cell_volume   864.18620959
_cell_formula_units_Z   4
loop_
 _symmetry_equiv_pos_site_id
 _symmetry_equiv_pos_as_xyz
  1  'x, y, z'
loop_
 _atom_site_type_symbol
 _atom_site_label
 _atom_site_symmetry_multiplicity
 _atom_site_fract_x
 _atom_site_fract_y
 _atom_site_fract_z
 _atom_site_occupancy
 _atom_site_hle17_bader_spin_density
 _atom_site_hle17_ddec_charge
 _atom_site_hle17_ddec_spin_density
 _atom_site_hle17_ddec_sum_bond_order
 _atom_site_hle17_magmom
 _atom_site_hse06_10hf_bader_spin_density
 _atom_site_hse06_10hf_ddec_charge
 _atom_site_hse06_10hf_ddec_spin_density
 _atom_site_hse06_10hf_ddec_sum_bond_order
 _atom_site_hse06_10hf_magmom
 _atom_site_hse06_bader_spin_density
 _atom_site_hse06_ddec_charge
 _atom_site_hse06_ddec_spin_density
 _atom_site_hse06_ddec_sum_bond_order
 _atom_site_hse06_magmom
 _atom_site_pbe_bader_spin_density
 _atom_site_pbe_cm5_charge
 _atom_site_pbe_ddec_charge
 _atom_site_pbe_ddec_spin_density
 _atom_site_pbe_ddec_sum_bond_order
 _atom_site_pbe_magmom
Zn  Zn0  1  0.10665778  0.36403358  0.26466991  1  0  1.119872  0  1.762242  0  0  0.95112  0  2.209652  0  0  0.997948  0  2.153773  0  0  0.678554  0.918203  0  2.248151  0
Zn  Zn1  1  0.39334232  0.63596715  0.76467377  1  0  1.119832  0  1.762275  0  0  0.951102  0  2.209679  0  0  0.997934  0  2.1538  0  0  0.678517  0.918183  0  2.248172  0
Zn  Zn2  1  0.60665661  0.13596790  0.73532696  1  0  1.119898  0  1.762226  0  0  0.951175  0  2.209643  0  0  0.998006  0  2.15376  0  0  0.678544  0.918256  0  2.248138  0
Zn  Zn3  1  0.89333560  0.86403153  0.23533153  1  0  1.119851  0  1.762278  0  0  0.951136  0  2.209687  0  0  0.997966  0  2.153807  0  0  0.678528  0.918219  0  2.248184  0
H  H4  1  0.59206770  0.60119019  0.48407893  1  0  0.110624  0  0.97893  0  0  0.115563  0  1.047404  0  0  0.120035  0  1.043735  0  0  0.111921  0.112441  0  1.050134  0
H  H5  1  0.90792974  0.39880828  0.98408076  1  0  0.1107  0  0.978982  0  0  0.115649  0  1.04744  0  0  0.120122  0  1.043776  0  0  0.111954  0.11253  0  1.050171  0
H  H6  1  0.09207104  0.89881222  0.51592031  1  0  0.110733  0  0.979004  0  0  0.115673  0  1.047471  0  0  0.120149  0  1.043805  0  0  0.111954  0.11255  0  1.0502  0
H  H7  1  0.40792795  0.10120134  0.01591826  1  0  0.110685  0  0.979001  0  0  0.115617  0  1.04747  0  0  0.120094  0  1.043808  0  0  0.111926  0.112496  0  1.050201  0
H  H8  1  0.84154847  0.41244863  0.46434869  1  0  0.111365  0  0.930401  0  0  0.12082  0  0.989425  0  0  0.124085  0  0.98716  0  0  0.11503  0.118477  0  0.991132  0
H  H9  1  0.65845723  0.58755109  0.96434591  1  0  0.111226  0  0.930607  0  0  0.120784  0  0.989537  0  0  0.12398  0  0.987359  0  0  0.115013  0.118451  0  0.991235  0
H  H10  1  0.34154761  0.08754839  0.53566285  1  0  0.11128  0  0.930605  0  0  0.120799  0  0.989557  0  0  0.124024  0  0.987347  0  0  0.115057  0.118456  0  0.991264  0
H  H11  1  0.15845686  0.91245529  0.03565174  1  0  0.111187  0  0.930634  0  0  0.120793  0  0.989517  0  0  0.123996  0  0.987328  0  0  0.115024  0.118451  0  0.991223  0
H  H12  1  0.45318067  0.15771935  0.28896933  1  0  0.099265  0  0.927379  0  0  0.104797  0  0.994084  0  0  0.108156  0  0.990963  0  0  0.122457  0.102228  0  0.996645  0
H  H13  1  0.04682765  0.84227794  0.78897635  1  0  0.099233  0  0.927498  0  0  0.104765  0  0.994196  0  0  0.10812  0  0.991094  0  0  0.122459  0.102195  0  0.996754  0
H  H14  1  0.95317087  0.34227601  0.71102732  1  0  0.099172  0  0.927576  0  0  0.104722  0  0.994261  0  0  0.10808  0  0.991146  0  0  0.122434  0.102153  0  0.996823  0
H  H15  1  0.54681999  0.65773010  0.21101902  1  0  0.099227  0  0.927536  0  0  0.1047  0  0.994311  0  0  0.108049  0  0.991197  0  0  0.122432  0.102132  0  0.996871  0
H  H16  1  0.07691814  0.15200849  0.13725753  1  0  0.422609  0  0.890325  0  0  0.389504  0  0.956423  0  0  0.401031  0  0.939994  0  0  0.290966  0.38127  0  0.968168  0
H  H17  1  0.42308072  0.84798572  0.63725493  1  0  0.422618  0  0.890286  0  0  0.389505  0  0.956401  0  0  0.401035  0  0.939968  0  0  0.290961  0.381267  0  0.968155  0
H  H18  1  0.57693287  0.34798559  0.86274482  1  0  0.422545  0  0.890443  0  0  0.389454  0  0.956508  0  0  0.400974  0  0.94009  0  0  0.290966  0.381221  0  0.968251  0
H  H19  1  0.92307157  0.65201064  0.36274489  1  0  0.422538  0  0.890437  0  0  0.389443  0  0.956507  0  0  0.400965  0  0.940089  0  0  0.290948  0.381209  0  0.968254  0
H  H20  1  0.19840484  0.26972565  0.07910732  1  0  0.429866  0  0.86366  0  0  0.400321  0  0.926471  0  0  0.410106  0  0.912292  0  0  0.298631  0.393404  0  0.936508  0
H  H21  1  0.30159133  0.73026689  0.57911003  1  0  0.429907  0  0.863621  0  0  0.400336  0  0.926453  0  0  0.410123  0  0.912271  0  0  0.298634  0.393415  0  0.936495  0
H  H22  1  0.69840541  0.23026564  0.92089027  1  0  0.429837  0  0.863677  0  0  0.400285  0  0.926517  0  0  0.41007  0  0.912338  0  0  0.298627  0.393364  0  0.936558  0
H  H23  1  0.80159897  0.76972903  0.42089611  1  0  0.429869  0  0.863646  0  0  0.400324  0  0.926491  0  0  0.410111  0  0.912305  0  0  0.298626  0.393402  0  0.936533  0
H  H24  1  0.89686283  0.53036872  0.16580572  1  0  0.418207  0  0.877437  0  0  0.387122  0  0.950271  0  0  0.398359  0  0.934024  0  0  0.291765  0.379083  0  0.961897  0
H  H25  1  0.60312945  0.46963128  0.66580819  1  0  0.418247  0  0.877388  0  0  0.387141  0  0.950262  0  0  0.39838  0  0.934011  0  0  0.291786  0.379103  0  0.961887  0
H  H26  1  0.39686934  0.96963425  0.83419178  1  0  0.418236  0  0.877385  0  0  0.387148  0  0.95024  0  0  0.398385  0  0.933992  0  0  0.291789  0.379107  0  0.961868  0
H  H27  1  0.10312930  0.03036590  0.33419492  1  0  0.418267  0  0.877332  0  0  0.387182  0  0.950193  0  0  0.398419  0  0.933946  0  0  0.291795  0.379141  0  0.961821  0
H  H28  1  0.81349545  0.37091330  0.14129182  1  0  0.421794  0  0.863756  0  0  0.39168  0  0.93313  0  0  0.401753  0  0.918408  0  0  0.296869  0.384456  0  0.94376  0
H  H29  1  0.68649824  0.62908583  0.64129506  1  0  0.421859  0  0.863703  0  0  0.391749  0  0.933042  0  0  0.401821  0  0.918321  0  0  0.296906  0.384523  0  0.943675  0
H  H30  1  0.31350762  0.12909141  0.85870648  1  0  0.421813  0  0.86372  0  0  0.391722  0  0.93307  0  0  0.401794  0  0.91835  0  0  0.296898  0.384498  0  0.943701  0
H  H31  1  0.18649374  0.87090638  0.35870958  1  0  0.421874  0  0.863829  0  0  0.391759  0  0.933062  0  0  0.401832  0  0.91834  0  0  0.296889  0.384532  0  0.943697  0
C  C32  1  0.39684421  0.47572196  0.39866996  1  0  0.096315  0  3.724475  0  0  0.095196  0  3.971593  0  0  0.096351  0  3.99145  0  0  0.112444  0.09384  0  3.958695  0
C  C33  1  0.10315024  0.52428305  0.89867608  1  0  0.09587  0  3.724356  0  0  0.094827  0  3.971448  0  0  0.095984  0  3.991312  0  0  0.112367  0.09346  0  3.958564  0
C  C34  1  0.89684690  0.02428879  0.60132594  1  0  0.095945  0  3.724692  0  0  0.09488  0  3.971783  0  0  0.096042  0  3.991638  0  0  0.112353  0.093508  0  3.958903  0
C  C35  1  0.60315095  0.97571390  0.10132628  1  0  0.09601  0  3.724591  0  0  0.094934  0  3.971714  0  0  0.096093  0  3.991577  0  0  0.112447  0.093565  0  3.958829  0
C  C36  1  0.24237620  0.58415116  0.40488139  1  0  0.638869  0  3.880237  0  0  0.578451  0  4.185315  0  0  0.61199  0  4.177345  0  0  0.221914  0.555755  0  4.19014  0
C  C37  1  0.25762237  0.41583007  0.90488557  1  0  0.638962  0  3.880366  0  0  0.578597  0  4.185346  0  0  0.612131  0  4.177382  0  0  0.222162  0.555906  0  4.190166  0
C  C38  1  0.74238102  0.91583212  0.59511230  1  0  0.638904  0  3.88058  0  0  0.578538  0  4.185564  0  0  0.612075  0  4.177595  0  0  0.22205  0.555845  0  4.190384  0
C  C39  1  0.75761135  0.08416739  0.09511510  1  0  0.638863  0  3.880745  0  0  0.578463  0  4.185748  0  0  0.612  0  4.17778  0  0  0.221991  0.555776  0  4.190571  0
C  C40  1  0.56786505  0.49999011  0.44360493  1  0  -0.087085  0  3.684417  0  0  -0.110748  0  3.939019  0  0  -0.114802  0  3.956704  0  0  -0.068543  -0.108152  0  3.927321  0
C  C41  1  0.93212831  0.50000654  0.94360784  1  0  -0.087119  0  3.684744  0  0  -0.110824  0  3.939445  0  0  -0.11488  0  3.957115  0  0  -0.068638  -0.108227  0  3.927759  0
C  C42  1  0.06787179  0.00000941  0.55639040  1  0  -0.087123  0  3.68458  0  0  -0.110859  0  3.939305  0  0  -0.114916  0  3.95697  0  0  -0.068615  -0.108263  0  3.927622  0
C  C43  1  0.43212303  0.99999518  0.05638964  1  0  -0.087162  0  3.684716  0  0  -0.110815  0  3.939393  0  0  -0.114875  0  3.957061  0  0  -0.068583  -0.108215  0  3.927695  0
C  C44  1  0.70459840  0.39584479  0.43210757  1  0  0.018354  0  3.632515  0  0  -0.012896  0  3.886759  0  0  -0.007245  0  3.900842  0  0  -0.052285  -0.016253  0  3.877041  0
C  C45  1  0.79540597  0.60415411  0.93211164  1  0  0.018461  0  3.632799  0  0  -0.01285  0  3.88713  0  0  -0.007147  0  3.901236  0  0  -0.052328  -0.016219  0  3.877414  0
C  C46  1  0.20459598  0.10415618  0.56789547  1  0  0.018397  0  3.632872  0  0  -0.012847  0  3.887181  0  0  -0.007169  0  3.901281  0  0  -0.05237  -0.0162  0  3.877445  0
C  C47  1  0.29540845  0.89584831  0.06788904  1  0  0.018559  0  3.633256  0  0  -0.012839  0  3.887576  0  0  -0.007139  0  3.901682  0  0  -0.052317  -0.016197  0  3.877855  0
C  C48  1  0.80786936  0.15635856  0.35471423  1  0  0.662084  0  3.891195  0  0  0.60649  0  4.190477  0  0  0.640813  0  4.184283  0  0  0.212593  0.583138  0  4.193873  0
C  C49  1  0.69214335  0.84363774  0.85471726  1  0  0.662199  0  3.891367  0  0  0.606687  0  4.190553  0  0  0.64101  0  4.184354  0  0  0.212648  0.583333  0  4.193949  0
C  C50  1  0.30786341  0.34364511  0.64528485  1  0  0.662208  0  3.891401  0  0  0.606703  0  4.190588  0  0  0.641025  0  4.184392  0  0  0.212644  0.583351  0  4.193986  0
C  C51  1  0.19214094  0.65636091  0.14528270  1  0  0.662304  0  3.891354  0  0  0.606808  0  4.19048  0  0  0.64113  0  4.184279  0  0  0.212676  0.58346  0  4.193879  0
C  C52  1  0.66606872  0.27046883  0.37604178  1  0  -0.089611  0  3.694925  0  0  -0.066558  0  3.935414  0  0  -0.076904  0  3.956237  0  0  -0.003123  -0.059916  0  3.921319  0
C  C53  1  0.83393708  0.72952298  0.87604602  1  0  -0.089618  0  3.694921  0  0  -0.066668  0  3.935543  0  0  -0.077012  0  3.956344  0  0  -0.003123  -0.060021  0  3.921446  0
C  C54  1  0.16606516  0.22952155  0.62395739  1  0  -0.089581  0  3.694642  0  0  -0.066667  0  3.935299  0  0  -0.077014  0  3.956111  0  0  -0.003117  -0.060022  0  3.921201  0
C  C55  1  0.33392959  0.77048141  0.12395073  1  0  -0.089701  0  3.695024  0  0  -0.066685  0  3.935582  0  0  -0.077028  0  3.956383  0  0  -0.003146  -0.060043  0  3.921485  0
C  C56  1  0.48931231  0.25332993  0.33410460  1  0  0.148373  0  3.627055  0  0  0.106747  0  3.877352  0  0  0.115158  0  3.892436  0  0  0.065983  0.101133  0  3.867496  0
C  C57  1  0.01069458  0.74667131  0.83411130  1  0  0.14839  0  3.62718  0  0  0.1068  0  3.877537  0  0  0.115209  0  3.892621  0  0  0.065993  0.101188  0  3.867669  0
C  C58  1  0.98930201  0.24667711  0.66589203  1  0  0.148492  0  3.626861  0  0  0.106892  0  3.877201  0  0  0.115301  0  3.892289  0  0  0.066008  0.101276  0  3.867344  0
C  C59  1  0.51069165  0.75333045  0.16588721  1  0  0.148491  0  3.627073  0  0  0.106902  0  3.877476  0  0  0.115324  0  3.89255  0  0  0.066038  0.101288  0  3.867615  0
N  N60  1  0.35925508  0.35394676  0.34485563  1  0  -0.330404  0  3.283522  0  0  -0.259758  0  3.549797  0  0  -0.276888  0  3.565961  0  0  -0.316486  -0.248361  0  3.539332  0
N  N61  1  0.14074768  0.64605546  0.84486038  1  0  -0.330239  0  3.283581  0  0  -0.259645  0  3.549903  0  0  -0.276775  0  3.566072  0  0  -0.316531  -0.248242  0  3.539432  0
N  N62  1  0.85924428  0.14605664  0.65513796  1  0  -0.330407  0  3.283907  0  0  -0.259764  0  3.550193  0  0  -0.276896  0  3.566356  0  0  -0.316541  -0.248363  0  3.539731  0
N  N63  1  0.64075214  0.85394022  0.15513961  1  0  -0.330279  0  3.283722  0  0  -0.259663  0  3.55004  0  0  -0.276792  0  3.566202  0  0  -0.316509  -0.248264  0  3.539575  0
O  O64  1  0.17774690  0.22522996  0.14815205  1  0  -0.830319  0  1.950163  0  0  -0.765018  0  2.168045  0  0  -0.788163  0  2.13435  0  0  -0.577525  -0.748272  0  2.191391  0
O  O65  1  0.32224645  0.77476309  0.64815298  1  0  -0.830336  0  1.950108  0  0  -0.765036  0  2.16802  0  0  -0.788168  0  2.134294  0  0  -0.57753  -0.748303  0  2.191394  0
O  O66  1  0.67775128  0.27476468  0.85184867  1  0  -0.83019  0  1.950304  0  0  -0.764918  0  2.168255  0  0  -0.788048  0  2.134539  0  0  -0.577507  -0.748173  0  2.191603  0
O  O67  1  0.82224493  0.72523380  0.35185315  1  0  -0.830229  0  1.950259  0  0  -0.764967  0  2.168114  0  0  -0.788108  0  2.134416  0  0  -0.577495  -0.748221  0  2.191465  0
O  O68  1  0.85595817  0.43676810  0.19682354  1  0  -0.814475  0  1.923694  0  0  -0.752998  0  2.130944  0  0  -0.774835  0  2.098679  0  0  -0.568639  -0.737936  0  2.154053  0
O  O69  1  0.64403821  0.56323057  0.69682478  1  0  -0.814591  0  1.923614  0  0  -0.753108  0  2.130836  0  0  -0.774946  0  2.098573  0  0  -0.568705  -0.738046  0  2.153946  0
O  O70  1  0.35596135  0.06323423  0.80317473  1  0  -0.814549  0  1.923636  0  0  -0.753089  0  2.130894  0  0  -0.774929  0  2.098631  0  0  -0.568693  -0.738027  0  2.154004  0
O  O71  1  0.14404145  0.93676186  0.30317756  1  0  -0.814633  0  1.923675  0  0  -0.753157  0  2.130812  0  0  -0.774997  0  2.098549  0  0  -0.568714  -0.738094  0  2.153928  0
O  O72  1  0.08656127  0.54014290  0.36998256  1  0  -0.639014  0  2.134568  0  0  -0.560082  0  2.379535  0  0  -0.589268  0  2.367757  0  0  -0.299532  -0.539691  0  2.38714  0
O  O73  1  0.41345108  0.45985372  0.86998722  1  0  -0.639145  0  2.134416  0  0  -0.560222  0  2.379356  0  0  -0.589417  0  2.367601  0  0  -0.299642  -0.539826  0  2.386956  0
O  O74  1  0.58655055  0.95985091  0.63001513  1  0  -0.639107  0  2.134436  0  0  -0.56022  0  2.379422  0  0  -0.589423  0  2.36767  0  0  -0.299601  -0.539822  0  2.387021  0
O  O75  1  0.91344315  0.04015587  0.13001648  1  0  -0.639115  0  2.134556  0  0  -0.560209  0  2.379536  0  0  -0.58941  0  2.367778  0  0  -0.299619  -0.539812  0  2.387136  0
O  O76  1  0.97849414  0.19395635  0.34982902  1  0  -0.674314  0  2.064557  0  0  -0.601071  0  2.323225  0  0  -0.630375  0  2.311907  0  0  -0.318127  -0.580259  0  2.33043  0
O  O77  1  0.52151582  0.80604647  0.84982920  1  0  -0.674329  0  2.06462  0  0  -0.601077  0  2.323202  0  0  -0.630379  0  2.311879  0  0  -0.31809  -0.580264  0  2.330406  0
O  O78  1  0.47848714  0.30604320  0.65017230  1  0  -0.674442  0  2.064718  0  0  -0.601192  0  2.323335  0  0  -0.630496  0  2.31201  0  0  -0.318161  -0.580379  0  2.330542  0
O  O79  1  0.02151033  0.69396170  0.15017087  1  0  -0.67446  0  2.064631  0  0  -0.601246  0  2.323255  0  0  -0.630552  0  2.311934  0  0  -0.318131  -0.580431  0  2.330463  0
O  O80  1  0.75031655  0.02930132  0.34191227  1  0  -0.623782  0  1.991172  0  0  -0.570258  0  2.236583  0  0  -0.596425  0  2.227769  0  0  -0.310238  -0.55154  0  2.241834  0
O  O81  1  0.74967967  0.97069293  0.84191312  1  0  -0.623859  0  1.991299  0  0  -0.570369  0  2.236685  0  0  -0.596541  0  2.227888  0  0  -0.310319  -0.551654  0  2.241942  0
O  O82  1  0.25031912  0.47069509  0.65808841  1  0  -0.623769  0  1.991437  0  0  -0.570281  0  2.236819  0  0  -0.596451  0  2.228015  0  0  -0.310252  -0.551569  0  2.242078  0
O  O83  1  0.24967284  0.52931729  0.15808447  1  0  -0.62381  0  1.991442  0  0  -0.570328  0  2.236814  0  0  -0.596501  0  2.228018  0  0  -0.310289  -0.551616  0  2.242073  0
O  O84  1  0.27271718  0.70864025  0.44045388  1  0  -0.608619  0  1.955309  0  0  -0.548388  0  2.169734  0  0  -0.570828  0  2.158055  0  0  -0.304569  -0.532997  0  2.17774  0
O  O85  1  0.22729097  0.29136442  0.94045476  1  0  -0.608234  0  1.955884  0  0  -0.548159  0  2.170441  0  0  -0.570589  0  2.158766  0  0  -0.304537  -0.532788  0  2.178475  0
O  O86  1  0.77272174  0.79136229  0.55954993  1  0  -0.608273  0  1.956014  0  0  -0.548132  0  2.170528  0  0  -0.570581  0  2.158882  0  0  -0.304466  -0.532747  0  2.178534  0
O  O87  1  0.72729266  0.20863535  0.05954827  1  0  -0.60836  0  1.95605  0  0  -0.548193  0  2.170541  0  0  -0.570625  0  2.158864  0  0  -0.30453  -0.532807  0  2.178547  0
