# generated using pymatgen
data_ZnH18C21N6O5
_symmetry_space_group_name_H-M   'P 1'
_cell_length_a   10.19702014
_cell_length_b   10.33701229
_cell_length_c   11.73510071
_cell_angle_alpha   72.79481507
_cell_angle_beta   82.17016017
_cell_angle_gamma   64.01416778
_symmetry_Int_Tables_number   1
_chemical_formula_structural   ZnH18C21N6O5
_chemical_formula_sum   'Zn2 H36 C42 N12 O10'
_cell_volume   1062.11736100
_cell_formula_units_Z   2
loop_
 _symmetry_equiv_pos_site_id
 _symmetry_equiv_pos_as_xyz
  1  'x, y, z'
loop_
 _atom_site_type_symbol
 _atom_site_label
 _atom_site_symmetry_multiplicity
 _atom_site_fract_x
 _atom_site_fract_y
 _atom_site_fract_z
 _atom_site_occupancy
 _atom_site_pbe_bader_spin_density
 _atom_site_pbe_cm5_charge
 _atom_site_pbe_ddec_charge
 _atom_site_pbe_ddec_spin_density
 _atom_site_pbe_ddec_sum_bond_order
 _atom_site_pbe_magmom
Zn  Zn0  1  0.55059500  0.73328582  0.64562276  1  0  0.695386  0.77154  0  2.382927  0
Zn  Zn1  1  0.44940620  0.26671112  0.35437729  1  0  0.695356  0.771471  0  2.382945  0
H  H2  1  0.07076149  0.69186685  0.65975071  1  0  0.101047  0.110889  0  1.036094  0
H  H3  1  0.92923688  0.30813455  0.34024851  1  0  0.101056  0.110887  0  1.036105  0
H  H4  1  0.10414461  0.09878712  0.63588931  1  0  0.101365  0.102723  0  1.062355  0
H  H5  1  0.89585902  0.90120871  0.36411161  1  0  0.101346  0.102764  0  1.062335  0
H  H6  1  0.67982890  0.09341771  0.65997302  1  0  0.108106  0.129433  0  0.999215  0
H  H7  1  0.32017296  0.90658481  0.34002465  1  0  0.108113  0.12943  0  0.999239  0
H  H8  1  0.97339141  0.29559047  0.70976880  1  0  0.091219  0.08912  0  1.010242  0
H  H9  1  0.02660840  0.70440981  0.29023054  1  0  0.091213  0.089113  0  1.010262  0
H  H10  1  0.82552265  0.45705270  0.63110058  1  0  0.098491  0.108394  0  1.051284  0
H  H11  1  0.17447618  0.54294759  0.36889887  1  0  0.098492  0.108413  0  1.051287  0
H  H12  1  0.96390323  0.33811802  0.54998279  1  0  0.09963  0.108654  0  0.988517  0
H  H13  1  0.03609612  0.66188339  0.45001631  1  0  0.099597  0.108613  0  0.9885  0
H  H14  1  0.41727114  0.48674790  0.78104466  1  0  0.135071  0.106754  0  1.038817  0
H  H15  1  0.58272468  0.51325240  0.21896110  1  0  0.135011  0.106752  0  1.03878  0
H  H16  1  0.78804009  0.52505107  0.85761552  1  0  0.147217  0.132186  0  0.995798  0
H  H17  1  0.21196158  0.47494474  0.14238307  1  0  0.147215  0.132179  0  0.995839  0
H  H18  1  0.70652631  0.24745530  0.12156355  1  0  0.121892  0.117362  0  0.990006  0
H  H19  1  0.29347487  0.75254165  0.87843821  1  0  0.121858  0.117302  0  0.990036  0
H  H20  1  0.82895831  0.33368803  0.07850555  1  0  0.122075  0.111999  0  0.957918  0
H  H21  1  0.17104288  0.66630892  0.92149621  1  0  0.12208  0.112003  0  0.957859  0
H  H22  1  0.74941493  0.10420075  0.92127391  1  0  0.10455  0.110943  0  1.021289  0
H  H23  1  0.25058526  0.89579619  0.07872797  1  0  0.104566  0.11098  0  1.021293  0
H  H24  1  0.06238873  0.13182483  0.11489307  1  0  0.096207  0.094002  0  1.044715  0
H  H25  1  0.93761253  0.86817434  0.88510724  1  0  0.096168  0.093975  0  1.044719  0
H  H26  1  0.62462736  0.50470641  0.46146580  1  0  0.142662  0.124745  0  0.99614  0
H  H27  1  0.37537535  0.49529165  0.53853379  1  0  0.142655  0.124747  0  0.996132  0
H  H28  1  0.35987914  0.07880542  0.59222664  1  0  0.143874  0.131569  0  1.031618  0
H  H29  1  0.64012159  0.92119263  0.40777403  1  0  0.143875  0.131593  0  1.031621  0
H  H30  1  0.17431743  0.22356210  0.84869662  1  0  0.115368  0.098906  0  0.983717  0
H  H31  1  0.82568093  0.77643930  0.15130259  1  0  0.115368  0.0989  0  0.983698  0
H  H32  1  0.25128056  0.05908769  0.79717021  1  0  0.119521  0.110889  0  0.998725  0
H  H33  1  0.74872069  0.94091150  0.20283181  1  0  0.119521  0.110855  0  0.998742  0
H  H34  1  0.28866160  0.23891818  0.00815466  1  0  0.098607  0.095955  0  0.999374  0
H  H35  1  0.71133583  0.76108547  0.99184664  1  0  0.098615  0.095991  0  0.999301  0
H  H36  1  0.52170128  0.88619690  0.83543316  1  0  0.099096  0.107282  0  1.042186  0
H  H37  1  0.47829608  0.11380451  0.16456872  1  0  0.099072  0.107234  0  1.042221  0
C  C38  1  0.77978044  0.79545551  0.67004025  1  0  0.193908  0.558949  0  4.223362  0
C  C39  1  0.22021794  0.20454588  0.32995641  1  0  0.193936  0.559006  0  4.223184  0
C  C40  1  0.86629064  0.88366981  0.66237669  1  0  -0.023656  -0.022349  0  4.006762  0
C  C41  1  0.13370827  0.11633270  0.33761962  1  0  -0.023669  -0.022358  0  4.006752  0
C  C42  1  0.01878564  0.80984241  0.65718411  1  0  -0.094835  -0.152463  0  3.977735  0
C  C43  1  0.98121173  0.19015899  0.34281522  1  0  -0.094861  -0.152469  0  3.977784  0
C  C44  1  0.10287461  0.88881840  0.64712609  1  0  -0.022276  -0.01434  0  4.022369  0
C  C45  1  0.89712513  0.11117965  0.35287470  1  0  -0.022278  -0.014327  0  4.0224  0
C  C46  1  0.03558971  0.04041521  0.64409362  1  0  -0.101006  -0.223576  0  3.962061  0
C  C47  1  0.96441103  0.95958285  0.35590620  1  0  -0.100992  -0.223641  0  3.962034  0
C  C48  1  0.88344879  0.11423055  0.64932444  1  0  0.084468  0.25641  0  4.05723  0
C  C49  1  0.11655353  0.88577087  0.35067431  1  0  0.084501  0.256428  0  4.057203  0
C  C50  1  0.79833750  0.03566709  0.65772454  1  0  -0.089332  -0.192765  0  3.907488  0
C  C51  1  0.20166283  0.96433432  0.34227530  1  0  -0.089333  -0.192746  0  3.90757  0
C  C52  1  0.26544421  0.81100581  0.63924065  1  0  0.197148  0.556021  0  4.209204  0
C  C53  1  0.73455606  0.18899336  0.36075893  1  0  0.197131  0.555969  0  4.209262  0
C  C54  1  0.89961455  0.34164641  0.63333338  1  0  -0.145666  -0.17511  0  3.890346  0
C  C55  1  0.10038527  0.65835387  0.36666511  1  0  -0.145611  -0.175073  0  3.890328  0
C  C56  1  0.51225121  0.46844012  0.82645298  1  0  0.148532  0.13975  0  3.962273  0
C  C57  1  0.48774508  0.53155905  0.17355131  1  0  0.148515  0.13959  0  3.962303  0
C  C58  1  0.70049804  0.49025041  0.86419065  1  0  0.168714  0.08755  0  3.880077  0
C  C59  1  0.29950270  0.50974764  0.13580831  1  0  0.168729  0.087529  0  3.880148  0
C  C60  1  0.77838282  0.27472577  0.04913320  1  0  -0.038707  -0.138798  0  3.895855  0
C  C61  1  0.22161837  0.72527118  0.95086856  1  0  -0.038693  -0.138705  0  3.895699  0
C  C62  1  0.85911915  0.05907855  0.95583448  1  0  -0.091762  -0.123406  0  3.968904  0
C  C63  1  0.14088211  0.94092062  0.04416584  1  0  -0.091753  -0.123447  0  3.968972  0
C  C64  1  0.89330291  0.13437687  0.02032456  1  0  -0.018253  0.07722  0  3.977959  0
C  C65  1  0.10670178  0.86562119  0.97967480  1  0  -0.018309  0.07719  0  3.977944  0
C  C66  1  0.03482623  0.07453092  0.06383485  1  0  -0.094252  -0.133999  0  4.004844  0
C  C67  1  0.96517648  0.92546714  0.93616559  1  0  -0.094216  -0.134016  0  4.004804  0
C  C68  1  0.36396668  0.39178137  0.57902630  1  0  0.155628  0.151422  0  3.937643  0
C  C69  1  0.63603406  0.60821668  0.42097352  1  0  0.15561  0.151399  0  3.937629  0
C  C70  1  0.35553965  0.18151262  0.60298993  1  0  0.169169  0.097375  0  3.849536  0
C  C71  1  0.64446009  0.81848543  0.39701086  1  0  0.169139  0.097341  0  3.849688  0
C  C72  1  0.27526202  0.14322084  0.81814923  1  0  -0.041439  -0.14185  0  3.905718  0
C  C73  1  0.72473732  0.85678057  0.18185158  1  0  -0.041407  -0.141767  0  3.905744  0
C  C74  1  0.38121073  0.13363389  0.00478948  1  0  -0.08888  -0.119305  0  3.992163  0
C  C75  1  0.61878813  0.86636864  0.99521279  1  0  -0.088833  -0.119281  0  3.992083  0
C  C76  1  0.39211827  0.07022872  0.91192001  1  0  -0.013638  0.083809  0  3.981331  0
C  C77  1  0.60788067  0.92977605  0.08808081  1  0  -0.01368  0.083727  0  3.981359  0
C  C78  1  0.48819696  0.06410903  0.09215514  1  0  -0.09131  -0.124169  0  3.97355  0
C  C79  1  0.51180053  0.93589684  0.90784556  1  0  -0.091372  -0.124296  0  3.973659  0
N  N80  1  0.59247484  0.55053605  0.78523443  1  0  -0.346989  -0.311016  0  3.567575  0
N  N81  1  0.40752292  0.44946200  0.21476744  1  0  -0.346965  -0.310892  0  3.567552  0
N  N82  1  0.68400663  0.37840047  0.94857313  1  0  -0.130587  0.168438  0  3.758727  0
N  N83  1  0.31599363  0.62159870  0.05142815  1  0  -0.13053  0.168455  0  3.758672  0
N  N84  1  0.38608257  0.28649366  0.52112380  1  0  -0.349553  -0.314254  0  3.570966  0
N  N85  1  0.61391771  0.71350551  0.47887578  1  0  -0.349523  -0.314212  0  3.570976  0
N  N86  1  0.31695911  0.22346084  0.70469531  1  0  -0.129926  0.171489  0  3.729896  0
N  N87  1  0.68304070  0.77653945  0.29530403  1  0  -0.12994  0.171431  0  3.729914  0
N  N88  1  0.56469798  0.36264884  0.92630150  1  0  -0.215816  -0.253427  0  3.104349  0
N  N89  1  0.43530226  0.63735035  0.07370319  1  0  -0.215816  -0.253366  0  3.104271  0
N  N90  1  0.32146660  0.35706727  0.69149710  1  0  -0.218626  -0.258681  0  3.081431  0
N  N91  1  0.67853367  0.64293190  0.30850248  1  0  -0.218615  -0.258641  0  3.081417  0
O  O92  1  0.64006545  0.87020133  0.65292411  1  0  -0.336593  -0.563127  0  2.312079  0
O  O93  1  0.35993500  0.12980228  0.34706747  1  0  -0.336623  -0.563168  0  2.312045  0
O  O94  1  0.84429092  0.65585412  0.69085921  1  0  -0.335542  -0.575035  0  2.152541  0
O  O95  1  0.15570654  0.34414949  0.30913527  1  0  -0.335509  -0.575041  0  2.152516  0
O  O96  1  0.32586991  0.68757416  0.61484657  1  0  -0.311708  -0.539764  0  2.186034  0
O  O97  1  0.67413134  0.31242502  0.38515460  1  0  -0.311674  -0.539714  0  2.186023  0
O  O98  1  0.34011954  0.87595221  0.66168158  1  0  -0.337939  -0.566548  0  2.301585  0
O  O99  1  0.65988172  0.12404696  0.33831788  1  0  -0.337917  -0.566487  0  2.301547  0
O  O100  1  0.81112804  0.26176797  0.64706587  1  0  -0.190625  -0.167702  0  2.551988  0
O  O101  1  0.18887277  0.73823231  0.35293251  1  0  -0.19065  -0.167717  0  2.551972  0
