# generated using pymatgen
data_Co3P4H34C18(N2O9)2
_symmetry_space_group_name_H-M   'P 1'
_cell_length_a   7.99552935
_cell_length_b   9.35666662
_cell_length_c   10.15038009
_cell_angle_alpha   93.42896205
_cell_angle_beta   97.69091740
_cell_angle_gamma   101.68613928
_symmetry_Int_Tables_number   1
_chemical_formula_structural   Co3P4H34C18(N2O9)2
_chemical_formula_sum   'Co3 P4 H34 C18 N4 O18'
_cell_volume   733.97394648
_cell_formula_units_Z   1
loop_
 _symmetry_equiv_pos_site_id
 _symmetry_equiv_pos_as_xyz
  1  'x, y, z'
loop_
 _atom_site_type_symbol
 _atom_site_label
 _atom_site_symmetry_multiplicity
 _atom_site_fract_x
 _atom_site_fract_y
 _atom_site_fract_z
 _atom_site_occupancy
 _atom_site_hle17_ddec_charge
 _atom_site_hle17_ddec_spin_density
 _atom_site_hle17_ddec_sum_bond_order
 _atom_site_hle17_magmom
 _atom_site_hse06_10hf_ddec_charge
 _atom_site_hse06_10hf_ddec_spin_density
 _atom_site_hse06_10hf_ddec_sum_bond_order
 _atom_site_hse06_10hf_magmom
 _atom_site_hse06_ddec_charge
 _atom_site_hse06_ddec_spin_density
 _atom_site_hse06_ddec_sum_bond_order
 _atom_site_hse06_magmom
 _atom_site_pbe_cm5_charge
 _atom_site_pbe_ddec_charge
 _atom_site_pbe_ddec_spin_density
 _atom_site_pbe_ddec_sum_bond_order
 _atom_site_pbe_magmom
Co  Co0  1  0.50049391  0.49970335  0.49990543  1  1.179571  2.82738  1.808529  2.602  1.157435  2.83159  2.188695  2.666  1.230835  2.876369  2.120231  2.735  0.641516  1.095605  2.784217  2.241733  2.598
Co  Co1  1  0.90761335  0.34528228  0.51637333  1  1.155638  2.823573  1.82478  2.598  1.129739  2.831411  2.208568  2.665  1.203946  2.877124  2.139723  2.734  0.651147  1.065915  2.781703  2.263599  2.594
Co  Co2  1  0.09220828  0.65461309  0.48339375  1  1.15602  -2.849218  1.823971  -2.597  1.129539  -2.836415  2.207885  -2.663  1.203993  -2.890872  2.138933  -2.733  0.650317  1.064388  -2.774475  2.263731  -2.589
P  P3  1  0.24492708  0.44726062  0.72110856  1  1.423253  -0.000524  4.859736  -0.003  1.271793  0.001621  5.37751  -0.001  1.326775  0.000939  5.339492  -0.001  0.326142  1.231847  0.002324  5.402841  -0.001
P  P4  1  0.75502163  0.55276173  0.27873371  1  1.422405  0.000996  4.861031  0.001  1.271152  0.002305  5.378909  0.003  1.326131  0.001826  5.340784  0.002  0.325466  1.23123  0.002681  5.404288  0.003
P  P5  1  0.22351598  0.20038852  0.49513956  1  1.410532  0.002298  4.843908  0.0  1.24604  0.004443  5.355464  0.003  1.297924  0.00307  5.319786  0.002  0.337139  1.208452  0.005749  5.379925  0.003
P  P6  1  0.77649821  0.79951394  0.50483285  1  1.409136  -0.00026  4.845133  0.001  1.244573  -0.000182  5.357098  0.001  1.296407  -0.000111  5.321514  0.001  0.336658  1.207051  -0.000252  5.381405  0.001
H  H7  1  0.94750109  0.10314231  0.63022257  1  0.39645  -0.000222  0.88156  -0.001  0.370484  9e-06  0.954896  0.0  0.381383  -8.6e-05  0.94333  0.0  0.302516  0.362631  9.3e-05  0.96299  0.0
H  H8  1  0.05255401  0.89678464  0.36967599  1  0.396996  0.000342  0.88091  0.001  0.370984  0.000147  0.954203  0.0  0.381883  0.000183  0.942641  0.0  0.302642  0.363124  0.000142  0.962288  0.0
H  H9  1  0.45196953  0.38730816  0.19458347  1  0.326918  -6.6e-05  0.922927  0.0  0.302698  -0.000133  0.988196  0.0  0.312696  -0.000188  0.980406  0.0  0.312072  0.295607  -6.3e-05  0.993663  0.0
H  H10  1  0.54784232  0.61281288  0.80521167  1  0.326812  -4.8e-05  0.922712  0.0  0.302763  -7.3e-05  0.987766  0.0  0.312769  -0.000155  0.979972  0.0  0.312079  0.295678  3.1e-05  0.993222  0.0
H  H11  1  0.13513072  0.94850342  0.65710258  1  0.10726  0.000254  0.981183  0.0  0.118237  0.000212  1.046759  0.0  0.11987  0.000203  1.046545  0.0  0.102737  0.117125  0.000208  1.046969  0.0
H  H12  1  0.86493874  0.05142978  0.34286561  1  0.1073  -0.000221  0.981159  0.0  0.118142  -0.000179  1.046869  0.0  0.119751  -0.00018  1.046668  0.0  0.102656  0.117011  -0.000169  1.047076  0.0
H  H13  1  0.04624015  0.97489521  0.80255479  1  0.07703  6.6e-05  0.961014  0.0  0.090538  8.3e-05  1.028951  0.0  0.091654  6.1e-05  1.028943  0.0  0.091891  0.089733  0.000101  1.02897  0.0
H  H14  1  0.95371292  0.02513729  0.19731598  1  0.077118  -7.2e-05  0.96123  0.0  0.09053  -9.4e-05  1.029246  0.0  0.091621  -6.7e-05  1.029258  0.0  0.091898  0.089721  -0.000113  1.029252  0.0
H  H15  1  0.26254782  0.78508160  0.78915565  1  0.08888  9.3e-05  0.94161  0.0  0.104579  9.6e-05  1.003308  0.0  0.10596  8.5e-05  1.002909  0.0  0.094542  0.10421  0.000103  1.002718  0.0
H  H16  1  0.73744526  0.21495516  0.21100281  1  0.088665  -0.000105  0.941922  0.0  0.104547  -0.000108  1.00344  0.0  0.105906  -0.000101  1.003073  0.0  0.094497  0.104164  -0.000115  1.002888  0.0
H  H17  1  0.27777041  0.89577707  0.93865135  1  0.047256  -0.0  0.966098  0.0  0.064565  4e-06  1.030139  0.0  0.065471  0.0  1.030151  0.0  0.078766  0.063872  5e-06  1.030113  0.0
H  H18  1  0.72213738  0.10440393  0.06140888  1  0.047376  2e-06  0.966056  0.0  0.064544  0.0  1.030331  0.0  0.065381  2e-06  1.03043  0.0  0.07876  0.063888  -3e-06  1.030261  0.0
H  H19  1  0.56015701  0.00603369  0.91235115  1  0.04832  -2e-06  1.003946  0.0  0.062752  -1.1e-05  1.075003  0.0  0.063194  -7e-06  1.076155  0.0  0.079026  0.062399  -1.2e-05  1.074326  0.0
H  H20  1  0.43979734  0.99407226  0.08773919  1  0.048593  1e-05  1.00398  0.0  0.062955  2e-05  1.07502  0.0  0.063376  1.5e-05  1.076193  0.0  0.079215  0.062604  2.7e-05  1.074328  0.0
H  H21  1  0.53745804  0.91749285  0.75149129  1  0.079797  -4.4e-05  0.94517  0.0  0.096305  -5.2e-05  1.00608  0.0  0.097896  -3.8e-05  1.005882  0.0  0.088941  0.095263  -7e-05  1.005872  0.0
H  H22  1  0.46254458  0.08248584  0.24865727  1  0.079819  6.5e-05  0.945818  0.0  0.096463  9.3e-05  1.006453  0.0  0.098046  4.4e-05  1.006264  0.0  0.08894  0.095417  0.000123  1.006228  0.0
H  H23  1  0.55595223  0.21975780  0.78968605  1  0.079865  -5.4e-05  0.935594  0.0  0.099072  -4.7e-05  0.990633  0.0  0.100275  -5.3e-05  0.989977  0.0  0.095331  0.098016  -3.8e-05  0.991476  0.0
H  H24  1  0.44404639  0.78022695  0.21020920  1  0.080105  -9e-06  0.935322  0.0  0.099185  -8e-06  0.990539  0.0  0.100457  -4e-06  0.989788  0.0  0.095397  0.098117  -1.5e-05  0.991401  0.0
H  H25  1  0.45227933  0.10917116  0.64558257  1  0.087262  -5.6e-05  0.97818  0.0  0.106585  -4.8e-05  1.034433  0.0  0.108265  -6.2e-05  1.033754  0.0  0.10298  0.105274  -1.8e-05  1.03511  0.0
H  H26  1  0.54773745  0.89068631  0.35437699  1  0.08719  8.2e-05  0.978085  0.0  0.10673  8.4e-05  1.034103  0.0  0.108421  5.9e-05  1.033425  0.0  0.102961  0.105388  9.9e-05  1.034823  0.0
H  H27  1  0.54675219  0.32483716  0.97535014  1  0.119174  -1.1e-05  0.922797  0.0  0.128631  -3e-06  0.981922  0.0  0.131536  -2e-06  0.978282  0.0  0.1525  0.126584  1e-06  0.984305  0.0
H  H28  1  0.45315295  0.67520509  0.02452359  1  0.119111  -2.4e-05  0.923125  0.0  0.128886  -2.9e-05  0.981821  0.0  0.131818  -2e-05  0.978164  0.0  0.152653  0.126815  -3.3e-05  0.984215  0.0
H  H29  1  0.12659509  0.27454648  0.19271396  1  0.134503  4.3e-05  0.957094  0.0  0.145042  2.2e-05  1.009639  0.0  0.148091  -1.5e-05  1.008158  0.0  0.132689  0.142353  6.2e-05  1.011511  0.0
H  H30  1  0.87321446  0.72562358  0.80706174  1  0.134601  -3.7e-05  0.957062  0.0  0.14519  -2e-05  1.009476  0.0  0.148266  2e-06  1.007976  0.0  0.13265  0.142486  -4e-05  1.011333  0.0
H  H31  1  0.01051827  0.13359827  0.93874671  1  0.121213  3e-05  0.948039  0.0  0.13138  4.3e-05  1.00626  0.0  0.134088  2.1e-05  1.004912  0.0  0.13109  0.129486  7.2e-05  1.007307  0.0
H  H32  1  0.98942515  0.86640513  0.06106457  1  0.121304  -3.2e-05  0.94697  0.0  0.131579  -4.2e-05  1.005166  0.0  0.134304  -2.2e-05  1.003792  0.0  0.131046  0.129671  -6.1e-05  1.006223  0.0
H  H33  1  0.17946727  0.42720971  0.38198621  1  0.430867  -0.000296  0.877808  0.0  0.39688  -0.000218  0.953746  0.0  0.409119  -0.000225  0.936175  0.0  0.301439  0.387607  -0.000205  0.967096  0.0
H  H34  1  0.82100585  0.57303623  0.61878958  1  0.431881  -0.000463  0.87705  -0.001  0.398043  -0.000219  0.952054  -0.001  0.410262  -0.000273  0.93451  -0.001  0.301889  0.388833  -0.00016  0.96533  -0.001
H  H35  1  0.27182251  0.55299119  0.29566249  1  0.438781  -0.000122  0.791137  0.0  0.426793  -0.000129  0.836783  0.0  0.436566  -7.6e-05  0.82641  0.0  0.335885  0.418654  -0.000192  0.845707  0.0
H  H36  1  0.72846718  0.44709362  0.70503121  1  0.440085  -0.000133  0.789822  -0.001  0.427865  0.000432  0.835603  0.001  0.437583  0.000217  0.825252  0.0  0.336501  0.419907  0.000671  0.8444  0.001
H  H37  1  0.57777417  0.21233947  0.47423468  1  0.451584  -8.8e-05  0.846647  0.0  0.420752  0.000237  0.9099  0.001  0.432757  4.4e-05  0.892729  0.0  0.298617  0.411726  0.000388  0.922754  0.001
H  H38  1  0.42214330  0.78729838  0.52588314  1  0.451577  -0.000396  0.846434  0.0  0.42063  -0.00057  0.909827  -0.001  0.432648  -0.000392  0.892637  0.0  0.298639  0.411541  -0.000752  0.922779  -0.001
H  H39  1  0.70827729  0.09240473  0.49750478  1  0.439168  -0.000143  0.862814  -0.001  0.410001  0.000165  0.923135  0.0  0.421656  2.5e-05  0.906493  0.0  0.298389  0.401047  0.000298  0.935869  0.0
H  H40  1  0.29186111  0.90736397  0.50261629  1  0.439507  0.000114  0.862315  0.001  0.410152  -0.000191  0.922918  0.0  0.421813  -4.7e-05  0.906268  0.0  0.298578  0.401161  -0.000331  0.93571  0.0
C  C41  1  0.18718423  0.24007216  0.67422637  1  -0.288281  -0.00276  3.477438  -0.004  -0.258411  -0.001216  3.732559  -0.002  -0.267158  -0.001274  3.742566  -0.002  0.048366  -0.252826  -0.001175  3.725874  -0.002
C  C42  1  0.81283736  0.75989940  0.32565754  1  -0.288227  0.003453  3.477662  0.005  -0.258967  0.001906  3.733906  0.003  -0.26774  0.001475  3.743942  0.002  0.0486  -0.253293  0.002573  3.727069  0.004
C  C43  1  0.27143963  0.14555504  0.77500417  1  0.223982  0.000432  3.495664  0.0  0.22032  0.000274  3.73375  0.0  0.226114  0.00013  3.750199  0.0  0.09519  0.216542  0.000456  3.722356  0.0
C  C44  1  0.72854423  0.85443624  0.22489202  1  0.224682  -0.00046  3.494695  -0.001  0.220624  -0.000313  3.733555  0.0  0.226395  -0.000169  3.750033  0.0  0.095371  0.216832  -0.000438  3.72215  0.0
C  C45  1  0.16856541  0.98600229  0.76296858  1  -0.193979  9e-05  3.625887  0.0  -0.236365  0.000229  3.869805  0.0  -0.238538  0.000207  3.882168  0.0  -0.173823  -0.234719  0.000234  3.861344  0.0
C  C46  1  0.83143389  0.01399614  0.23697866  1  -0.194363  -7.3e-05  3.625841  0.0  -0.236473  -0.000215  3.87  0.0  -0.238571  -0.000201  3.882243  0.0  -0.173795  -0.234795  -0.000212  3.86151  0.0
C  C47  1  0.29199641  0.89903659  0.83248669  1  -0.100097  6e-06  3.634644  0.0  -0.13997  5.4e-05  3.896263  0.0  -0.140689  6e-05  3.90939  0.0  -0.171463  -0.139227  6.2e-05  3.886526  0.0
C  C48  1  0.70796664  0.10101888  0.16758617  1  -0.099913  -1.6e-05  3.634558  0.0  -0.139995  -5.1e-05  3.896251  0.0  -0.1407  -6.2e-05  3.909367  0.0  -0.171463  -0.139299  -5.9e-05  3.886479  0.0
C  C49  1  0.47537802  0.98192733  0.81607630  1  -0.107164  -4.1e-05  3.628824  0.0  -0.148598  -9.4e-05  3.891664  0.0  -0.149664  -6.5e-05  3.905072  0.0  -0.173684  -0.147946  -9.7e-05  3.882488  0.0
C  C50  1  0.52459627  0.01811181  0.18400171  1  -0.107834  8.9e-05  3.629489  0.0  -0.149156  0.000151  3.892193  0.0  -0.150201  9.6e-05  3.905584  0.0  -0.173945  -0.148458  0.000233  3.882961  0.0
C  C51  1  0.45219440  0.12412872  0.75319112  1  -0.179435  0.000272  3.607474  0.001  -0.223941  0.000275  3.85876  0.001  -0.225924  0.000157  3.87094  0.0  -0.160971  -0.222461  0.000375  3.850396  0.001
C  C52  1  0.54779908  0.87584021  0.24676200  1  -0.179203  -0.000192  3.607233  0.0  -0.223765  -0.000117  3.85857  0.0  -0.225793  -8.1e-05  3.870759  0.0  -0.160988  -0.22229  -0.000136  3.850212  0.0
C  C53  1  0.41659611  0.28848336  0.99666258  1  0.230432  5.5e-05  3.536006  0.0  0.157321  4e-05  3.809571  0.0  0.174197  1.9e-05  3.817933  0.0  0.183173  0.1463  7.2e-05  3.803803  0.0
C  C54  1  0.58329732  0.71156414  0.00319260  1  0.229491  -0.000114  3.535935  0.0  0.156308  -4.9e-05  3.809231  0.0  0.17315  -2.6e-05  3.81763  0.0  0.182726  0.145306  -9.7e-05  3.803463  0.0
C  C55  1  0.19456590  0.26344161  0.10842157  1  0.019477  0.000202  3.63412  0.0  -0.020636  0.000188  3.897566  0.0  -0.01808  0.000117  3.914135  0.0  0.021062  -0.022012  0.000266  3.886693  0.0
C  C56  1  0.80527851  0.73666214  0.89138557  1  0.018451  -0.000155  3.633098  0.0  -0.021499  -0.000138  3.896475  0.0  -0.018989  -0.000112  3.913081  0.0  0.021189  -0.022821  -0.000151  3.885535  0.0
C  C57  1  0.13816177  0.19067341  0.98462107  1  -0.016466  3.9e-05  3.636094  0.0  -0.062956  0.000115  3.905616  0.0  -0.060924  6.1e-05  3.923569  0.0  0.020342  -0.06439  0.000163  3.893886  0.0
C  C58  1  0.86174722  0.80934213  0.01520833  1  -0.016082  -2e-06  3.634355  0.0  -0.062712  -5.6e-05  3.90368  0.0  -0.060709  -2.8e-05  3.92167  0.0  0.020649  -0.064134  -6e-05  3.891953  0.0
N  N59  1  0.27895170  0.20565161  0.91633181  1  -0.105316  1.3e-05  3.480349  0.0  -0.013528  1.8e-05  3.693307  0.0  -0.029409  0.0  3.719131  0.0  -0.216674  -0.003181  5.9e-05  3.676425  0.0
N  N60  1  0.72097601  0.79437630  0.08352456  1  -0.105438  3.3e-05  3.480597  0.0  -0.013433  4.4e-05  3.693351  0.0  -0.02931  3.4e-05  3.719191  0.0  -0.216644  -0.003092  3.6e-05  3.676479  0.0
N  N61  1  0.36781544  0.32264147  0.11310620  1  -0.257311  9e-05  3.421804  0.0  -0.190136  -6e-06  3.661828  0.0  -0.206153  -7.8e-05  3.675178  0.0  -0.356791  -0.179638  4.9e-05  3.652642  0.0
N  N62  1  0.63202012  0.67746126  0.88671092  1  -0.255943  0.000189  3.419642  0.0  -0.189192  0.000114  3.659818  0.0  -0.205196  4e-06  3.673185  0.0  -0.356955  -0.178693  0.000222  3.650577  0.0
O  O63  1  0.23684395  0.48759379  0.86454827  1  -0.803695  0.005484  1.817176  0.01  -0.752383  0.003668  2.054754  0.007  -0.779304  0.002338  2.03975  0.004  -0.395004  -0.731498  0.005297  2.063922  0.009
O  O64  1  0.76327050  0.51240658  0.13534465  1  -0.80335  0.005254  1.817364  0.009  -0.751902  0.003575  2.054749  0.006  -0.778755  0.002417  2.039728  0.004  -0.394766  -0.731183  0.004803  2.064005  0.008
O  O65  1  0.42886952  0.50202238  0.68399516  1  -0.859366  0.039726  2.087825  0.064  -0.799213  0.032317  2.372627  0.047  -0.835687  0.025961  2.352855  0.036  -0.379868  -0.770882  0.038202  2.385523  0.056
O  O66  1  0.57091816  0.49815525  0.31567445  1  -0.859296  0.034528  2.088217  0.056  -0.799293  0.028293  2.373375  0.041  -0.835715  0.023133  2.353492  0.032  -0.380189  -0.770928  0.032708  2.38635  0.048
O  O67  1  0.10684598  0.49843726  0.62111077  1  -0.878152  0.013809  2.191849  0.022  -0.822585  0.008755  2.499172  0.014  -0.865707  0.005923  2.477217  0.009  -0.38214  -0.787448  0.011972  2.512874  0.019
O  O68  1  0.89273104  0.50141663  0.37893616  1  -0.878519  -0.013659  2.19354  -0.02  -0.822978  -0.008228  2.501414  -0.012  -0.865928  -0.005899  2.479154  -0.008  -0.381969  -0.787982  -0.010476  2.51522  -0.016
O  O69  1  0.19203717  0.03614326  0.45705061  1  -0.82709  0.004122  2.002875  0.007  -0.743946  0.003206  2.243517  0.005  -0.770701  0.002299  2.224685  0.004  -0.366108  -0.724475  0.004091  2.256527  0.007
O  O70  1  0.80782430  0.96378684  0.54288544  1  -0.826708  0.002204  2.003008  0.004  -0.743709  0.00172  2.243814  0.003  -0.770391  0.001146  2.224909  0.002  -0.366384  -0.724358  0.002305  2.256904  0.004
O  O71  1  0.40796567  0.27713918  0.47753943  1  -0.855591  0.034546  2.109964  0.056  -0.789981  0.028119  2.391997  0.041  -0.824836  0.022674  2.372054  0.033  -0.372304  -0.762764  0.033258  2.404954  0.049
O  O72  1  0.59215710  0.72267080  0.52255762  1  -0.855055  0.030567  2.109427  0.048  -0.789152  0.025065  2.390999  0.035  -0.823934  0.020779  2.371144  0.029  -0.372002  -0.761983  0.028847  2.403864  0.041
O  O73  1  0.08828073  0.27261159  0.41452125  1  -0.835094  0.033916  2.076451  0.056  -0.765381  0.02698  2.345852  0.04  -0.80025  0.022122  2.327286  0.032  -0.364311  -0.738162  0.031166  2.359046  0.046
O  O74  1  0.91195505  0.72753870  0.58544551  1  -0.834704  -0.034937  2.07734  -0.056  -0.764925  -0.027717  2.346512  -0.04  -0.799963  -0.023007  2.328312  -0.032  -0.364161  -0.737505  -0.031604  2.359421  -0.045
O  O75  1  0.00016019  0.20661689  0.67041296  1  -0.547504  0.02482  2.193538  0.045  -0.508555  0.021734  2.429328  0.037  -0.5296  0.017776  2.41777  0.031  -0.372915  -0.491903  0.025511  2.437222  0.043
O  O76  1  0.99984262  0.79333238  0.32943657  1  -0.547769  -0.023981  2.193646  -0.044  -0.508607  -0.020772  2.429696  -0.035  -0.529654  -0.017272  2.418129  -0.029  -0.372862  -0.49184  -0.023884  2.437532  -0.041
O  O77  1  0.25348784  0.53115845  0.38592190  1  -0.830495  -0.000425  2.064007  0.001  -0.802683  -0.000607  2.305824  -0.001  -0.830638  -0.000464  2.267782  -0.001  -0.539726  -0.779858  -0.000554  2.334616  0.0
O  O78  1  0.74693760  0.46919186  0.61490692  1  -0.832796  0.040929  2.062787  0.072  -0.805081  0.038845  2.30394  0.061  -0.832616  0.033012  2.2657  0.051  -0.54137  -0.782994  0.043991  2.332841  0.069
O  O79  1  0.69526044  0.19085023  0.46932509  1  -0.842676  0.040466  1.957335  0.065  -0.799821  0.034044  2.182638  0.05  -0.831821  0.027278  2.144906  0.039  -0.576079  -0.773999  0.040447  2.210215  0.059
O  O80  1  0.30475048  0.80895970  0.53089959  1  -0.842527  -0.04122  1.956504  -0.066  -0.7994  -0.034393  2.181833  -0.05  -0.831401  -0.027772  2.144098  -0.039  -0.576109  -0.773544  -0.040435  2.209522  -0.059
