# generated using pymatgen
data_CdH12C12N2(ClF)2
_symmetry_space_group_name_H-M   'P 1'
_cell_length_a   6.60791909
_cell_length_b   7.36768905
_cell_length_c   14.78789466
_cell_angle_alpha   83.68202810
_cell_angle_beta   82.00287872
_cell_angle_gamma   72.30475594
_symmetry_Int_Tables_number   1
_chemical_formula_structural   CdH12C12N2(ClF)2
_chemical_formula_sum   'Cd2 H24 C24 N4 Cl4 F4'
_cell_volume   677.46249110
_cell_formula_units_Z   2
loop_
 _symmetry_equiv_pos_site_id
 _symmetry_equiv_pos_as_xyz
  1  'x, y, z'
loop_
 _atom_site_type_symbol
 _atom_site_label
 _atom_site_symmetry_multiplicity
 _atom_site_fract_x
 _atom_site_fract_y
 _atom_site_fract_z
 _atom_site_occupancy
 _atom_site_hle17_bader_spin_density
 _atom_site_hle17_ddec_charge
 _atom_site_hle17_ddec_spin_density
 _atom_site_hle17_ddec_sum_bond_order
 _atom_site_hle17_magmom
 _atom_site_hse06_10hf_bader_spin_density
 _atom_site_hse06_10hf_ddec_charge
 _atom_site_hse06_10hf_ddec_spin_density
 _atom_site_hse06_10hf_ddec_sum_bond_order
 _atom_site_hse06_10hf_magmom
 _atom_site_hse06_bader_spin_density
 _atom_site_hse06_ddec_charge
 _atom_site_hse06_ddec_spin_density
 _atom_site_hse06_ddec_sum_bond_order
 _atom_site_hse06_magmom
 _atom_site_pbe_bader_spin_density
 _atom_site_pbe_cm5_charge
 _atom_site_pbe_ddec_charge
 _atom_site_pbe_ddec_spin_density
 _atom_site_pbe_ddec_sum_bond_order
 _atom_site_pbe_magmom
Cd  Cd0  1  0.25086802  0.57015805  0.44391309  1  0  0.966237  0  1.875527  0  0  0.81432  0  2.31092  0  0  0.857433  0  2.273714  0  0  0.594469  0.784094  0  2.335946  0
Cd  Cd1  1  0.74911873  0.42984905  0.55608880  1  0  0.966231  0  1.87556  0  0  0.814298  0  2.310965  0  0  0.85741  0  2.273757  0  0  0.59448  0.784065  0  2.336005  0
H  H2  1  0.95895560  0.99617723  0.33497461  1  0  0.135957  0  0.960422  0  0  0.141646  0  1.030393  0  0  0.145494  0  1.028086  0  0  0.095212  0.138826  0  1.032298  0
H  H3  1  0.04104279  0.00382696  0.66502808  1  0  0.136003  0  0.960366  0  0  0.141684  0  1.030336  0  0  0.145533  0  1.028027  0  0  0.09523  0.138868  0  1.032238  0
H  H4  1  0.50681162  0.50929052  0.20026906  1  0  0.140627  0  0.937291  0  0  0.147975  0  1.002209  0  0  0.152109  0  0.999683  0  0  0.106397  0.145033  0  1.004129  0
H  H5  1  0.49319106  0.49070509  0.79973180  1  0  0.140632  0  0.937285  0  0  0.148002  0  1.002172  0  0  0.152136  0  0.999646  0  0  0.106395  0.145063  0  1.004088  0
H  H6  1  0.63187095  0.94601232  0.27259277  1  0  0.110394  0  0.962317  0  0  0.117555  0  1.030663  0  0  0.120823  0  1.02906  0  0  0.098828  0.115184  0  1.031977  0
H  H7  1  0.36813678  0.05398184  0.72740650  1  0  0.110435  0  0.962262  0  0  0.117587  0  1.030611  0  0  0.120854  0  1.029008  0  0  0.098847  0.115223  0  1.03192  0
H  H8  1  0.82216085  0.61330433  0.23630737  1  0  0.104954  0  0.962954  0  0  0.112512  0  1.032165  0  0  0.115913  0  1.030386  0  0  0.09457  0.110068  0  1.033582  0
H  H9  1  0.17783723  0.38670557  0.76369096  1  0  0.105048  0  0.962933  0  0  0.112587  0  1.032137  0  0  0.115987  0  1.030359  0  0  0.094605  0.110143  0  1.033556  0
H  H10  1  0.79767528  0.79240708  0.08382414  1  0  0.089057  0  0.969429  0  0  0.095826  0  1.035723  0  0  0.098588  0  1.033658  0  0  0.097351  0.093836  0  1.037222  0
H  H11  1  0.20232863  0.20759423  0.91617228  1  0  0.089046  0  0.969466  0  0  0.095814  0  1.035747  0  0  0.098575  0  1.033686  0  0  0.097346  0.093822  0  1.037247  0
H  H12  1  0.56200929  0.11671708  0.12043121  1  0  0.094524  0  0.960917  0  0  0.098271  0  1.031859  0  0  0.101595  0  1.028848  0  0  0.098471  0.095917  0  1.034001  0
H  H13  1  0.43799385  0.88327711  0.87956767  1  0  0.094502  0  0.960905  0  0  0.098265  0  1.031832  0  0  0.101576  0  1.028835  0  0  0.098455  0.095912  0  1.033971  0
H  H14  1  0.19072347  0.23155483  0.07578021  1  0  0.127828  0  0.945065  0  0  0.13776  0  1.005489  0  0  0.14082  0  1.00464  0  0  0.107462  0.135592  0  1.006132  0
H  H15  1  0.80927723  0.76844222  0.92421866  1  0  0.127802  0  0.945126  0  0  0.137765  0  1.005501  0  0  0.140819  0  1.004665  0  0  0.10747  0.135596  0  1.006144  0
H  H16  1  0.13122171  0.82984192  0.98836338  1  0  0.121592  0  0.961538  0  0  0.125935  0  1.032921  0  0  0.129727  0  1.03061  0  0  0.100928  0.123228  0  1.034669  0
H  H17  1  0.86878878  0.17015793  0.01163474  1  0  0.12164  0  0.961508  0  0  0.125988  0  1.032882  0  0  0.12978  0  1.030568  0  0  0.10094  0.123278  0  1.034636  0
H  H18  1  0.25054784  0.94714248  0.45231479  1  0  0.305278  0  0.913421  0  0  0.291623  0  0.977459  0  0  0.29807  0  0.972658  0  0  0.272304  0.28696  0  0.981023  0
H  H19  1  0.74945193  0.05285743  0.54768872  1  0  0.305122  0  0.913496  0  0  0.291533  0  0.977456  0  0  0.29798  0  0.972656  0  0  0.272254  0.286867  0  0.981033  0
H  H20  1  0.03949703  0.41118484  0.33746232  1  0  0.302594  0  0.914163  0  0  0.28696  0  0.98043  0  0  0.292571  0  0.977134  0  0  0.279121  0.282823  0  0.983002  0
H  H21  1  0.96049876  0.58881794  0.66253655  1  0  0.302625  0  0.91417  0  0  0.286927  0  0.9805  0  0  0.292539  0  0.977203  0  0  0.279083  0.28279  0  0.983073  0
H  H22  1  0.49601922  0.82941200  0.41228501  1  0  0.299611  0  0.92294  0  0  0.285962  0  0.986604  0  0  0.292031  0  0.982661  0  0  0.272425  0.28155  0  0.989535  0
H  H23  1  0.50398163  0.17058933  0.58771565  1  0  0.29964  0  0.922891  0  0  0.285978  0  0.986588  0  0  0.292046  0  0.982644  0  0  0.272439  0.281569  0  0.989508  0
H  H24  1  0.30120296  0.32188019  0.31138324  1  0  0.300469  0  0.910491  0  0  0.289025  0  0.968951  0  0  0.293808  0  0.967418  0  0  0.288831  0.285577  0  0.970163  0
H  H25  1  0.69878930  0.67812403  0.68861779  1  0  0.300446  0  0.910463  0  0  0.288968  0  0.968962  0  0  0.293751  0  0.96743  0  0  0.288798  0.28552  0  0.970175  0
C  C26  1  0.16376431  0.55201181  0.22814756  1  0  0.307446  0  3.800922  0  0  0.308684  0  4.043624  0  0  0.316911  0  4.066787  0  0  0.082818  0.303112  0  4.027792  0
C  C27  1  0.83623685  0.44798381  0.77185136  1  0  0.307455  0  3.800913  0  0  0.308625  0  4.043688  0  0  0.316852  0  4.066856  0  0  0.082769  0.303055  0  4.027852  0
C  C28  1  0.09294279  0.02036347  0.28862626  1  0  -0.290784  0  3.709764  0  0  -0.320843  0  3.965072  0  0  -0.328821  0  3.98414  0  0  -0.11646  -0.315589  0  3.952531  0
C  C29  1  0.90705407  0.97964074  0.71137516  1  0  -0.290778  0  3.709754  0  0  -0.320809  0  3.965052  0  0  -0.328787  0  3.98412  0  0  -0.116456  -0.315558  0  3.952512  0
C  C30  1  0.35035053  0.57308277  0.17621382  1  0  -0.287447  0  3.695908  0  0  -0.317079  0  3.949611  0  0  -0.325592  0  3.968641  0  0  -0.110507  -0.31146  0  3.936984  0
C  C31  1  0.64965338  0.42691854  0.82378665  1  0  -0.287532  0  3.695984  0  0  -0.317169  0  3.949699  0  0  -0.325681  0  3.968728  0  0  -0.110501  -0.311555  0  3.93707  0
C  C32  1  0.47052114  0.99168752  0.25249741  1  0  -0.203103  0  3.729256  0  0  -0.22618  0  3.985125  0  0  -0.231709  0  4.00437  0  0  -0.110139  -0.222566  0  3.97232  0
C  C33  1  0.52948322  0.00831236  0.74750311  1  0  -0.203138  0  3.729195  0  0  -0.226203  0  3.985079  0  0  -0.231733  0  4.004321  0  0  -0.110139  -0.2226  0  3.972273  0
C  C34  1  0.96513235  0.63333568  0.19527098  1  0  -0.192761  0  3.724718  0  0  -0.218346  0  3.982036  0  0  -0.224832  0  4.0026  0  0  -0.110884  -0.214121  0  3.968219  0
C  C35  1  0.03487095  0.36666279  0.80472495  1  0  -0.192777  0  3.724734  0  0  -0.218336  0  3.982068  0  0  -0.224819  0  4.002629  0  0  -0.110839  -0.214109  0  3.968251  0
C  C36  1  0.06138374  0.11546688  0.20314713  1  0  0.328334  0  3.800136  0  0  0.315699  0  4.080497  0  0  0.327396  0  4.091952  0  0  0.094267  0.307596  0  4.072837  0
C  C37  1  0.93861450  0.88453304  0.79685377  1  0  0.328239  0  3.80012  0  0  0.315581  0  4.080519  0  0  0.327278  0  4.091971  0  0  0.094248  0.307484  0  4.072853  0
C  C38  1  0.30144901  0.95805173  0.31347906  1  0  0.299933  0  3.795768  0  0  0.302597  0  4.038317  0  0  0.310625  0  4.060334  0  0  0.078514  0.297073  0  4.023373  0
C  C39  1  0.69855245  0.04195244  0.68652140  1  0  0.299934  0  3.795765  0  0  0.302588  0  4.038315  0  0  0.310615  0  4.060333  0  0  0.078494  0.297065  0  4.02337  0
C  C40  1  0.95286546  0.73301306  0.10942681  1  0  -0.019968  0  3.786326  0  0  -0.035622  0  4.046908  0  0  -0.033248  0  4.066312  0  0  -0.091142  -0.036978  0  4.033625  0
C  C41  1  0.04713937  0.26698539  0.89057037  1  0  -0.019986  0  3.786354  0  0  -0.03561  0  4.0469  0  0  -0.033239  0  4.066303  0  0  -0.091171  -0.036962  0  4.033615  0
C  C42  1  0.43113967  0.08726699  0.16684559  1  0  -0.021252  0  3.786646  0  0  -0.040234  0  4.05542  0  0  -0.03788  0  4.073547  0  0  -0.090382  -0.041608  0  4.042868  0
C  C43  1  0.56886163  0.91273291  0.83315444  1  0  -0.021266  0  3.786598  0  0  -0.040269  0  4.055398  0  0  -0.0379  0  4.073513  0  0  -0.090393  -0.041653  0  4.042866  0
C  C44  1  0.33052677  0.67405127  0.09156238  1  0  0.33504  0  3.803929  0  0  0.321783  0  4.084855  0  0  0.334431  0  4.095366  0  0  0.09581  0.313013  0  4.077891  0
C  C45  1  0.66947699  0.32594576  0.90843563  1  0  0.335132  0  3.803925  0  0  0.321892  0  4.084827  0  0  0.334539  0  4.095335  0  0  0.095834  0.313123  0  4.077863  0
C  C46  1  0.22486494  0.15143135  0.14093587  1  0  -0.206765  0  3.766191  0  0  -0.23782  0  4.029963  0  0  -0.244024  0  4.050061  0  0  -0.109547  -0.233628  0  4.016429  0
C  C47  1  0.77513422  0.84856571  0.85906513  1  0  -0.206742  0  3.766246  0  0  -0.237821  0  4.030029  0  0  -0.24402  0  4.050114  0  0  -0.10958  -0.233625  0  4.016491  0
C  C48  1  0.13651963  0.75459462  0.05593521  1  0  -0.220067  0  3.771208  0  0  -0.251431  0  4.038598  0  0  -0.258138  0  4.057507  0  0  -0.115737  -0.246953  0  4.025885  0
C  C49  1  0.86348797  0.24539526  0.94406092  1  0  -0.220221  0  3.771245  0  0  -0.251608  0  4.038634  0  0  -0.258329  0  4.057572  0  0  -0.115804  -0.247125  0  4.025916  0
N  N50  1  0.17781886  0.44614117  0.31484449  1  0  -0.662702  0  3.174993  0  0  -0.603478  0  3.398842  0  0  -0.624748  0  3.401518  0  0  -0.609457  -0.588548  0  3.39681  0
N  N51  1  0.82217647  0.55386304  0.68515635  1  0  -0.662731  0  3.174976  0  0  -0.603368  0  3.398885  0  0  -0.624642  0  3.401565  0  0  -0.609399  -0.588431  0  3.396849  0
N  N52  1  0.33818439  0.86145970  0.40148195  1  0  -0.665594  0  3.154681  0  0  -0.60893  0  3.380663  0  0  -0.630103  0  3.381008  0  0  -0.611381  -0.593936  0  3.380173  0
N  N53  1  0.66181507  0.13854591  0.59851923  1  0  -0.665437  0  3.154722  0  0  -0.608821  0  3.380619  0  0  -0.629993  0  3.380969  0  0  -0.611311  -0.593826  0  3.380121  0
Cl  Cl54  1  0.83817455  0.75755348  0.47442508  1  0  -0.574372  0  0.946504  0  0  -0.507546  0  1.207534  0  0  -0.524143  0  1.187579  0  0  -0.290996  -0.49544  0  1.221269  0
Cl  Cl55  1  0.16181297  0.24246075  0.52557367  1  0  -0.574398  0  0.946522  0  0  -0.507552  0  1.207564  0  0  -0.524145  0  1.1876  0  0  -0.291017  -0.495449  0  1.221297  0
Cl  Cl56  1  0.33952176  0.61776307  0.60650551  1  0  -0.571433  0  0.949234  0  0  -0.511108  0  1.22201  0  0  -0.52812  0  1.202373  0  0  -0.304623  -0.498754  0  1.235379  0
Cl  Cl57  1  0.66046898  0.38222691  0.39350113  1  0  -0.571423  0  0.949235  0  0  -0.511112  0  1.222039  0  0  -0.528131  0  1.202415  0  0  -0.304639  -0.498726  0  1.235345  0
F  F58  1  0.85715961  0.17899875  0.17937382  1  0  -0.227678  0  1.22235  0  0  -0.158188  0  1.378043  0  0  -0.169044  0  1.369694  0  0  -0.092939  -0.150292  0  1.383609  0
F  F59  1  0.14283771  0.82100402  0.82062765  1  0  -0.227618  0  1.222365  0  0  -0.158123  0  1.378065  0  0  -0.168981  0  1.369714  0  0  -0.092912  -0.150226  0  1.38363  0
F  F60  1  0.51249353  0.69459361  0.04014776  1  0  -0.225944  0  1.211493  0  0  -0.157327  0  1.361665  0  0  -0.167928  0  1.352882  0  0  -0.093567  -0.149625  0  1.367575  0
F  F61  1  0.48751084  0.30540628  0.95985141  1  0  -0.225891  0  1.211461  0  0  -0.157284  0  1.361632  0  0  -0.167885  0  1.352851  0  0  -0.093538  -0.149585  0  1.367541  0
