# generated using pymatgen
data_Na3H12C6N7O9
_symmetry_space_group_name_H-M   'P 1'
_cell_length_a   9.40180495
_cell_length_b   9.40181589
_cell_length_c   9.40180906
_cell_angle_alpha   103.03649803
_cell_angle_beta   103.03679991
_cell_angle_gamma   103.03637001
_symmetry_Int_Tables_number   1
_chemical_formula_structural   Na3H12C6N7O9
_chemical_formula_sum   'Na6 H24 C12 N14 O18'
_cell_volume   754.57454101
_cell_formula_units_Z   2
loop_
 _symmetry_equiv_pos_site_id
 _symmetry_equiv_pos_as_xyz
  1  'x, y, z'
loop_
 _atom_site_type_symbol
 _atom_site_label
 _atom_site_symmetry_multiplicity
 _atom_site_fract_x
 _atom_site_fract_y
 _atom_site_fract_z
 _atom_site_occupancy
 _atom_site_hle17_bader_spin_density
 _atom_site_hle17_ddec_charge
 _atom_site_hle17_ddec_spin_density
 _atom_site_hle17_ddec_sum_bond_order
 _atom_site_hle17_magmom
 _atom_site_hse06_10hf_bader_spin_density
 _atom_site_hse06_10hf_ddec_charge
 _atom_site_hse06_10hf_ddec_spin_density
 _atom_site_hse06_10hf_ddec_sum_bond_order
 _atom_site_hse06_10hf_magmom
 _atom_site_hse06_bader_spin_density
 _atom_site_hse06_ddec_charge
 _atom_site_hse06_ddec_spin_density
 _atom_site_hse06_ddec_sum_bond_order
 _atom_site_hse06_magmom
 _atom_site_pbe_bader_spin_density
 _atom_site_pbe_cm5_charge
 _atom_site_pbe_ddec_charge
 _atom_site_pbe_ddec_spin_density
 _atom_site_pbe_ddec_sum_bond_order
 _atom_site_pbe_magmom
Na  Na0  1  0.26642960  0.61884785  0.12777745  1  0  0.852571  0  0.429116  0  0  0.780535  0  0.609641  0  0  0.795117  0  0.584996  0  0  0.738395  0.769754  0  0.627643  0
Na  Na1  1  0.12777652  0.26642750  0.61884603  1  0  0.852563  0  0.429129  0  0  0.78053  0  0.609645  0  0  0.795111  0  0.585012  0  0  0.73839  0.769757  0  0.627651  0
Na  Na2  1  0.61884558  0.12777838  0.26642883  1  0  0.852577  0  0.429118  0  0  0.780538  0  0.609633  0  0  0.795124  0  0.584991  0  0  0.738394  0.769824  0  0.627573  0
Na  Na3  1  0.62777813  0.11884785  0.76643114  1  0  0.852578  0  0.429118  0  0  0.780554  0  0.609614  0  0  0.795134  0  0.584976  0  0  0.738399  0.769835  0  0.62755  0
Na  Na4  1  0.11884748  0.76643043  0.62777690  1  0  0.852564  0  0.42913  0  0  0.780544  0  0.609633  0  0  0.795117  0  0.584992  0  0  0.738403  0.769769  0  0.627639  0
Na  Na5  1  0.76643056  0.62777656  0.11884526  1  0  0.852569  0  0.429122  0  0  0.780544  0  0.609628  0  0  0.795122  0  0.584989  0  0  0.738393  0.769821  0  0.627566  0
H  H6  1  0.45829802  0.41683369  0.27915217  1  0  0.072867  0  0.930304  0  0  0.083842  0  1.000509  0  0  0.084848  0  0.999433  0  0  0.122836  0.083017  0  1.001299  0
H  H7  1  0.27915210  0.45829635  0.41683574  1  0  0.072853  0  0.930337  0  0  0.083824  0  1.000552  0  0  0.084829  0  0.999476  0  0  0.122845  0.082994  0  1.00136  0
H  H8  1  0.41683292  0.27915070  0.45829505  1  0  0.072899  0  0.930256  0  0  0.083853  0  1.000495  0  0  0.084862  0  0.999413  0  0  0.122848  0.083022  0  1.001305  0
H  H9  1  0.77915191  0.91683386  0.95829707  1  0  0.072879  0  0.930279  0  0  0.083837  0  1.000487  0  0  0.084844  0  0.999409  0  0  0.122834  0.083016  0  1.00128  0
H  H10  1  0.91683602  0.95829728  0.77915217  1  0  0.072861  0  0.930303  0  0  0.083832  0  1.000525  0  0  0.084839  0  0.999448  0  0  0.122839  0.083  0  1.001332  0
H  H11  1  0.95829473  0.77915061  0.91683309  1  0  0.072894  0  0.930237  0  0  0.083847  0  1.00048  0  0  0.084856  0  0.999398  0  0  0.122846  0.083019  0  1.001288  0
H  H12  1  0.39206027  0.32090611  0.07858878  1  0  0.069971  0  0.903723  0  0  0.085818  0  0.963552  0  0  0.085934  0  0.963656  0  0  0.125053  0.085269  0  0.964381  0
H  H13  1  0.07858781  0.39206199  0.32090329  1  0  0.070007  0  0.903679  0  0  0.085839  0  0.963522  0  0  0.085958  0  0.96362  0  0  0.125061  0.085287  0  0.964359  0
H  H14  1  0.32090056  0.07858673  0.39205597  1  0  0.069996  0  0.90368  0  0  0.085826  0  0.963527  0  0  0.085944  0  0.963631  0  0  0.125083  0.085272  0  0.96437  0
H  H15  1  0.57858716  0.82090531  0.89205947  1  0  0.07001  0  0.903676  0  0  0.085823  0  0.963519  0  0  0.08594  0  0.963625  0  0  0.125062  0.085272  0  0.964358  0
H  H16  1  0.82090332  0.89206279  0.57858828  1  0  0.070016  0  0.903651  0  0  0.085857  0  0.96349  0  0  0.085975  0  0.963592  0  0  0.125067  0.0853  0  0.964335  0
H  H17  1  0.89205744  0.57858661  0.82090037  1  0  0.069976  0  0.903689  0  0  0.085807  0  0.963544  0  0  0.085922  0  0.96365  0  0  0.125076  0.085254  0  0.964384  0
H  H18  1  0.98992277  0.26193873  0.04956683  1  0  0.066637  0  0.915269  0  0  0.081645  0  0.97838  0  0  0.081762  0  0.978263  0  0  0.121715  0.081606  0  0.978392  0
H  H19  1  0.04956449  0.98992412  0.26192937  1  0  0.066586  0  0.915327  0  0  0.081593  0  0.978509  0  0  0.081732  0  0.97837  0  0  0.121736  0.081537  0  0.978546  0
H  H20  1  0.26192966  0.04956853  0.98991892  1  0  0.066616  0  0.915267  0  0  0.081635  0  0.978407  0  0  0.08176  0  0.978281  0  0  0.121699  0.081585  0  0.978446  0
H  H21  1  0.54956623  0.76193647  0.48992187  1  0  0.066667  0  0.915321  0  0  0.081657  0  0.978425  0  0  0.081782  0  0.978301  0  0  0.121736  0.081604  0  0.978465  0
H  H22  1  0.76193073  0.48992370  0.54956546  1  0  0.066633  0  0.915293  0  0  0.08163  0  0.978457  0  0  0.081765  0  0.978322  0  0  0.12175  0.081576  0  0.978493  0
H  H23  1  0.48991981  0.54956775  0.76192673  1  0  0.066622  0  0.915285  0  0  0.081626  0  0.978437  0  0  0.08176  0  0.978301  0  0  0.121712  0.08158  0  0.978479  0
H  H24  1  0.12450618  0.23118407  0.94841397  1  0  0.070152  0  0.924476  0  0  0.084324  0  0.991481  0  0  0.084999  0  0.990374  0  0  0.123322  0.083916  0  0.992086  0
H  H25  1  0.94841196  0.12450738  0.23117474  1  0  0.070077  0  0.924488  0  0  0.0843  0  0.991497  0  0  0.084978  0  0.990391  0  0  0.123311  0.083893  0  0.992093  0
H  H26  1  0.23117524  0.94841559  0.12450199  1  0  0.070098  0  0.924414  0  0  0.08432  0  0.991399  0  0  0.084986  0  0.990314  0  0  0.123296  0.08391  0  0.992015  0
H  H27  1  0.44841481  0.73118317  0.62450490  1  0  0.070139  0  0.924495  0  0  0.084327  0  0.991448  0  0  0.084992  0  0.990366  0  0  0.123308  0.083916  0  0.992063  0
H  H28  1  0.73117668  0.62450714  0.44841204  1  0  0.070147  0  0.924449  0  0  0.084326  0  0.991484  0  0  0.085002  0  0.990377  0  0  0.123318  0.083922  0  0.992074  0
H  H29  1  0.62450208  0.44841441  0.73117302  1  0  0.070089  0  0.924409  0  0  0.084313  0  0.991378  0  0  0.08498  0  0.990293  0  0  0.123291  0.083918  0  0.991979  0
C  C30  1  0.36720450  0.32600510  0.18817661  1  0  0.086234  0  3.651331  0  0  0.018962  0  3.920098  0  0  0.026646  0  3.929057  0  0  0.017103  0.013939  0  3.913791  0
C  C31  1  0.18817686  0.36720558  0.32600542  1  0  0.086238  0  3.65131  0  0  0.01894  0  3.920023  0  0  0.026626  0  3.92898  0  0  0.017124  0.013909  0  3.913739  0
C  C32  1  0.32600297  0.18817734  0.36720264  1  0  0.086283  0  3.651165  0  0  0.019023  0  3.919883  0  0  0.026708  0  3.928837  0  0  0.017123  0.013993  0  3.913601  0
C  C33  1  0.68817698  0.82600413  0.86720329  1  0  0.086213  0  3.651289  0  0  0.019008  0  3.919948  0  0  0.026691  0  3.928905  0  0  0.017132  0.013976  0  3.913659  0
C  C34  1  0.82600447  0.86720538  0.68817737  1  0  0.086234  0  3.651354  0  0  0.018916  0  3.920111  0  0  0.026596  0  3.929071  0  0  0.017093  0.013888  0  3.913819  0
C  C35  1  0.86720150  0.68817611  0.82600345  1  0  0.08634  0  3.651166  0  0  0.019059  0  3.919892  0  0  0.026747  0  3.928847  0  0  0.017122  0.014022  0  3.913615  0
C  C36  1  0.09964679  0.23685339  0.05785446  1  0  0.092597  0  3.638051  0  0  0.023838  0  3.907418  0  0  0.03201  0  3.915794  0  0  0.022761  0.018449  0  3.901263  0
C  C37  1  0.05785161  0.09964687  0.23684522  1  0  0.092846  0  3.637956  0  0  0.02389  0  3.907577  0  0  0.032048  0  3.915953  0  0  0.022737  0.018524  0  3.901397  0
C  C38  1  0.23684573  0.05785592  0.09964284  1  0  0.092755  0  3.637801  0  0  0.023893  0  3.907359  0  0  0.03206  0  3.915732  0  0  0.022769  0.018502  0  3.901204  0
C  C39  1  0.55785359  0.73685225  0.59964522  1  0  0.09258  0  3.638055  0  0  0.023929  0  3.907339  0  0  0.032093  0  3.915713  0  0  0.022773  0.018537  0  3.901192  0
C  C40  1  0.73684810  0.59964775  0.55785250  1  0  0.092687  0  3.637941  0  0  0.023872  0  3.907487  0  0  0.03203  0  3.915868  0  0  0.02274  0.018508  0  3.901291  0
C  C41  1  0.59964249  0.55785490  0.73684481  1  0  0.092779  0  3.637734  0  0  0.023969  0  3.907301  0  0  0.032133  0  3.915667  0  0  0.022785  0.018563  0  3.901155  0
N  N42  1  0.22099176  0.36286802  0.17884535  1  0  -0.351668  0  3.164432  0  0  -0.280656  0  3.426919  0  0  -0.295234  0  3.441919  0  0  -0.407787  -0.270457  0  3.415964  0
N  N43  1  0.17884467  0.22099137  0.36286527  1  0  -0.351808  0  3.164356  0  0  -0.280705  0  3.426827  0  0  -0.295278  0  3.44183  0  0  -0.40782  -0.270514  0  3.41588  0
N  N44  1  0.36286625  0.17884590  0.22098807  1  0  -0.351725  0  3.164283  0  0  -0.280786  0  3.426906  0  0  -0.295361  0  3.441908  0  0  -0.407779  -0.27058  0  3.415951  0
N  N45  1  0.67884649  0.86286803  0.72099002  1  0  -0.351733  0  3.164444  0  0  -0.280767  0  3.426923  0  0  -0.295335  0  3.441917  0  0  -0.407837  -0.270565  0  3.415972  0
N  N46  1  0.86286511  0.72099110  0.67884250  1  0  -0.351815  0  3.164461  0  0  -0.280724  0  3.426919  0  0  -0.295294  0  3.441919  0  0  -0.407787  -0.270523  0  3.415965  0
N  N47  1  0.72098928  0.67884604  0.86286495  1  0  -0.351774  0  3.164351  0  0  -0.280801  0  3.42689  0  0  -0.295381  0  3.441896  0  0  -0.407781  -0.270588  0  3.415942  0
N  N48  1  0.08839016  0.08839482  0.08838878  1  0  -0.29631  0  3.122667  0  0  -0.234407  0  3.396837  0  0  -0.248659  0  3.411531  0  0  -0.34614  -0.224728  0  3.386958  0
N  N49  1  0.58838960  0.58839364  0.58838919  1  0  -0.296235  0  3.122482  0  0  -0.234535  0  3.396779  0  0  -0.248781  0  3.411463  0  0  -0.346181  -0.22484  0  3.3869  0
N  N50  1  0.20652308  0.57174456  0.80290445  1  0  0.68428  0  4.200998  0  0  0.720674  0  4.489574  0  0  0.747955  0  4.495537  0  0  0.034369  0.702256  0  4.485296  0
N  N51  1  0.80290494  0.20652347  0.57174423  1  0  0.684283  0  4.201025  0  0  0.72066  0  4.489622  0  0  0.747945  0  4.495574  0  0  0.034357  0.702239  0  4.485353  0
N  N52  1  0.57174451  0.80290402  0.20652299  1  0  0.684253  0  4.200968  0  0  0.720735  0  4.489445  0  0  0.747945  0  4.495492  0  0  0.034411  0.702322  0  4.485167  0
N  N53  1  0.30290438  0.07174266  0.70652290  1  0  0.684348  0  4.200919  0  0  0.720586  0  4.489663  0  0  0.747876  0  4.495608  0  0  0.034415  0.702174  0  4.485377  0
N  N54  1  0.07174429  0.70652391  0.30290561  1  0  0.684296  0  4.20107  0  0  0.720695  0  4.489628  0  0  0.747979  0  4.495586  0  0  0.034373  0.702278  0  4.485347  0
N  N55  1  0.70652704  0.30290437  0.07174389  1  0  0.684276  0  4.201324  0  0  0.720744  0  4.489816  0  0  0.747951  0  4.495866  0  0  0.034361  0.703957  0  4.485207  0
O  O56  1  0.22248319  0.70578246  0.88089697  1  0  -0.489753  0  1.733904  0  0  -0.483704  0  1.951795  0  0  -0.496721  0  1.944659  0  0  -0.222914  -0.474878  0  1.957773  0
O  O57  1  0.88089605  0.22248213  0.70578255  1  0  -0.489744  0  1.733911  0  0  -0.483687  0  1.951801  0  0  -0.496709  0  1.944665  0  0  -0.222912  -0.474852  0  1.957767  0
O  O58  1  0.70578397  0.88089670  0.22248155  1  0  -0.489738  0  1.733872  0  0  -0.483716  0  1.95173  0  0  -0.496716  0  1.944621  0  0  -0.222938  -0.474889  0  1.957702  0
O  O59  1  0.38089565  0.20578277  0.72248115  1  0  -0.48976  0  1.733755  0  0  -0.483669  0  1.95171  0  0  -0.496693  0  1.944574  0  0  -0.222945  -0.474836  0  1.957668  0
O  O60  1  0.20578325  0.72248479  0.38089882  1  0  -0.489766  0  1.733863  0  0  -0.483734  0  1.951768  0  0  -0.496754  0  1.94463  0  0  -0.222941  -0.474907  0  1.957746  0
O  O61  1  0.72248303  0.38089604  0.20578053  1  0  -0.489702  0  1.733854  0  0  -0.483693  0  1.951729  0  0  -0.496688  0  1.944621  0  0  -0.222907  -0.475518  0  1.957676  0
O  O62  1  0.22457522  0.46969935  0.86751956  1  0  -0.516796  0  1.763096  0  0  -0.509474  0  1.987553  0  0  -0.522754  0  1.978686  0  0  -0.264924  -0.500353  0  1.994557  0
O  O63  1  0.86751842  0.22457385  0.46969793  1  0  -0.516821  0  1.763108  0  0  -0.509489  0  1.987569  0  0  -0.522774  0  1.978704  0  0  -0.264932  -0.500362  0  1.99456  0
O  O64  1  0.46969827  0.86751921  0.22457511  1  0  -0.516838  0  1.763105  0  0  -0.509536  0  1.987524  0  0  -0.522791  0  1.978677  0  0  -0.264949  -0.500418  0  1.994523  0
O  O65  1  0.36751887  0.96969753  0.72457433  1  0  -0.51684  0  1.763151  0  0  -0.509457  0  1.987644  0  0  -0.522741  0  1.978779  0  0  -0.264935  -0.500334  0  1.994632  0
O  O66  1  0.96969896  0.72457436  0.36751913  1  0  -0.516807  0  1.763175  0  0  -0.50949  0  1.98764  0  0  -0.522764  0  1.97876  0  0  -0.264915  -0.500367  0  1.994633  0
O  O67  1  0.72457175  0.36751705  0.96969970  1  0  -0.516844  0  1.76324  0  0  -0.509559  0  1.987705  0  0  -0.522818  0  1.978875  0  0  -0.264951  -0.501091  0  1.994667  0
O  O68  1  0.17184032  0.53776669  0.65758783  1  0  -0.538359  0  1.740574  0  0  -0.52763  0  1.967263  0  0  -0.54164  0  1.958025  0  0  -0.294551  -0.517546  0  1.973584  0
O  O69  1  0.65758919  0.17183900  0.53776682  1  0  -0.538367  0  1.740591  0  0  -0.527629  0  1.96729  0  0  -0.541641  0  1.958045  0  0  -0.294535  -0.51754  0  1.973601  0
O  O70  1  0.53776847  0.65758831  0.17184058  1  0  -0.538327  0  1.740573  0  0  -0.527635  0  1.967248  0  0  -0.541621  0  1.95803  0  0  -0.294549  -0.517548  0  1.973552  0
O  O71  1  0.15758775  0.03776721  0.67184014  1  0  -0.538383  0  1.740582  0  0  -0.527602  0  1.967328  0  0  -0.541612  0  1.958076  0  0  -0.294568  -0.51752  0  1.973646  0
O  O72  1  0.03776890  0.67184274  0.15759096  1  0  -0.538351  0  1.740628  0  0  -0.527607  0  1.967307  0  0  -0.541618  0  1.958066  0  0  -0.294547  -0.517513  0  1.973605  0
O  O73  1  0.67183987  0.15759322  0.03776931  1  0  -0.538375  0  1.740865  0  0  -0.527647  0  1.967504  0  0  -0.541636  0  1.95829  0  0  -0.294541  -0.518212  0  1.973791  0
