# generated using pymatgen
data_H17PbC21S2N3O8
_symmetry_space_group_name_H-M   'P 1'
_cell_length_a   8.31041915
_cell_length_b   11.72768682
_cell_length_c   12.17173741
_cell_angle_alpha   99.29919310
_cell_angle_beta   99.37832419
_cell_angle_gamma   98.51639149
_symmetry_Int_Tables_number   1
_chemical_formula_structural   H17PbC21S2N3O8
_chemical_formula_sum   'H34 Pb2 C42 S4 N6 O16'
_cell_volume   1136.35936417
_cell_formula_units_Z   2
loop_
 _symmetry_equiv_pos_site_id
 _symmetry_equiv_pos_as_xyz
  1  'x, y, z'
loop_
 _atom_site_type_symbol
 _atom_site_label
 _atom_site_symmetry_multiplicity
 _atom_site_fract_x
 _atom_site_fract_y
 _atom_site_fract_z
 _atom_site_occupancy
 _atom_site_hle17_bader_spin_density
 _atom_site_hle17_ddec_charge
 _atom_site_hle17_ddec_spin_density
 _atom_site_hle17_ddec_sum_bond_order
 _atom_site_hle17_magmom
 _atom_site_hse06_10hf_bader_spin_density
 _atom_site_hse06_10hf_ddec_charge
 _atom_site_hse06_10hf_ddec_spin_density
 _atom_site_hse06_10hf_ddec_sum_bond_order
 _atom_site_hse06_10hf_magmom
 _atom_site_hse06_bader_spin_density
 _atom_site_hse06_ddec_charge
 _atom_site_hse06_ddec_spin_density
 _atom_site_hse06_ddec_sum_bond_order
 _atom_site_hse06_magmom
 _atom_site_pbe_bader_spin_density
 _atom_site_pbe_cm5_charge
 _atom_site_pbe_ddec_charge
 _atom_site_pbe_ddec_spin_density
 _atom_site_pbe_ddec_sum_bond_order
 _atom_site_pbe_magmom
H  H0  1  0.09900702  0.21997704  0.61523880  1  0  0.087291  0  0.93675  0  0  0.096096  0  0.997576  0  0  0.098913  0  0.994951  0  0  0.1158  0.093995  0  0.999536  0
H  H1  1  0.90099114  0.78002232  0.38475812  1  0  0.087279  0  0.936742  0  0  0.096075  0  0.997586  0  0  0.098892  0  0.994958  0  0  0.115795  0.093975  0  0.999547  0
H  H2  1  0.23016774  0.32659758  0.81146966  1  0  0.123388  0  0.956734  0  0  0.125909  0  1.028972  0  0  0.130332  0  1.025991  0  0  0.110611  0.122755  0  1.031175  0
H  H3  1  0.76982627  0.67339997  0.18852892  1  0  0.123367  0  0.956749  0  0  0.125883  0  1.029001  0  0  0.130308  0  1.02602  0  0  0.110592  0.122731  0  1.031202  0
H  H4  1  0.93045994  0.59194988  0.75604091  1  0  0.120164  0  0.96707  0  0  0.127969  0  1.029615  0  0  0.1315  0  1.028076  0  0  0.10901  0.12539  0  1.030879  0
H  H5  1  0.06954121  0.40804685  0.24395757  1  0  0.120172  0  0.967103  0  0  0.127955  0  1.029665  0  0  0.131502  0  1.028106  0  0  0.109026  0.125375  0  1.030929  0
H  H6  1  0.81191018  0.47550280  0.56646742  1  0  0.069037  0  0.950172  0  0  0.077302  0  1.016917  0  0  0.079692  0  1.014426  0  0  0.112051  0.075552  0  1.018764  0
H  H7  1  0.18808639  0.52450006  0.43352988  1  0  0.069037  0  0.950172  0  0  0.077311  0  1.016904  0  0  0.079701  0  1.014412  0  0  0.112041  0.075561  0  1.018751  0
H  H8  1  0.07963867  0.69637215  0.89984114  1  0  0.125568  0  0.965593  0  0  0.134292  0  1.028738  0  0  0.138265  0  1.026186  0  0  0.109214  0.131458  0  1.030585  0
H  H9  1  0.92036552  0.30362720  0.10015979  1  0  0.125564  0  0.965614  0  0  0.134286  0  1.028763  0  0  0.138256  0  1.026214  0  0  0.109206  0.131452  0  1.030611  0
H  H10  1  0.35222299  0.67782236  0.22609792  1  0  0.108413  0  0.974209  0  0  0.117505  0  1.036806  0  0  0.120903  0  1.035017  0  0  0.107002  0.115056  0  1.038174  0
H  H11  1  0.64777532  0.32217784  0.77390162  1  0  0.108397  0  0.974209  0  0  0.117495  0  1.036813  0  0  0.120893  0  1.035026  0  0  0.107012  0.115046  0  1.038178  0
H  H12  1  0.39527886  0.31063542  0.02375693  1  0  0.130207  0  0.978375  0  0  0.135325  0  1.046433  0  0  0.139708  0  1.043157  0  0  0.110326  0.13219  0  1.048871  0
H  H13  1  0.60472489  0.68936739  0.97624699  1  0  0.130286  0  0.978363  0  0  0.135363  0  1.046451  0  0  0.139755  0  1.043165  0  0  0.110325  0.132228  0  1.048889  0
H  H14  1  0.56879882  0.20187048  0.14093425  1  0  0.086488  0  0.92234  0  0  0.097692  0  0.979864  0  0  0.099994  0  0.978038  0  0  0.118932  0.095958  0  0.981287  0
H  H15  1  0.43120188  0.79812970  0.85906804  1  0  0.0865  0  0.922357  0  0  0.097707  0  0.979885  0  0  0.100007  0  0.978061  0  0  0.118942  0.095973  0  0.981308  0
H  H16  1  0.62765061  0.46189939  0.42686240  1  0  0.061912  0  0.948123  0  0  0.074405  0  1.009021  0  0  0.076445  0  1.006757  0  0  0.11088  0.07288  0  1.010741  0
H  H17  1  0.37234884  0.53810077  0.57314055  1  0  0.061929  0  0.948094  0  0  0.074423  0  1.008996  0  0  0.076462  0  1.006733  0  0  0.110881  0.072902  0  1.010702  0
H  H18  1  0.46279778  0.58115741  0.32403341  1  0  0.105096  0  0.983543  0  0  0.113037  0  1.049508  0  0  0.11655  0  1.047759  0  0  0.103531  0.110513  0  1.050865  0
H  H19  1  0.53720205  0.41884449  0.67597152  1  0  0.105049  0  0.983605  0  0  0.112987  0  1.049563  0  0  0.116502  0  1.047812  0  0  0.103497  0.110463  0  1.050917  0
H  H20  1  0.39360285  0.08229092  0.28779789  1  0  0.093614  0  0.984863  0  0  0.09963  0  1.058477  0  0  0.102708  0  1.055971  0  0  0.108034  0.097318  0  1.060475  0
H  H21  1  0.60639795  0.91770932  0.71220031  1  0  0.09369  0  0.984853  0  0  0.099705  0  1.058444  0  0  0.102786  0  1.055939  0  0  0.108063  0.097395  0  1.060441  0
H  H22  1  0.87623737  0.97840815  0.13761600  1  0  0.124212  0  0.939825  0  0  0.131068  0  1.00213  0  0  0.135059  0  0.999015  0  0  0.112626  0.128129  0  1.004495  0
H  H23  1  0.12376534  0.02159477  0.86238041  1  0  0.124228  0  0.939865  0  0  0.131066  0  1.002201  0  0  0.135054  0  0.999092  0  0  0.112651  0.128126  0  1.004565  0
H  H24  1  0.93225644  0.78771884  0.04400803  1  0  0.109894  0  0.938379  0  0  0.118759  0  1.000283  0  0  0.122451  0  0.99846  0  0  0.109528  0.11613  0  1.001699  0
H  H25  1  0.06774682  0.21228143  0.95598965  1  0  0.109869  0  0.938362  0  0  0.118753  0  1.000252  0  0  0.122445  0  0.99843  0  0  0.109528  0.116124  0  1.001669  0
H  H26  1  0.80834021  0.97732878  0.53859253  1  0  0.42679  0  0.868975  0  0  0.397941  0  0.92849  0  0  0.40844  0  0.913295  0  0  0.289649  0.390482  0  0.939265  0
H  H27  1  0.19165915  0.02267058  0.46140535  1  0  0.426833  0  0.868912  0  0  0.397993  0  0.928412  0  0  0.408491  0  0.91322  0  0  0.289668  0.390533  0  0.939189  0
H  H28  1  0.65030745  0.95168407  0.44318529  1  0  0.407919  0  0.905091  0  0  0.377249  0  0.969547  0  0  0.387604  0  0.954461  0  0  0.285951  0.369917  0  0.980197  0
H  H29  1  0.34969048  0.04831440  0.55681227  1  0  0.407969  0  0.905041  0  0  0.377313  0  0.969484  0  0  0.387667  0  0.954399  0  0  0.285973  0.369982  0  0.980132  0
H  H30  1  0.41868184  0.25762707  0.45558854  1  0  0.426886  0  0.873285  0  0  0.395934  0  0.937207  0  0  0.406661  0  0.921608  0  0  0.291623  0.388347  0  0.948206  0
H  H31  1  0.58131523  0.74237311  0.54441167  1  0  0.42688  0  0.873317  0  0  0.395909  0  0.937271  0  0  0.40664  0  0.921666  0  0  0.291602  0.388321  0  0.948272  0
H  H32  1  0.49480231  0.22228053  0.57166802  1  0  0.434143  0  0.863008  0  0  0.405906  0  0.921552  0  0  0.416083  0  0.906631  0  0  0.296101  0.398703  0  0.93209  0
H  H33  1  0.50519499  0.77772054  0.42833154  1  0  0.434148  0  0.862989  0  0  0.405914  0  0.921529  0  0  0.416092  0  0.906606  0  0  0.296094  0.398711  0  0.932069  0
Pb  Pb34  1  0.75403445  0.19049983  0.41134797  1  0  1.323903  0  1.392612  0  0  1.14036  0  1.778443  0  0  1.197846  0  1.736499  0  0  0.658954  1.099023  0  1.807678  0
Pb  Pb35  1  0.24596752  0.80950039  0.58865201  1  0  1.323956  0  1.392574  0  0  1.140419  0  1.7784  0  0  1.197899  0  1.736453  0  0  0.658965  1.099075  0  1.807654  0
C  C36  1  0.06423840  0.30234392  0.65063359  1  0  0.124817  0  3.724376  0  0  0.09739  0  3.973058  0  0  0.103933  0  3.992436  0  0  0.044545  0.093149  0  3.959808  0
C  C37  1  0.93575922  0.69765361  0.34936789  1  0  0.124878  0  3.724344  0  0  0.097473  0  3.972996  0  0  0.104018  0  3.992373  0  0  0.044595  0.093233  0  3.959747  0
C  C38  1  0.13742992  0.36208718  0.75963407  1  0  -0.13768  0  3.684889  0  0  -0.157844  0  3.937237  0  0  -0.164842  0  3.957879  0  0  -0.076259  -0.153323  0  3.92343  0
C  C39  1  0.86257085  0.63791305  0.24036495  1  0  -0.137698  0  3.68488  0  0  -0.157849  0  3.937232  0  0  -0.16485  0  3.957873  0  0  -0.076268  -0.153328  0  3.923427  0
C  C40  1  0.08995651  0.46811172  0.80214881  1  0  0.076692  0  3.726627  0  0  0.08712  0  3.957941  0  0  0.090622  0  3.97982  0  0  0.016184  0.084941  0  3.943062  0
C  C41  1  0.91003890  0.53188669  0.19785172  1  0  0.076717  0  3.726599  0  0  0.087098  0  3.957997  0  0  0.090599  0  3.979879  0  0  0.016189  0.084921  0  3.943118  0
C  C42  1  0.97244155  0.51006052  0.73000714  1  0  -0.151308  0  3.701273  0  0  -0.171409  0  3.952555  0  0  -0.178714  0  3.973933  0  0  -0.081508  -0.166628  0  3.938247  0
C  C43  1  0.02755570  0.48993529  0.26999154  1  0  -0.15132  0  3.701262  0  0  -0.171379  0  3.952557  0  0  -0.178695  0  3.973928  0  0  -0.081524  -0.166596  0  3.938245  0
C  C44  1  0.90553998  0.44471171  0.62243133  1  0  0.125548  0  3.761244  0  0  0.094731  0  4.019605  0  0  0.10132  0  4.03936  0  0  0.042312  0.090461  0  4.006018  0
C  C45  1  0.09445405  0.55528585  0.37756643  1  0  0.125516  0  3.761328  0  0  0.094687  0  4.019696  0  0  0.101275  0  4.039455  0  0  0.042311  0.090418  0  4.006108  0
C  C46  1  0.16132184  0.53152992  0.91955203  1  0  0.205008  0  3.776764  0  0  0.20422  0  4.027346  0  0  0.20974  0  4.046861  0  0  0.119899  0.200462  0  4.01404  0
C  C47  1  0.83867992  0.46846943  0.08044778  1  0  0.204977  0  3.776683  0  0  0.204145  0  4.027363  0  0  0.209666  0  4.046875  0  0  0.119852  0.200385  0  4.014058  0
C  C48  1  0.14216637  0.64760613  0.95741395  1  0  -0.169896  0  3.618795  0  0  -0.199011  0  3.866935  0  0  -0.204318  0  3.885424  0  0  -0.073244  -0.195412  0  3.854451  0
C  C49  1  0.85783249  0.35239142  0.04258686  1  0  -0.169852  0  3.618762  0  0  -0.198966  0  3.86689  0  0  -0.204272  0  3.885378  0  0  -0.073227  -0.195367  0  3.854407  0
C  C50  1  0.21269695  0.70250728  0.06926444  1  0  0.103452  0  3.773592  0  0  0.11739  0  4.011026  0  0  0.119249  0  4.032943  0  0  0.010648  0.116173  0  3.996099  0
C  C51  1  0.78730314  0.29749029  0.93073570  1  0  0.103378  0  3.773648  0  0  0.117394  0  4.011  0  0  0.119255  0  4.032914  0  0  0.010662  0.116175  0  3.996074  0
C  C52  1  0.29789173  0.63803303  0.13838034  1  0  -0.163119  0  3.664423  0  0  -0.191699  0  3.910195  0  0  -0.196768  0  3.929284  0  0  -0.074314  -0.188287  0  3.89737  0
C  C53  1  0.70211001  0.36196631  0.86162029  1  0  -0.163032  0  3.664322  0  0  -0.191645  0  3.910089  0  0  -0.196714  0  3.929179  0  0  -0.074324  -0.188231  0  3.89726  0
C  C54  1  0.31472853  0.52372798  0.09376936  1  0  0.208924  0  3.779042  0  0  0.209192  0  4.025679  0  0  0.214947  0  4.044035  0  0  0.121528  0.205276  0  4.013162  0
C  C55  1  0.68527492  0.47627315  0.90622931  1  0  0.208972  0  3.77908  0  0  0.209221  0  4.025757  0  0  0.214974  0  4.044117  0  0  0.121616  0.205306  0  4.013236  0
C  C56  1  0.41258817  0.45566386  0.16284331  1  0  0.077358  0  3.730283  0  0  0.090431  0  3.957306  0  0  0.094051  0  3.978401  0  0  0.015576  0.088156  0  3.943001  0
C  C57  1  0.58741297  0.54433809  0.83715851  1  0  0.077408  0  3.730314  0  0  0.090468  0  3.957356  0  0  0.094084  0  3.978462  0  0  0.015534  0.088191  0  3.943048  0
C  C58  1  0.44355396  0.34666906  0.11306972  1  0  -0.136885  0  3.661143  0  0  -0.160072  0  3.911119  0  0  -0.166544  0  3.930017  0  0  -0.077823  -0.15591  0  3.898485  0
C  C59  1  0.55644979  0.65333375  0.88693420  1  0  -0.136961  0  3.661226  0  0  -0.160096  0  3.911199  0  0  -0.166573  0  3.930091  0  0  -0.077783  -0.155938  0  3.898576  0
C  C60  1  0.54145250  0.28633647  0.17803581  1  0  0.140787  0  3.708162  0  0  0.110669  0  3.965308  0  0  0.117592  0  3.984191  0  0  0.050089  0.10619  0  3.952312  0
C  C61  1  0.45855348  0.71366548  0.82196824  1  0  0.140699  0  3.708347  0  0  0.110567  0  3.965496  0  0  0.11749  0  3.984382  0  0  0.050025  0.106089  0  3.952498  0
C  C62  1  0.57574260  0.43112545  0.33677228  1  0  0.139307  0  3.752826  0  0  0.108134  0  4.00822  0  0  0.115295  0  4.027665  0  0  0.044182  0.103475  0  3.994856  0
C  C63  1  0.42425483  0.56887646  0.66323072  1  0  0.139262  0  3.752739  0  0  0.108084  0  4.008126  0  0  0.115244  0  4.027575  0  0  0.044147  0.103427  0  3.99476  0
C  C64  1  0.48095860  0.49783615  0.27812764  1  0  -0.151547  0  3.703599  0  0  -0.16975  0  3.950084  0  0  -0.177334  0  3.971494  0  0  -0.08324  -0.16476  0  3.93565  0
C  C65  1  0.51903886  0.50216577  0.72187454  1  0  -0.151449  0  3.703676  0  0  -0.169642  0  3.95017  0  0  -0.177216  0  3.971561  0  0  -0.083122  -0.164648  0  3.935731  0
C  C66  1  0.19392162  0.82348876  0.11575819  1  0  0.069368  0  3.711566  0  0  0.072315  0  3.943613  0  0  0.076346  0  3.965245  0  0  0.008011  0.069753  0  3.928963  0
C  C67  1  0.80607768  0.17651056  0.88424214  1  0  0.069377  0  3.711637  0  0  0.072291  0  3.943683  0  0  0.076323  0  3.965312  0  0  0.008012  0.069729  0  3.929031  0
C  C68  1  0.32522918  0.90937337  0.18351134  1  0  -0.147173  0  3.649962  0  0  -0.124397  0  3.89447  0  0  -0.132553  0  3.914648  0  0  -0.011852  -0.119319  0  3.881232  0
C  C69  1  0.67476917  0.09062686  0.81648656  1  0  -0.147148  0  3.649913  0  0  -0.124366  0  3.89442  0  0  -0.132521  0  3.914597  0  0  -0.011878  -0.119286  0  3.881176  0
C  C70  1  0.29347193  0.01670535  0.23458888  1  0  -0.050627  0  3.779868  0  0  -0.088423  0  4.029775  0  0  -0.085137  0  4.049273  0  0  -0.080481  -0.090388  0  4.016713  0
C  C71  1  0.70652890  0.98329492  0.76540769  1  0  -0.050858  0  3.779824  0  0  -0.088665  0  4.029717  0  0  -0.085382  0  4.049217  0  0  -0.080551  -0.090626  0  4.016654  0
C  C72  1  0.13304905  0.03993719  0.22040786  1  0  -0.113317  0  3.737884  0  0  -0.084658  0  3.983654  0  0  -0.093098  0  4.005823  0  0  -0.017046  -0.079276  0  3.968838  0
C  C73  1  0.86695462  0.96006482  0.77959098  1  0  -0.113204  0  3.73777  0  0  -0.084481  0  3.983434  0  0  -0.092921  0  4.005603  0  0  -0.017053  -0.079106  0  3.968617  0
C  C74  1  0.00187915  0.95954236  0.14908498  1  0  -0.03521  0  3.695643  0  0  -0.06422  0  3.947672  0  0  -0.061105  0  3.964969  0  0  -0.07324  -0.06607  0  3.935951  0
C  C75  1  0.99812108  0.04046052  0.85091276  1  0  -0.035192  0  3.695824  0  0  -0.064217  0  3.947879  0  0  -0.0611  0  3.965178  0  0  -0.073199  -0.066061  0  3.936152  0
C  C76  1  0.03448434  0.85285789  0.09694854  1  0  -0.089178  0  3.672577  0  0  -0.107439  0  3.925424  0  0  -0.112085  0  3.945117  0  0  -0.0744  -0.104468  0  3.912103  0
C  C77  1  0.96551659  0.14714318  0.90305310  1  0  -0.08918  0  3.672588  0  0  -0.10746  0  3.925445  0  0  -0.112106  0  3.945137  0  0  -0.074424  -0.10449  0  3.912123  0
S  S78  1  0.54017077  0.89438449  0.21305492  1  0  1.313989  0  5.63822  0  0  1.213554  0  6.160935  0  0  1.262636  0  6.13681  0  0  0.520168  1.179659  0  6.176465  0
S  S79  1  0.45983013  0.10561657  0.78694754  1  0  1.314088  0  5.637932  0  0  1.213676  0  6.160628  0  0  1.262753  0  6.136502  0  0  0.52027  1.179783  0  6.176155  0
S  S80  1  0.09868417  0.16491649  0.31150814  1  0  1.288184  0  5.647068  0  0  1.189273  0  6.162833  0  0  1.237219  0  6.141001  0  0  0.51713  1.156193  0  6.176762  0
S  S81  1  0.90131538  0.83508373  0.68849073  1  0  1.288252  0  5.647054  0  0  1.189316  0  6.162831  0  0  1.237263  0  6.140991  0  0  0.517139  1.156243  0  6.176752  0
N  N82  1  0.94858266  0.34190069  0.58275860  1  0  -0.381702  0  3.235231  0  0  -0.306041  0  3.48906  0  0  -0.327184  0  3.51157  0  0  -0.310333  -0.291411  0  3.473308  0
N  N83  1  0.05141524  0.65809777  0.41723978  1  0  -0.381706  0  3.235276  0  0  -0.306051  0  3.489101  0  0  -0.327191  0  3.511607  0  0  -0.310351  -0.291421  0  3.473347  0
N  N84  1  0.24637830  0.47144045  0.98632361  1  0  -0.36059  0  3.04706  0  0  -0.331684  0  3.310918  0  0  -0.342307  0  3.326035  0  0  -0.30083  -0.324236  0  3.300549  0
N  N85  1  0.75362122  0.52855975  0.01367689  1  0  -0.360708  0  3.047138  0  0  -0.331755  0  3.310998  0  0  -0.342376  0  3.326113  0  0  -0.30089  -0.324307  0  3.300628  0
N  N86  1  0.60743332  0.32764795  0.28844223  1  0  -0.372562  0  3.22177  0  0  -0.299172  0  3.479279  0  0  -0.319942  0  3.501808  0  0  -0.310123  -0.284824  0  3.463554  0
N  N87  1  0.39256553  0.67235483  0.71156191  1  0  -0.372569  0  3.22175  0  0  -0.299179  0  3.47927  0  0  -0.319947  0  3.501796  0  0  -0.31014  -0.284833  0  3.463549  0
O  O88  1  0.56197622  0.84764746  0.32034516  1  0  -0.715979  0  2.00937  0  0  -0.650901  0  2.247015  0  0  -0.673171  0  2.230408  0  0  -0.344496  -0.635067  0  2.257912  0
O  O89  1  0.43802533  0.15235101  0.67965448  1  0  -0.716074  0  2.009201  0  0  -0.650993  0  2.246834  0  0  -0.673259  0  2.230223  0  0  -0.344567  -0.635168  0  2.257736  0
O  O90  1  0.70990914  0.01060963  0.51110569  1  0  -0.841068  0  1.809565  0  0  -0.778355  0  1.974429  0  0  -0.802094  0  1.946078  0  0  -0.576953  -0.761446  0  1.994188  0
O  O91  1  0.29009121  0.98938884  0.48889298  1  0  -0.841151  0  1.809538  0  0  -0.778453  0  1.974354  0  0  -0.80219  0  1.946001  0  0  -0.576972  -0.761545  0  1.994111  0
O  O92  1  0.52286941  0.26461210  0.51154043  1  0  -0.852916  0  1.810479  0  0  -0.791339  0  1.984431  0  0  -0.814861  0  1.955353  0  0  -0.567597  -0.774544  0  2.004617  0
O  O93  1  0.47712787  0.73538897  0.48845994  1  0  -0.85293  0  1.810479  0  0  -0.791341  0  1.984435  0  0  -0.814863  0  1.95535  0  0  -0.567575  -0.774544  0  2.004626  0
O  O94  1  0.57466723  0.81640274  0.11795341  1  0  -0.621882  0  1.956304  0  0  -0.574219  0  2.199452  0  0  -0.5958  0  2.187542  0  0  -0.323421  -0.558884  0  2.20705  0
O  O95  1  0.42533434  0.18359574  0.88204541  1  0  -0.621843  0  1.95642  0  0  -0.574199  0  2.199564  0  0  -0.595775  0  2.18765  0  0  -0.323407  -0.558864  0  2.207159  0
O  O96  1  0.63233140  0.01554997  0.23111654  1  0  -0.706248  0  2.003744  0  0  -0.646307  0  2.263934  0  0  -0.671245  0  2.249947  0  0  -0.331  -0.628531  0  2.272923  0
O  O97  1  0.36767253  0.98444847  0.76888585  1  0  -0.706299  0  2.003517  0  0  -0.64637  0  2.263702  0  0  -0.671308  0  2.249714  0  0  -0.331059  -0.628594  0  2.272687  0
O  O98  1  0.25385377  0.25046855  0.34238996  1  0  -0.655442  0  1.991083  0  0  -0.603128  0  2.234456  0  0  -0.624432  0  2.222254  0  0  -0.330828  -0.588161  0  2.242406  0
O  O99  1  0.74614370  0.74953338  0.65761140  1  0  -0.65544  0  1.991126  0  0  -0.603128  0  2.234537  0  0  -0.624432  0  2.22233  0  0  -0.330801  -0.588165  0  2.242493  0
O  O100  1  0.05337904  0.11635428  0.41080171  1  0  -0.716459  0  1.972985  0  0  -0.649588  0  2.212719  0  0  -0.674172  0  2.198484  0  0  -0.331475  -0.632104  0  2.221926  0
O  O101  1  0.94662069  0.88364157  0.58919564  1  0  -0.716546  0  1.972961  0  0  -0.649663  0  2.2127  0  0  -0.674248  0  2.198464  0  0  -0.331515  -0.632179  0  2.221905  0
O  O102  1  0.95848763  0.20889318  0.25266958  1  0  -0.667531  0  1.972929  0  0  -0.611099  0  2.222911  0  0  -0.634366  0  2.210617  0  0  -0.319613  -0.594597  0  2.230748  0
O  O103  1  0.04150944  0.79110701  0.74733063  1  0  -0.667555  0  1.972948  0  0  -0.611122  0  2.222932  0  0  -0.634386  0  2.21063  0  0  -0.319601  -0.594617  0  2.230765  0
