# generated using pymatgen
data_ZnH22C16I4(NO4)2
_symmetry_space_group_name_H-M   'P 1'
_cell_length_a   8.52585004
_cell_length_b   11.37987084
_cell_length_c   13.66200000
_cell_angle_alpha   90.00000000
_cell_angle_beta   90.00000000
_cell_angle_gamma   99.88051216
_symmetry_Int_Tables_number   1
_chemical_formula_structural   ZnH22C16I4(NO4)2
_chemical_formula_sum   'Zn2 H44 C32 I8 N4 O16'
_cell_volume   1305.86862861
_cell_formula_units_Z   2
loop_
 _symmetry_equiv_pos_site_id
 _symmetry_equiv_pos_as_xyz
  1  'x, y, z'
loop_
 _atom_site_type_symbol
 _atom_site_label
 _atom_site_symmetry_multiplicity
 _atom_site_fract_x
 _atom_site_fract_y
 _atom_site_fract_z
 _atom_site_occupancy
 _atom_site_hle17_bader_spin_density
 _atom_site_hle17_ddec_charge
 _atom_site_hle17_ddec_spin_density
 _atom_site_hle17_ddec_sum_bond_order
 _atom_site_hle17_magmom
 _atom_site_hse06_10hf_bader_spin_density
 _atom_site_hse06_10hf_ddec_charge
 _atom_site_hse06_10hf_ddec_spin_density
 _atom_site_hse06_10hf_ddec_sum_bond_order
 _atom_site_hse06_10hf_magmom
 _atom_site_hse06_bader_spin_density
 _atom_site_hse06_ddec_charge
 _atom_site_hse06_ddec_spin_density
 _atom_site_hse06_ddec_sum_bond_order
 _atom_site_hse06_magmom
 _atom_site_pbe_bader_charge
 _atom_site_pbe_bader_spin_density
 _atom_site_pbe_cm5_charge
 _atom_site_pbe_ddec_charge
 _atom_site_pbe_ddec_spin_density
 _atom_site_pbe_ddec_sum_bond_order
 _atom_site_pbe_magmom
Zn  Zn0  1  0.99999868  0.49999992  0.50000073  1  0  1.126687  0  1.73413  0  0  0.976606  0  2.15952  0  0  1.025068  0  2.103459  0  1.367895  0  0.672839  0.943314  0  2.197987  0
Zn  Zn1  1  0.49999824  0.00000000  0.99999780  1  0  1.126683  0  1.734197  0  0  0.976626  0  2.159581  0  0  1.025095  0  2.103516  0  1.367939  0  0.672848  0.94334  0  2.198048  0
H  H2  1  0.68532230  0.31354512  0.51232543  1  0  0.083026  0  0.943612  0  0  0.102833  0  1.00568  0  0  0.10328  0  1.005795  0  0.070686  0  0.094104  0.102661  0  1.005414  0
H  H3  1  0.81467421  0.18645302  0.01232543  1  0  0.08302  0  0.943603  0  0  0.102808  0  1.005693  0  0  0.103254  0  1.00581  0  0.070696  0  0.094106  0.102638  0  1.005423  0
H  H4  1  0.31467251  0.68645383  0.48767530  1  0  0.083044  0  0.943606  0  0  0.102847  0  1.005678  0  0  0.103294  0  1.005793  0  0.070692  0  0.094118  0.102676  0  1.00541  0
H  H5  1  0.18532198  0.81354683  0.98767311  1  0  0.083019  0  0.943608  0  0  0.102835  0  1.005668  0  0  0.103281  0  1.005784  0  0.070714  0  0.094139  0.102663  0  1.005402  0
H  H6  1  0.53143111  0.37668622  0.45272874  1  0  0.058842  0  0.967195  0  0  0.06983  0  1.047036  0  0  0.070644  0  1.046464  0  0.020041  0  0.07749  0.06929  0  1.047441  0
H  H7  1  0.96856581  0.12331370  0.95272800  1  0  0.058846  0  0.967207  0  0  0.069851  0  1.047026  0  0  0.070665  0  1.046454  0  0.02005  0  0.077507  0.069311  0  1.04743  0
H  H8  1  0.46856509  0.62331363  0.54727200  1  0  0.058856  0  0.96721  0  0  0.069862  0  1.047031  0  0  0.070677  0  1.046459  0  0.020068  0  0.077509  0.069323  0  1.047434  0
H  H9  1  0.03143196  0.87668793  0.04727053  1  0  0.058851  0  0.9672  0  0  0.069843  0  1.047037  0  0  0.070657  0  1.046464  0  0.020057  0  0.077508  0.069307  0  1.047439  0
H  H10  1  0.61753098  0.43895051  0.56532353  1  0  0.076141  0  0.934304  0  0  0.094377  0  0.996645  0  0  0.09582  0  0.99535  0  0.047997  0  0.09118  0.093321  0  0.997656  0
H  H11  1  0.88246650  0.06104674  0.06532206  1  0  0.076154  0  0.934282  0  0  0.09439  0  0.996623  0  0  0.095833  0  0.995329  0  0.047895  0  0.091176  0.093333  0  0.997634  0
H  H12  1  0.38246501  0.56104845  0.43467794  1  0  0.076172  0  0.934278  0  0  0.094411  0  0.996615  0  0  0.095854  0  0.99532  0  0.047905  0  0.091188  0.093355  0  0.997625  0
H  H13  1  0.11753086  0.93895311  0.93467574  1  0  0.076131  0  0.934246  0  0  0.094359  0  0.996604  0  0  0.095802  0  0.995309  0  0.047988  0  0.091159  0.093304  0  0.997615  0
H  H14  1  0.04151594  0.63182128  0.69492388  1  0  0.040794  0  0.944365  0  0  0.045342  0  1.023703  0  0  0.04788  0  1.017507  0  0.100688  0  0.113142  0.043184  0  1.028425  0
H  H15  1  0.45847815  0.86817760  0.19492461  1  0  0.040795  0  0.944457  0  0  0.045369  0  1.023743  0  0  0.047918  0  1.017536  0  0.100874  0  0.113156  0.043214  0  1.028461  0
H  H16  1  0.95848045  0.36817946  0.30507612  1  0  0.040805  0  0.94435  0  0  0.045381  0  1.023643  0  0  0.047932  0  1.017435  0  0.10086  0  0.113147  0.043223  0  1.028364  0
H  H17  1  0.54151728  0.13182403  0.80507246  1  0  0.04075  0  0.944344  0  0  0.045282  0  1.023713  0  0  0.047828  0  1.017511  0  0.100679  0  0.113108  0.043125  0  1.028434  0
H  H18  1  0.06328632  0.58492304  0.92950081  1  0  0.086667  0  0.943722  0  0  0.104492  0  1.012975  0  0  0.104796  0  1.013571  0  0.034386  0  0.09212  0.104237  0  1.012523  0
H  H19  1  0.43671700  0.91508030  0.42949861  1  0  0.086638  0  0.943789  0  0  0.104462  0  1.013044  0  0  0.104766  0  1.013643  0  0.034416  0  0.092097  0.104207  0  1.012593  0
H  H20  1  0.93671497  0.41507859  0.07049993  1  0  0.086642  0  0.943822  0  0  0.104468  0  1.013072  0  0  0.104773  0  1.01367  0  0.034366  0  0.092091  0.104214  0  1.01262  0
H  H21  1  0.56328547  0.08492133  0.57049627  1  0  0.086625  0  0.943806  0  0  0.104514  0  1.012989  0  0  0.104819  0  1.013589  0  0.0349  0  0.092136  0.104259  0  1.012538  0
H  H22  1  0.88996865  0.65546039  0.92016176  1  0  0.115251  0  0.959173  0  0  0.130078  0  1.027064  0  0  0.131835  0  1.026219  0  0.10045  0  0.097908  0.12874  0  1.0277  0
H  H23  1  0.61003309  0.84454116  0.42016103  1  0  0.115257  0  0.959179  0  0  0.130084  0  1.027069  0  0  0.131842  0  1.026224  0  0.100378  0  0.097918  0.128747  0  1.027707  0
H  H24  1  0.11003168  0.34454213  0.07983897  1  0  0.115264  0  0.959181  0  0  0.130095  0  1.02706  0  0  0.131853  0  1.026216  0  0.100477  0  0.097926  0.12876  0  1.027692  0
H  H25  1  0.38996525  0.15545779  0.57983458  1  0  0.115233  0  0.959132  0  0  0.130059  0  1.02702  0  0  0.131814  0  1.026185  0  0.100604  0  0.097903  0.128723  0  1.02765  0
H  H26  1  0.05611089  0.70031779  0.84209779  1  0  0.092625  0  0.964099  0  0  0.110052  0  1.034583  0  0  0.11081  0  1.034501  0  0.075347  0  0.100488  0.109411  0  1.034681  0
H  H27  1  0.44388988  0.79968465  0.34209852  1  0  0.092639  0  0.964136  0  0  0.110069  0  1.034614  0  0  0.110825  0  1.034538  0  0.075425  0  0.10051  0.109427  0  1.034713  0
H  H28  1  0.94388943  0.29968473  0.15790148  1  0  0.092631  0  0.964126  0  0  0.110058  0  1.034608  0  0  0.110814  0  1.034532  0  0.075363  0  0.100509  0.109417  0  1.034706  0
H  H29  1  0.55611024  0.20031698  0.65789709  1  0  0.092664  0  0.964048  0  0  0.110066  0  1.034561  0  0  0.110823  0  1.034484  0  0.075439  0  0.100484  0.109425  0  1.03466  0
H  H30  1  0.75811345  0.37980992  0.77817303  1  0  0.10943  0  0.947676  0  0  0.126938  0  1.013008  0  0  0.128957  0  1.010835  0  0.09227  0  0.103071  0.125427  0  1.014551  0
H  H31  1  0.74189341  0.12018733  0.27816791  1  0  0.109396  0  0.947756  0  0  0.126915  0  1.013083  0  0  0.128934  0  1.010908  0  0.091938  0  0.103054  0.125423  0  1.014607  0
H  H32  1  0.24188529  0.62019082  0.22182916  1  0  0.10939  0  0.947686  0  0  0.126906  0  1.013017  0  0  0.128924  0  1.010843  0  0.091971  0  0.103052  0.125408  0  1.014547  0
H  H33  1  0.25811273  0.87980984  0.72182550  1  0  0.10945  0  0.947668  0  0  0.126948  0  1.013006  0  0  0.128966  0  1.010831  0  0.092286  0  0.103088  0.125438  0  1.014549  0
H  H34  1  0.71946702  0.45701834  0.88758674  1  0  0.099179  0  0.968147  0  0  0.116201  0  1.035364  0  0  0.114662  0  1.039075  0  0.062148  0  0.096956  0.117203  0  1.032863  0
H  H35  1  0.78053867  0.04297890  0.38758161  1  0  0.099151  0  0.968086  0  0  0.116143  0  1.035358  0  0  0.114603  0  1.039068  0  0.061933  0  0.096939  0.117145  0  1.03286  0
H  H36  1  0.28053310  0.54298329  0.11241546  1  0  0.099201  0  0.968159  0  0  0.116207  0  1.035389  0  0  0.114666  0  1.0391  0  0.061982  0  0.096987  0.117209  0  1.032892  0
H  H37  1  0.21946705  0.95701648  0.61241107  1  0  0.099185  0  0.968194  0  0  0.116158  0  1.035448  0  0  0.114618  0  1.039158  0  0.062095  0  0.096965  0.117162  0  1.032954  0
H  H38  1  0.87900072  0.37387293  0.88479066  1  0  0.087777  0  0.943078  0  0  0.107845  0  1.010405  0  0  0.108141  0  1.010288  0  0.051588  0  0.094445  0.107506  0  1.010534  0
H  H39  1  0.62100930  0.12612788  0.38478627  1  0  0.087729  0  0.94308  0  0  0.107818  0  1.010406  0  0  0.108106  0  1.010297  0  0.05172  0  0.094464  0.107478  0  1.010537  0
H  H40  1  0.12099863  0.62613048  0.11521080  1  0  0.087733  0  0.943099  0  0  0.107827  0  1.010396  0  0  0.108122  0  1.010279  0  0.051569  0  0.094438  0.107488  0  1.010526  0
H  H41  1  0.37900056  0.87387018  0.61520788  1  0  0.087732  0  0.943108  0  0  0.107842  0  1.010373  0  0  0.108124  0  1.010269  0  0.051558  0  0.094439  0.107504  0  1.010502  0
H  H42  1  0.74547053  0.55567163  0.43776680  1  0  0.365813  0  0.924617  0  0  0.341437  0  0.993158  0  0  0.352719  0  0.981432  0  0.652828  0  0.288256  0.333374  0  1.001456  0
H  H43  1  0.75452728  0.94432814  0.93776533  1  0  0.365893  0  0.924466  0  0  0.341468  0  0.993089  0  0  0.352749  0  0.981366  0  0.652827  0  0.288263  0.333406  0  1.001384  0
H  H44  1  0.25452801  0.44432822  0.56223393  1  0  0.36584  0  0.924553  0  0  0.341426  0  0.993157  0  0  0.352707  0  0.981434  0  0.652823  0  0.288241  0.333362  0  1.001457  0
H  H45  1  0.24547126  0.05567170  0.06223247  1  0  0.365843  0  0.924617  0  0  0.341469  0  0.993146  0  0  0.35275  0  0.981424  0  0.652829  0  0.288261  0.333402  0  1.001456  0
C  C46  1  0.09715378  0.25881802  0.52025179  1  0  0.646375  0  3.970943  0  0  0.591371  0  4.280947  0  0  0.625063  0  4.273363  0  1.623344  0  0.193385  0.56856  0  4.285656  0
C  C47  1  0.40284921  0.24118279  0.02025399  1  0  0.646205  0  3.97129  0  0  0.591272  0  4.281177  0  0  0.624964  0  4.273598  0  1.623022  0  0.193312  0.56846  0  4.28588  0
C  C48  1  0.90284945  0.74118182  0.47974747  1  0  0.64617  0  3.971327  0  0  0.591262  0  4.281191  0  0  0.624956  0  4.27361  0  1.623555  0  0.193326  0.568452  0  4.285896  0
C  C49  1  0.59714953  0.75881795  0.97974674  1  0  0.646129  0  3.971229  0  0  0.591226  0  4.281098  0  0  0.624919  0  4.273518  0  1.623018  0  0.193298  0.568416  0  4.285803  0
C  C50  1  0.05072609  0.12405939  0.51058117  1  0  -0.078726  0  3.740113  0  0  -0.072992  0  3.991048  0  0  -0.07511  0  4.008118  0  0.028576  0  -0.026837  -0.072619  0  3.980614  0
C  C51  1  0.44927670  0.37594053  0.01058191  1  0  -0.078714  0  3.740407  0  0  -0.072918  0  3.991183  0  0  -0.075037  0  4.008256  0  0.028586  0  -0.026779  -0.072543  0  3.980745  0
C  C52  1  0.94927929  0.87593956  0.48941883  1  0  -0.078686  0  3.74032  0  0  -0.072942  0  3.991159  0  0  -0.075062  0  4.008234  0  0.028622  0  -0.026834  -0.072567  0  3.980722  0
C  C53  1  0.55072301  0.62405932  0.98941956  1  0  -0.078635  0  3.740269  0  0  -0.072916  0  3.991145  0  0  -0.075034  0  4.008215  0  0.028578  0  -0.026805  -0.072544  0  3.980709  0
C  C54  1  0.95999248  0.05799708  0.58406529  1  0  -0.032016  0  3.667437  0  0  -0.019654  0  3.931811  0  0  -0.016597  0  3.951405  0  -0.170136  0  -0.058605  -0.021889  0  3.919171  0
C  C55  1  0.54001051  0.44200374  0.08406675  1  0  -0.032002  0  3.667502  0  0  -0.019632  0  3.931831  0  0  -0.016576  0  3.951425  0  -0.169996  0  -0.058584  -0.021866  0  3.919186  0
C  C56  1  0.04001447  0.94200366  0.41593325  1  0  -0.032064  0  3.667498  0  0  -0.019686  0  3.931843  0  0  -0.01663  0  3.951438  0  -0.169898  0  -0.058598  -0.02192  0  3.919196  0
C  C57  1  0.45998783  0.55799522  0.91593251  1  0  -0.032045  0  3.667441  0  0  -0.019656  0  3.93179  0  0  -0.016599  0  3.951385  0  -0.169913  0  -0.058605  -0.021891  0  3.919147  0
C  C58  1  0.90772391  0.93470641  0.57346362  1  0  -0.039241  0  3.674131  0  0  -0.026313  0  3.939694  0  0  -0.023932  0  3.959969  0  -0.216572  0  -0.062195  -0.028087  0  3.926625  0
C  C59  1  0.59227604  0.56529246  0.07346289  1  0  -0.039181  0  3.674143  0  0  -0.026269  0  3.939734  0  0  -0.023888  0  3.960009  0  -0.216775  0  -0.062184  -0.028042  0  3.926663  0
C  C60  1  0.09228105  0.06529076  0.42653638  1  0  -0.03914  0  3.674039  0  0  -0.026222  0  3.939637  0  0  -0.023842  0  3.959912  0  -0.216816  0  -0.062153  -0.027995  0  3.926567  0
C  C61  1  0.40772367  0.43470738  0.92653711  1  0  -0.039211  0  3.674193  0  0  -0.026322  0  3.939772  0  0  -0.023942  0  3.960048  0  -0.216778  0  -0.062198  -0.028093  0  3.926699  0
C  C62  1  0.64177979  0.39657458  0.49590763  1  0  -0.01378  0  3.644554  0  0  -0.105029  0  3.906944  0  0  -0.098699  0  3.911408  0  0.399795  0  -0.158339  -0.109381  0  3.903505  0
C  C63  1  0.85821810  0.10342445  0.99590763  1  0  -0.013788  0  3.644562  0  0  -0.105044  0  3.906972  0  0  -0.09871  0  3.911426  0  0.399921  0  -0.15837  -0.109393  0  3.90353  0
C  C64  1  0.35821737  0.60342438  0.50409310  1  0  -0.013852  0  3.644552  0  0  -0.105133  0  3.906974  0  0  -0.098803  0  3.911435  0  0.399906  0  -0.158392  -0.109483  0  3.903533  0
C  C65  1  0.14177927  0.89657539  0.00409164  1  0  -0.013742  0  3.64445  0  0  -0.105002  0  3.906847  0  0  -0.09867  0  3.911308  0  0.399763  0  -0.15836  -0.109358  0  3.903401  0
C  C66  1  0.95920784  0.54867230  0.71201361  1  0  0.389475  0  3.826042  0  0  0.307604  0  4.127223  0  0  0.336882  0  4.126377  0  1.369001  0  0.164717  0.287782  0  4.127899  0
C  C67  1  0.54078991  0.95132212  0.21201581  1  0  0.389506  0  3.825917  0  0  0.307658  0  4.127067  0  0  0.336926  0  4.126219  0  1.369206  0  0.164785  0.287832  0  4.127747  0
C  C68  1  0.04078856  0.45132844  0.28798565  1  0  0.389445  0  3.825965  0  0  0.307595  0  4.127125  0  0  0.336862  0  4.126277  0  1.369275  0  0.164759  0.287773  0  4.127801  0
C  C69  1  0.45920505  0.04867238  0.78798419  1  0  0.38944  0  3.826126  0  0  0.307582  0  4.127302  0  0  0.336852  0  4.126458  0  1.369424  0  0.164708  0.28776  0  4.127974  0
C  C70  1  0.98521520  0.62364722  0.87903894  1  0  -0.185559  0  3.689154  0  0  -0.288728  0  3.944538  0  0  -0.285968  0  3.955409  0  0.255238  0  -0.143162  -0.290184  0  3.936823  0
C  C71  1  0.51478419  0.87635433  0.37903821  1  0  -0.185518  0  3.689107  0  0  -0.288683  0  3.944501  0  0  -0.285924  0  3.955367  0  0.254864  0  -0.143124  -0.29014  0  3.936786  0
C  C72  1  0.01478257  0.37635441  0.12096033  1  0  -0.185526  0  3.689218  0  0  -0.288695  0  3.944603  0  0  -0.285933  0  3.955466  0  0.255213  0  -0.143151  -0.290149  0  3.936883  0
C  C73  1  0.48521532  0.12364463  0.62095886  1  0  -0.185583  0  3.689082  0  0  -0.288762  0  3.944493  0  0  -0.286005  0  3.95536  0  0.254455  0  -0.143189  -0.290209  0  3.936768  0
C  C74  1  0.81245712  0.43035276  0.84132777  1  0  -0.161865  0  3.642427  0  0  -0.259889  0  3.884148  0  0  -0.255606  0  3.894286  0  0.254968  0  -0.140319  -0.262453  0  3.877125  0
C  C75  1  0.68755015  0.06964627  0.34132265  1  0  -0.161702  0  3.642255  0  0  -0.259719  0  3.88396  0  0  -0.255426  0  3.894099  0  0.255399  0  -0.140277  -0.262302  0  3.876928  0
C  C76  1  0.18754377  0.56964708  0.15867443  1  0  -0.161784  0  3.642411  0  0  -0.259811  0  3.884143  0  0  -0.255527  0  3.894282  0  0.255453  0  -0.140303  -0.262391  0  3.877116  0
C  C77  1  0.31245542  0.93035358  0.65867150  1  0  -0.161888  0  3.642496  0  0  -0.259879  0  3.884258  0  0  -0.255579  0  3.894401  0  0.254995  0  -0.140342  -0.262451  0  3.877242  0
I  I78  1  0.91376243  0.14656570  0.71342410  1  0  0.08276  0  1.505594  0  0  0.075891  0  1.837084  0  0  0.074913  0  1.823338  0  0.167508  0  0.149905  0.076403  0  1.84719  0
I  I79  1  0.58623745  0.35343690  0.21342702  1  0  0.082751  0  1.505585  0  0  0.075881  0  1.837069  0  0  0.074903  0  1.823323  0  0.167451  0  0.149908  0.076397  0  1.847175  0
I  I80  1  0.08623825  0.85343326  0.28657371  1  0  0.082742  0  1.505571  0  0  0.07587  0  1.83707  0  0  0.074893  0  1.823326  0  0.167453  0  0.149891  0.076384  0  1.847177  0
I  I81  1  0.41376109  0.64656294  0.78657298  1  0  0.082747  0  1.505587  0  0  0.075867  0  1.837075  0  0  0.07489  0  1.823327  0  0.167443  0  0.149903  0.076381  0  1.847178  0
I  I82  1  0.76422232  0.83426026  0.68060972  1  0  0.039732  0  1.469023  0  0  0.026028  0  1.786532  0  0  0.026866  0  1.774658  0  0.170022  0  0.113006  0.025103  0  1.795542  0
I  I83  1  0.73577844  0.66574218  0.18060972  1  0  0.039688  0  1.468988  0  0  0.026  0  1.786491  0  0  0.026839  0  1.774618  0  0.170029  0  0.11299  0.025075  0  1.795501  0
I  I84  1  0.23578091  0.16573958  0.31938808  1  0  0.039704  0  1.46899  0  0  0.026009  0  1.786505  0  0  0.026848  0  1.774634  0  0.169968  0  0.112988  0.025083  0  1.795514  0
I  I85  1  0.26422127  0.33425767  0.81939028  1  0  0.03971  0  1.468999  0  0  0.026006  0  1.786518  0  0  0.026846  0  1.774644  0  0.170029  0  0.112986  0.025082  0  1.795527  0
N  N86  1  0.91837270  0.53577524  0.80647343  1  0  -0.099109  0  3.526618  0  0  0.007281  0  3.758035  0  0  -0.013817  0  3.784174  0  -1.199942  0  -0.286415  0.02149  0  3.739801  0
N  N87  1  0.58163001  0.96422542  0.30647050  1  0  -0.099134  0  3.526544  0  0  0.007235  0  3.757978  0  0  -0.013857  0  3.784109  0  -1.199799  0  -0.286449  0.02144  0  3.739754  0
N  N88  1  0.08162508  0.46422639  0.19352730  1  0  -0.099148  0  3.526582  0  0  0.007228  0  3.758014  0  0  -0.013867  0  3.784154  0  -1.200166  0  -0.28645  0.021435  0  3.739786  0
N  N89  1  0.41837322  0.03577442  0.69352364  1  0  -0.099058  0  3.526636  0  0  0.007289  0  3.75808  0  0  -0.013804  0  3.784214  0  -1.199994  0  -0.286424  0.021497  0  3.739851  0
O  O90  1  0.99205578  0.31608190  0.48828795  1  0  -0.628888  0  2.061128  0  0  -0.564019  0  2.319888  0  0  -0.593764  0  2.309923  0  -1.159824  0  -0.311962  -0.543306  0  2.32623  0
O  O91  1  0.50795032  0.18391713  0.98828942  1  0  -0.628733  0  2.061112  0  0  -0.563922  0  2.319821  0  0  -0.593669  0  2.309858  0  -1.159499  0  -0.311873  -0.543232  0  2.326208  0
O  O92  1  0.00794960  0.68391706  0.51171205  1  0  -0.628714  0  2.061125  0  0  -0.563919  0  2.319861  0  0  -0.593666  0  2.309896  0  -1.159514  0  -0.311872  -0.543202  0  2.326191  0
O  O93  1  0.49205056  0.81608271  0.01171058  1  0  -0.628712  0  2.061158  0  0  -0.563928  0  2.319904  0  0  -0.593676  0  2.309941  0  -1.159513  0  -0.311859  -0.543218  0  2.326247  0
O  O94  1  0.23027191  0.29973290  0.55800249  1  0  -0.605383  0  1.996724  0  0  -0.552099  0  2.217848  0  0  -0.577639  0  2.210985  0  -1.164085  0  -0.309896  -0.533882  0  2.222069  0
O  O95  1  0.26973185  0.20026613  0.05800322  1  0  -0.605332  0  1.996815  0  0  -0.55211  0  2.21794  0  0  -0.577651  0  2.211079  0  -1.164069  0  -0.309956  -0.533888  0  2.222162  0
O  O96  1  0.76973249  0.70026695  0.44199751  1  0  -0.605288  0  1.996861  0  0  -0.552067  0  2.217981  0  0  -0.577609  0  2.211117  0  -1.164613  0  -0.309916  -0.533851  0  2.222199  0
O  O97  1  0.73026904  0.79973371  0.94199678  1  0  -0.605307  0  1.996751  0  0  -0.552068  0  2.217862  0  0  -0.577608  0  2.211  0  -1.164042  0  -0.309933  -0.533851  0  2.222081  0
O  O98  1  0.76466404  0.47035515  0.44104889  1  0  -0.552082  0  2.236833  0  0  -0.475109  0  2.487771  0  0  -0.497099  0  2.476413  0  -1.178237  0  -0.408182  -0.458842  0  2.494904  0
O  O99  1  0.73533406  0.02964478  0.94104743  1  0  -0.552178  0  2.236785  0  0  -0.475099  0  2.487613  0  0  -0.497091  0  2.476256  0  -1.178273  0  -0.408175  -0.458832  0  2.494745  0
O  O100  1  0.23533430  0.52964381  0.55895257  1  0  -0.552079  0  2.236756  0  0  -0.475033  0  2.487641  0  0  -0.497024  0  2.476284  0  -1.178263  0  -0.408154  -0.458767  0  2.494773  0
O  O101  1  0.26466469  0.97035596  0.05895037  1  0  -0.552135  0  2.236822  0  0  -0.475167  0  2.487769  0  0  -0.49716  0  2.476411  0  -1.178224  0  -0.408193  -0.458898  0  2.494906  0
O  O102  1  0.90902940  0.47404614  0.64673327  1  0  -0.540635  0  2.122868  0  0  -0.482122  0  2.392641  0  0  -0.507622  0  2.384468  0  -1.171998  0  -0.300694  -0.464763  0  2.398174  0
O  O103  1  0.59097532  0.02595200  0.14672742  1  0  -0.540727  0  2.122517  0  0  -0.482286  0  2.392341  0  0  -0.507793  0  2.384176  0  -1.172225  0  -0.300815  -0.464922  0  2.397879  0
O  O104  1  0.09096720  0.52595549  0.35326746  1  0  -0.540626  0  2.12277  0  0  -0.48218  0  2.392601  0  0  -0.507682  0  2.384434  0  -1.172215  0  -0.300747  -0.46482  0  2.398136  0
O  O105  1  0.40902873  0.97405141  0.85326453  1  0  -0.540558  0  2.122946  0  0  -0.482026  0  2.392651  0  0  -0.507528  0  2.384485  0  -1.172337  0  -0.30063  -0.464666  0  2.398181  0
