# generated using pymatgen
data_Mn3H12C4N20(ClO)2
_symmetry_space_group_name_H-M   'P 1'
_cell_length_a   9.17895948
_cell_length_b   9.34707704
_cell_length_c   12.95488045
_cell_angle_alpha   89.99979694
_cell_angle_beta   89.99983022
_cell_angle_gamma   90.68428368
_symmetry_Int_Tables_number   1
_chemical_formula_structural   Mn3H12C4N20(ClO)2
_chemical_formula_sum   'Mn6 H24 C8 N40 Cl4 O4'
_cell_volume   1111.40337409
_cell_formula_units_Z   2
loop_
 _symmetry_equiv_pos_site_id
 _symmetry_equiv_pos_as_xyz
  1  'x, y, z'
loop_
 _atom_site_type_symbol
 _atom_site_label
 _atom_site_symmetry_multiplicity
 _atom_site_fract_x
 _atom_site_fract_y
 _atom_site_fract_z
 _atom_site_occupancy
 _atom_site_pbe_bader_charge
 _atom_site_pbe_bader_spin_density
 _atom_site_pbe_cm5_charge
 _atom_site_pbe_ddec_charge
 _atom_site_pbe_ddec_spin_density
 _atom_site_pbe_ddec_sum_bond_order
 _atom_site_pbe_magmom
Mn  Mn0  1  0.99999602  0.50000174  0.00000295  1  1.422114  4.547546  0.553815  0.620593  4.696273  2.628531  4.45
Mn  Mn1  1  0.49999788  0.00000068  0.49999714  1  1.421976  4.547583  0.553815  0.620582  4.696288  2.628531  4.45
Mn  Mn2  1  0.77801853  0.51154352  0.76205265  1  1.42805  4.555047  0.566759  0.722714  4.673903  2.516449  4.463
Mn  Mn3  1  0.72196628  0.98845985  0.26205057  1  1.428004  4.555046  0.566777  0.722755  4.673847  2.516365  4.463
Mn  Mn4  1  0.22197443  0.48844401  0.23794885  1  1.42814  4.55503  0.566785  0.722754  4.673911  2.516366  4.463
Mn  Mn5  1  0.27802366  0.01154267  0.73794861  1  1.428085  4.555034  0.566783  0.722765  4.673889  2.516342  4.463
H  H6  1  0.76565769  0.54800017  0.55118768  1  0.622317  0.001574  0.325682  0.392442  0.001213  0.886011  0.001
H  H7  1  0.73434431  0.95200095  0.05118336  1  0.622335  0.001575  0.32568  0.392397  0.001214  0.886067  0.001
H  H8  1  0.23433985  0.45200017  0.44881073  1  0.622356  0.001574  0.325668  0.392432  0.001213  0.886051  0.001
H  H9  1  0.26565984  0.04800364  0.94881505  1  0.622321  0.001574  0.325624  0.392343  0.001213  0.886128  0.001
H  H10  1  0.91166909  0.61702453  0.58677172  1  0.603066  0.001037  0.29934  0.370334  0.00088  0.959304  0.001
H  H11  1  0.58833269  0.88297320  0.08676787  1  0.603055  0.001037  0.299356  0.370307  0.000881  0.959295  0.001
H  H12  1  0.08833053  0.38297045  0.41322747  1  0.603035  0.001037  0.299373  0.370373  0.00088  0.959204  0.001
H  H13  1  0.41167250  0.11702924  0.91322900  1  0.603022  0.001037  0.299368  0.370342  0.00088  0.959223  0.001
H  H14  1  0.84735481  0.82109876  0.63031573  1  0.475909  0.000925  0.295262  0.286701  0.000496  1.022587  0.0
H  H15  1  0.65265004  0.67889767  0.13031382  1  0.475821  0.000926  0.295265  0.286716  0.000497  1.022644  0.0
H  H16  1  0.15264702  0.17889835  0.36968268  1  0.475887  0.000925  0.295255  0.286706  0.000497  1.02267  0.0
H  H17  1  0.34735185  0.32110265  0.86968537  1  0.475855  0.000925  0.29528  0.286737  0.000496  1.022638  0.0
H  H18  1  0.01946179  0.88407049  0.60231780  1  0.458782  0.002274  0.278616  0.287531  0.001789  1.019665  0.0
H  H19  1  0.48054207  0.61592440  0.10231845  1  0.458788  0.002273  0.278602  0.287544  0.001789  1.019619  0.0
H  H20  1  0.98053676  0.11592557  0.39767752  1  0.458781  0.002273  0.278633  0.287578  0.001789  1.019596  0.0
H  H21  1  0.51946200  0.38407591  0.89767996  1  0.45877  0.002274  0.278588  0.287519  0.00179  1.019646  0.0
H  H22  1  0.36906130  0.74888275  0.90112006  1  0.495652  0.000383  0.301332  0.307068  0.000169  1.003258  0.0
H  H23  1  0.13093490  0.75111925  0.40111646  1  0.495673  0.000384  0.301363  0.30714  0.000169  1.003218  0.0
H  H24  1  0.63094391  0.25112077  0.09888144  1  0.495612  0.000383  0.301357  0.3071  0.000169  1.00329  0.0
H  H25  1  0.86906596  0.24888429  0.59888427  1  0.495711  0.000383  0.301355  0.307113  0.000169  1.00324  0.0
H  H26  1  0.52519870  0.64317753  0.91380173  1  0.481203  0.001892  0.281869  0.291563  0.001383  1.023988  0.0
H  H27  1  0.97480177  0.85682286  0.41380024  1  0.481219  0.001892  0.281874  0.291578  0.001383  1.023925  0.0
H  H28  1  0.47480432  0.35682493  0.08619977  1  0.48122  0.001891  0.281881  0.291572  0.001383  1.023988  0.0
H  H29  1  0.02520341  0.14317851  0.58620204  1  0.480796  0.001892  0.281903  0.291592  0.001382  1.023889  0.0
C  C30  1  0.00510233  0.77986548  0.73770322  1  1.454605  0.015443  0.332156  0.499661  0.012445  4.066164  0.013
C  C31  1  0.49489668  0.72013411  0.23770126  1  1.454467  0.015445  0.332155  0.499694  0.012446  4.066066  0.013
C  C32  1  0.99489736  0.22013379  0.26229519  1  1.454621  0.015445  0.332117  0.499613  0.012447  4.066247  0.013
C  C33  1  0.50510190  0.27986409  0.76229793  1  1.454583  0.015444  0.332186  0.499748  0.012446  4.066021  0.013
C  C34  1  0.51066808  0.75009852  0.77828821  1  1.531572  0.014825  0.336465  0.523846  0.011976  4.088265  0.013
C  C35  1  0.98932864  0.74990471  0.27828618  1  1.531409  0.014822  0.336494  0.523903  0.011973  4.088079  0.013
C  C36  1  0.48933382  0.24990288  0.22171329  1  1.531575  0.014828  0.336498  0.52393  0.011979  4.08804  0.013
C  C37  1  0.01066994  0.25009349  0.72171609  1  1.531472  0.014823  0.336561  0.524014  0.011974  4.087894  0.013
N  N38  1  0.94653571  0.67803348  0.79849335  1  -0.752645  0.055574  -0.238988  -0.316088  0.03825  3.372328  0.023
N  N39  1  0.55346091  0.82196858  0.29849051  1  -0.752635  0.055582  -0.238973  -0.316109  0.038255  3.372254  0.023
N  N40  1  0.05346185  0.32196794  0.20150660  1  -0.75275  0.055589  -0.238968  -0.316059  0.038254  3.372347  0.023
N  N41  1  0.44653771  0.17803176  0.70150945  1  -0.752694  0.055576  -0.238982  -0.316147  0.03825  3.372384  0.023
N  N42  1  0.03106106  0.67681735  0.88403119  1  -0.225651  0.057054  -0.098305  -0.044194  0.038624  3.508363  0.025
N  N43  1  0.46893518  0.82318260  0.38402979  1  -0.225585  0.057051  -0.098298  -0.044133  0.038621  3.508163  0.025
N  N44  1  0.96893540  0.32318407  0.11596877  1  -0.225614  0.057055  -0.098322  -0.044195  0.038623  3.508356  0.025
N  N45  1  0.53106232  0.17681561  0.61597171  1  -0.225579  0.057047  -0.098308  -0.044145  0.038622  3.508325  0.025
N  N46  1  0.13618814  0.77181995  0.87600618  1  -0.105905  0.024658  -0.081807  -0.061084  0.016466  3.240625  0.019
N  N47  1  0.36380920  0.72817895  0.37600447  1  -0.105944  0.024659  -0.081847  -0.061154  0.016467  3.240604  0.019
N  N48  1  0.86381048  0.22818039  0.12399455  1  -0.105897  0.024663  -0.081832  -0.061148  0.01647  3.240658  0.019
N  N49  1  0.63618830  0.27181925  0.62399548  1  -0.105851  0.024658  -0.081771  -0.061051  0.016466  3.240581  0.019
N  N50  1  0.12220974  0.84013322  0.78444988  1  -0.7781  0.060387  -0.238746  -0.317495  0.041117  3.382078  0.021
N  N51  1  0.37778797  0.65986507  0.28444986  1  -0.777957  0.060376  -0.238744  -0.317495  0.041116  3.38207  0.021
N  N52  1  0.87778993  0.15986497  0.21554930  1  -0.778113  0.060384  -0.238727  -0.317413  0.041117  3.382048  0.021
N  N53  1  0.62220953  0.34013314  0.71555087  1  -0.778073  0.060379  -0.238796  -0.317542  0.041118  3.382042  0.021
N  N54  1  0.95757838  0.80851104  0.63942880  1  -1.245783  0.008482  -0.586046  -0.657323  0.005623  3.344433  0.005
N  N55  1  0.54242532  0.69148429  0.13942940  1  -1.245725  0.008482  -0.586051  -0.657415  0.005624  3.344459  0.005
N  N56  1  0.04242343  0.19148501  0.36056884  1  -1.245697  0.008483  -0.586021  -0.65736  0.005624  3.344446  0.005
N  N57  1  0.45757548  0.30851604  0.86057133  1  -1.245738  0.008483  -0.586065  -0.65745  0.005624  3.344458  0.005
N  N58  1  0.62288971  0.68734749  0.72765474  1  -0.776736  0.062435  -0.247623  -0.341153  0.043572  3.37871  0.025
N  N59  1  0.87710939  0.81265491  0.22765047  1  -0.776577  0.062425  -0.247644  -0.341196  0.043573  3.378679  0.025
N  N60  1  0.37711218  0.31265284  0.27234676  1  -0.776729  0.062444  -0.247664  -0.341179  0.043576  3.378738  0.025
N  N61  1  0.12289035  0.18734756  0.77235026  1  -0.776637  0.062431  -0.24764  -0.341183  0.043572  3.378781  0.025
N  N62  1  0.63175062  0.75313988  0.63470898  1  -0.123482  0.02631  -0.095395  -0.091284  0.017948  3.331381  0.02
N  N63  1  0.86824551  0.74685764  0.13470799  1  -0.123842  0.026311  -0.095446  -0.091315  0.017948  3.331269  0.02
N  N64  1  0.36824794  0.24685725  0.36529020  1  -0.12376  0.02632  -0.09547  -0.091386  0.017956  3.331492  0.02
N  N65  1  0.13175645  0.25314696  0.86529197  1  -0.123852  0.02631  -0.095533  -0.09145  0.017947  3.33156  0.02
N  N66  1  0.52981103  0.84863316  0.62895669  1  -0.242395  0.055088  -0.107758  -0.0453  0.03631  3.555173  0.021
N  N67  1  0.97018511  0.65136333  0.12895650  1  -0.242191  0.055091  -0.107709  -0.045251  0.036301  3.555015  0.021
N  N68  1  0.47018753  0.15136397  0.37104326  1  -0.242188  0.055096  -0.107652  -0.045151  0.036306  3.555183  0.021
N  N69  1  0.02981686  0.34864128  0.87104345  1  -0.242299  0.055099  -0.107652  -0.045177  0.036309  3.555285  0.021
N  N70  1  0.45070013  0.85092643  0.71714516  1  -0.76789  0.054665  -0.242103  -0.316629  0.036433  3.336066  0.021
N  N71  1  0.04929901  0.64907540  0.21714431  1  -0.767837  0.05467  -0.242087  -0.316618  0.036433  3.335949  0.021
N  N72  1  0.54930067  0.14907390  0.28285634  1  -0.767854  0.054659  -0.242117  -0.316658  0.036434  3.336043  0.021
N  N73  1  0.95070072  0.35092600  0.78285719  1  -0.767822  0.054659  -0.242119  -0.316676  0.036432  3.335946  0.021
N  N74  1  0.46885167  0.71893620  0.87508733  1  -1.309795  0.012051  -0.587774  -0.655236  0.008235  3.381119  0.008
N  N75  1  0.03114675  0.78106163  0.37508387  1  -1.309748  0.012048  -0.587808  -0.655332  0.008233  3.381016  0.008
N  N76  1  0.53115360  0.28107052  0.12491649  1  -1.3097  0.012054  -0.587801  -0.655294  0.008237  3.381161  0.008
N  N77  1  0.96885182  0.21893550  0.62491841  1  -1.309292  0.01205  -0.587858  -0.655356  0.008234  3.380871  0.008
Cl  Cl78  1  0.72501052  0.50012947  0.95590322  1  -0.720094  0.156639  -0.218194  -0.451491  0.122601  1.336477  0.071
Cl  Cl79  1  0.77498758  0.99986965  0.45590254  1  -0.720064  0.156628  -0.218197  -0.45153  0.122599  1.336421  0.071
Cl  Cl80  1  0.27498705  0.49987302  0.04409520  1  -0.720051  0.15662  -0.218192  -0.451503  0.122598  1.336383  0.071
Cl  Cl81  1  0.22501101  0.00012855  0.54409896  1  -0.720079  0.156633  -0.218205  -0.451539  0.122603  1.336475  0.071
O  O82  1  0.85195517  0.52823693  0.59249946  1  -1.213746  0.059481  -0.55166  -0.694897  0.042436  2.118488  0.031
O  O83  1  0.64804765  0.97175864  0.09249835  1  -1.213779  0.059486  -0.551673  -0.694808  0.042438  2.118496  0.031
O  O84  1  0.14804013  0.47176022  0.40749972  1  -1.213759  0.059488  -0.551683  -0.694927  0.042438  2.118507  0.031
O  O85  1  0.35195753  0.02824274  0.90750083  1  -1.213717  0.059484  -0.551641  -0.694783  0.042436  2.118529  0.031
