# generated using pymatgen
data_ZnH6C14(NO3)4
_symmetry_space_group_name_H-M   'P 1'
_cell_length_a   11.16455510
_cell_length_b   11.16458506
_cell_length_c   11.53065369
_cell_angle_alpha   90.00034687
_cell_angle_beta   89.99976454
_cell_angle_gamma   120.00029227
_symmetry_Int_Tables_number   1
_chemical_formula_structural   ZnH6C14(NO3)4
_chemical_formula_sum   'Zn3 H18 C42 N12 O36'
_cell_volume   1244.70745168
_cell_formula_units_Z   3
loop_
 _symmetry_equiv_pos_site_id
 _symmetry_equiv_pos_as_xyz
  1  'x, y, z'
loop_
 _atom_site_type_symbol
 _atom_site_label
 _atom_site_symmetry_multiplicity
 _atom_site_fract_x
 _atom_site_fract_y
 _atom_site_fract_z
 _atom_site_occupancy
 _atom_site_hle17_bader_spin_density
 _atom_site_hle17_ddec_charge
 _atom_site_hle17_ddec_spin_density
 _atom_site_hle17_ddec_sum_bond_order
 _atom_site_hle17_magmom
 _atom_site_hse06_10hf_bader_spin_density
 _atom_site_hse06_10hf_ddec_charge
 _atom_site_hse06_10hf_ddec_spin_density
 _atom_site_hse06_10hf_ddec_sum_bond_order
 _atom_site_hse06_10hf_magmom
 _atom_site_hse06_bader_spin_density
 _atom_site_hse06_ddec_charge
 _atom_site_hse06_ddec_spin_density
 _atom_site_hse06_ddec_sum_bond_order
 _atom_site_hse06_magmom
 _atom_site_pbe_bader_spin_density
 _atom_site_pbe_cm5_charge
 _atom_site_pbe_ddec_charge
 _atom_site_pbe_ddec_spin_density
 _atom_site_pbe_ddec_sum_bond_order
 _atom_site_pbe_magmom
Zn  Zn0  1  0.05094382  0.00000867  0.83332126  1  0  1.230037  0  1.686552  0  0  1.055282  0  2.172676  0  0  1.104367  0  2.10512  0  0  0.730398  1.020565  0  2.219681  0
Zn  Zn1  1  0.00000529  0.05094381  0.16667153  1  0  1.230122  0  1.686573  0  0  1.055393  0  2.172681  0  0  1.104482  0  2.105126  0  0  0.730417  1.020671  0  2.219675  0
Zn  Zn2  1  0.94905869  0.94905872  0.49999683  1  0  1.230069  0  1.686778  0  0  1.055345  0  2.172999  0  0  1.104426  0  2.105439  0  0  0.730386  1.020627  0  2.219998  0
H  H3  1  0.57919028  0.70710130  0.57426325  1  0  0.127574  0  0.958159  0  0  0.127738  0  1.03313  0  0  0.131638  0  1.030053  0  0  0.116285  0.124904  0  1.035251  0
H  H4  1  0.29290540  0.87209427  0.90759060  1  0  0.12761  0  0.958138  0  0  0.127771  0  1.0331  0  0  0.131671  0  1.030025  0  0  0.116287  0.124938  0  1.035218  0
H  H5  1  0.12791155  0.42081747  0.24094309  1  0  0.127558  0  0.958251  0  0  0.127707  0  1.03321  0  0  0.131565  0  1.030185  0  0  0.116264  0.124889  0  1.035315  0
H  H6  1  0.87209483  0.29290631  0.09240584  1  0  0.127632  0  0.958171  0  0  0.12779  0  1.033128  0  0  0.13168  0  1.030062  0  0  0.116285  0.124956  0  1.035248  0
H  H7  1  0.42081575  0.12791231  0.75905450  1  0  0.127591  0  0.958283  0  0  0.127778  0  1.033183  0  0  0.131636  0  1.030157  0  0  0.11627  0.124947  0  1.035299  0
H  H8  1  0.70709926  0.57918733  0.42573504  1  0  0.127574  0  0.958194  0  0  0.12775  0  1.033132  0  0  0.131636  0  1.030071  0  0  0.116289  0.124919  0  1.035249  0
H  H9  1  0.31029843  0.31955184  0.74642808  1  0  0.153124  0  0.942789  0  0  0.152263  0  1.016721  0  0  0.157355  0  1.0115  0  0  0.127396  0.148604  0  1.020352  0
H  H10  1  0.68044555  0.99073881  0.07976287  1  0  0.153145  0  0.942744  0  0  0.152267  0  1.016693  0  0  0.157361  0  1.01147  0  0  0.127403  0.148602  0  1.020331  0
H  H11  1  0.00925416  0.68970543  0.41311216  1  0  0.153162  0  0.942791  0  0  0.152345  0  1.016684  0  0  0.157438  0  1.011465  0  0  0.127398  0.148705  0  1.020289  0
H  H12  1  0.99074190  0.68045119  0.92023926  1  0  0.153111  0  0.942709  0  0  0.152249  0  1.016644  0  0  0.157342  0  1.011423  0  0  0.127392  0.148602  0  1.020263  0
H  H13  1  0.68970222  0.00925420  0.58688991  1  0  0.15308  0  0.94278  0  0  0.15226  0  1.016721  0  0  0.157353  0  1.0115  0  0  0.127371  0.14862  0  1.020329  0
H  H14  1  0.31955034  0.31029720  0.25357046  1  0  0.153098  0  0.942773  0  0  0.152262  0  1.016684  0  0  0.157355  0  1.011461  0  0  0.127396  0.14862  0  1.020297  0
H  H15  1  0.71617095  0.59816252  0.88579139  1  0  0.13489  0  0.931492  0  0  0.137543  0  1.000789  0  0  0.14159  0  0.997042  0  0  0.122245  0.134542  0  1.003626  0
H  H16  1  0.40183516  0.11800027  0.21912415  1  0  0.134937  0  0.931531  0  0  0.137578  0  1.000842  0  0  0.141626  0  0.997093  0  0  0.122264  0.134575  0  1.003678  0
H  H17  1  0.88198423  0.28383117  0.55246904  1  0  0.1349  0  0.931589  0  0  0.137576  0  1.000853  0  0  0.141621  0  0.997111  0  0  0.122236  0.134574  0  1.00369  0
H  H18  1  0.11801124  0.40184349  0.78087602  1  0  0.134925  0  0.931446  0  0  0.137552  0  1.00078  0  0  0.141597  0  0.997035  0  0  0.122252  0.134554  0  1.003613  0
H  H19  1  0.28383232  0.88199400  0.44752827  1  0  0.13491  0  0.931592  0  0  0.137599  0  1.000831  0  0  0.141646  0  0.997086  0  0  0.122271  0.134596  0  1.003663  0
H  H20  1  0.59816153  0.71616797  0.11420866  1  0  0.134895  0  0.931579  0  0  0.13755  0  1.000876  0  0  0.141597  0  0.99713  0  0  0.12223  0.134548  0  1.003714  0
C  C21  1  0.66258494  0.66588554  0.72832881  1  0  -0.039202  0  3.710024  0  0  -0.018506  0  3.954966  0  0  -0.02856  0  3.973791  0  0  -0.000292  -0.012258  0  3.942427  0
C  C22  1  0.33411439  0.99669612  0.06165793  1  0  -0.039249  0  3.710267  0  0  -0.018489  0  3.955235  0  0  -0.028544  0  3.974065  0  0  -0.000272  -0.012235  0  3.942683  0
C  C23  1  0.00329590  0.33741544  0.39500462  1  0  -0.03908  0  3.709864  0  0  -0.018435  0  3.954936  0  0  -0.028491  0  3.973756  0  0  -0.000186  -0.012188  0  3.942404  0
C  C24  1  0.99670478  0.33412000  0.93834127  1  0  -0.039103  0  3.709977  0  0  -0.018426  0  3.955006  0  0  -0.028481  0  3.973836  0  0  -0.000209  -0.012179  0  3.942464  0
C  C25  1  0.33741509  0.00330563  0.60499192  1  0  -0.038993  0  3.709953  0  0  -0.018463  0  3.95505  0  0  -0.028518  0  3.973869  0  0  -0.000128  -0.012214  0  3.942512  0
C  C26  1  0.66588624  0.66258155  0.27166952  1  0  -0.03924  0  3.710058  0  0  -0.018609  0  3.955212  0  0  -0.028665  0  3.974037  0  0  -0.000248  -0.01236  0  3.942676  0
C  C27  1  0.56053928  0.63541104  0.64500061  1  0  -0.043473  0  3.621362  0  0  -0.089993  0  3.88538  0  0  -0.0844  0  3.900077  0  0  -0.052045  -0.093052  0  3.875011  0
C  C28  1  0.36459581  0.92513309  0.97832988  1  0  -0.043649  0  3.621553  0  0  -0.090173  0  3.885609  0  0  -0.084582  0  3.900303  0  0  -0.052115  -0.09324  0  3.87526  0
C  C29  1  0.07486958  0.43946294  0.31167905  1  0  -0.043637  0  3.621626  0  0  -0.090083  0  3.885532  0  0  -0.084456  0  3.900249  0  0  -0.052139  -0.093157  0  3.875162  0
C  C30  1  0.92513268  0.36459552  0.02166841  1  0  -0.04374  0  3.621443  0  0  -0.090177  0  3.885504  0  0  -0.084576  0  3.900203  0  0  -0.052135  -0.093241  0  3.875151  0
C  C31  1  0.43946388  0.07488030  0.68831764  1  0  -0.043713  0  3.621545  0  0  -0.090184  0  3.885513  0  0  -0.084561  0  3.900233  0  0  -0.052136  -0.093254  0  3.875163  0
C  C32  1  0.63541146  0.56053689  0.35499586  1  0  -0.043643  0  3.621522  0  0  -0.090106  0  3.885584  0  0  -0.084502  0  3.900284  0  0  -0.052169  -0.093166  0  3.875215  0
C  C33  1  0.43525929  0.51202296  0.65408931  1  0  0.080299  0  3.693063  0  0  0.068838  0  3.949669  0  0  0.063559  0  3.971399  0  0  0.079859  0.071802  0  3.934902  0
C  C34  1  0.48797952  0.92323458  0.98741671  1  0  0.080302  0  3.693023  0  0  0.068774  0  3.949621  0  0  0.063501  0  3.971347  0  0  0.079894  0.071736  0  3.934858  0
C  C35  1  0.07676366  0.56474641  0.32076997  1  0  0.080297  0  3.69308  0  0  0.069001  0  3.949499  0  0  0.063729  0  3.971213  0  0  0.079903  0.071961  0  3.934744  0
C  C36  1  0.92323698  0.48798287  0.01257823  1  0  0.080327  0  3.692905  0  0  0.068731  0  3.949659  0  0  0.063459  0  3.971379  0  0  0.079894  0.071692  0  3.934896  0
C  C37  1  0.56474575  0.07676945  0.67922771  1  0  0.080297  0  3.692866  0  0  0.068988  0  3.949308  0  0  0.063715  0  3.971026  0  0  0.07993  0.071951  0  3.934547  0
C  C38  1  0.51202135  0.43525532  0.34590692  1  0  0.080305  0  3.69283  0  0  0.068815  0  3.949468  0  0  0.063544  0  3.971186  0  0  0.079924  0.071777  0  3.93471  0
C  C39  1  0.40814957  0.41635303  0.74171031  1  0  -0.088717  0  3.632515  0  0  -0.134358  0  3.89941  0  0  -0.129095  0  3.912862  0  0  -0.054424  -0.137078  0  3.889968  0
C  C40  1  0.58364890  0.99179082  0.07504347  1  0  -0.088658  0  3.632106  0  0  -0.134252  0  3.898973  0  0  -0.128984  0  3.912411  0  0  -0.054424  -0.136952  0  3.889511  0
C  C41  1  0.00820981  0.59185819  0.40838881  1  0  -0.088751  0  3.632592  0  0  -0.134555  0  3.899547  0  0  -0.129291  0  3.912997  0  0  -0.054468  -0.137278  0  3.89006  0
C  C42  1  0.99179578  0.58365141  0.92495683  1  0  -0.088739  0  3.632494  0  0  -0.134304  0  3.8994  0  0  -0.129044  0  3.912852  0  0  -0.054478  -0.137016  0  3.88992  0
C  C43  1  0.59185540  0.00821252  0.59161056  1  0  -0.088549  0  3.632343  0  0  -0.134405  0  3.899364  0  0  -0.129138  0  3.912808  0  0  -0.054456  -0.137116  0  3.889863  0
C  C44  1  0.41635236  0.40814572  0.25828841  1  0  -0.088653  0  3.632511  0  0  -0.134316  0  3.899446  0  0  -0.129049  0  3.912888  0  0  -0.054477  -0.137039  0  3.889964  0
C  C45  1  0.51238520  0.45061541  0.82303430  1  0  0.083799  0  3.688275  0  0  0.07344  0  3.941921  0  0  0.067921  0  3.963498  0  0  0.08339  0.076474  0  3.92733  0
C  C46  1  0.54938210  0.06176084  0.15637096  1  0  0.083808  0  3.688105  0  0  0.073477  0  3.941758  0  0  0.067953  0  3.963348  0  0  0.08343  0.076507  0  3.92718  0
C  C47  1  0.93822792  0.48761783  0.48971420  1  0  0.083535  0  3.688191  0  0  0.073304  0  3.941877  0  0  0.067779  0  3.963457  0  0  0.083381  0.076347  0  3.927276  0
C  C48  1  0.06176903  0.54939059  0.84363277  1  0  0.083791  0  3.688127  0  0  0.073428  0  3.941782  0  0  0.067909  0  3.963366  0  0  0.083418  0.076455  0  3.927208  0
C  C49  1  0.48761208  0.93822413  0.51028769  1  0  0.08361  0  3.688213  0  0  0.073371  0  3.941872  0  0  0.067849  0  3.963455  0  0  0.083435  0.076407  0  3.927288  0
C  C50  1  0.45060976  0.51238026  0.17696456  1  0  0.083659  0  3.68823  0  0  0.073331  0  3.941881  0  0  0.06781  0  3.96347  0  0  0.08344  0.076371  0  3.927287  0
C  C51  1  0.63839019  0.57367978  0.81912396  1  0  -0.027911  0  3.600242  0  0  -0.076782  0  3.863606  0  0  -0.069599  0  3.875845  0  0  -0.045392  -0.081204  0  3.855364  0
C  C52  1  0.42631803  0.06470298  0.15245903  1  0  -0.027952  0  3.600434  0  0  -0.076856  0  3.863845  0  0  -0.069668  0  3.876079  0  0  -0.045448  -0.081279  0  3.855605  0
C  C53  1  0.93528509  0.36161142  0.48580079  1  0  -0.027902  0  3.600263  0  0  -0.076737  0  3.863567  0  0  -0.069548  0  3.875804  0  0  -0.045371  -0.08116  0  3.855319  0
C  C54  1  0.06471475  0.42632721  0.84754371  1  0  -0.027924  0  3.60015  0  0  -0.076793  0  3.863605  0  0  -0.069609  0  3.875845  0  0  -0.045427  -0.081215  0  3.855365  0
C  C55  1  0.36161033  0.93529032  0.51419752  1  0  -0.028011  0  3.600403  0  0  -0.076847  0  3.863754  0  0  -0.069659  0  3.875988  0  0  -0.045482  -0.081267  0  3.855508  0
C  C56  1  0.57367807  0.63838668  0.18087339  1  0  -0.027844  0  3.600312  0  0  -0.07669  0  3.863716  0  0  -0.069505  0  3.875955  0  0  -0.04538  -0.081116  0  3.855476  0
C  C57  1  0.79798866  0.79845928  0.72006401  1  0  0.708714  0  3.857451  0  0  0.649266  0  4.153034  0  0  0.68664  0  4.143512  0  0  0.235798  0.623778  0  4.15892  0
C  C58  1  0.20154539  0.99953055  0.05338374  1  0  0.709113  0  3.857392  0  0  0.649525  0  4.153163  0  0  0.6869  0  4.143638  0  0  0.235934  0.624032  0  4.159059  0
C  C59  1  0.00046143  0.20201055  0.38673062  1  0  0.709437  0  3.856656  0  0  0.649767  0  4.152618  0  0  0.68714  0  4.14309  0  0  0.236047  0.624277  0  4.158514  0
C  C60  1  0.99953821  0.20154918  0.94660754  1  0  0.70895  0  3.857147  0  0  0.649381  0  4.152958  0  0  0.686758  0  4.143437  0  0  0.23589  0.623893  0  4.158843  0
C  C61  1  0.20201396  0.00047209  0.61326144  1  0  0.709358  0  3.856978  0  0  0.649911  0  4.152635  0  0  0.687286  0  4.143104  0  0  0.236107  0.624422  0  4.158531  0
C  C62  1  0.79845881  0.79798466  0.27993891  1  0  0.709219  0  3.856686  0  0  0.649642  0  4.152551  0  0  0.687018  0  4.143023  0  0  0.235966  0.624152  0  4.158443  0
N  N63  1  0.32719932  0.47835144  0.56640750  1  0  0.473901  0  3.943921  0  0  0.524902  0  4.204898  0  0  0.545991  0  4.214013  0  0  0.056931  0.510846  0  4.198819  0
N  N64  1  0.52163764  0.84883680  0.89972755  1  0  0.47381  0  3.94427  0  0  0.524937  0  4.20505  0  0  0.546024  0  4.214162  0  0  0.05687  0.510879  0  4.198976  0
N  N65  1  0.15115754  0.67280165  0.23308040  1  0  0.473933  0  3.944001  0  0  0.524779  0  4.20508  0  0  0.545869  0  4.214189  0  0  0.056787  0.510723  0  4.199004  0
N  N66  1  0.84884160  0.52164553  0.10026822  1  0  0.474134  0  3.943989  0  0  0.525125  0  4.205001  0  0  0.546216  0  4.214106  0  0  0.056985  0.511068  0  4.198927  0
N  N67  1  0.67279105  0.15115410  0.76692439  1  0  0.47407  0  3.94361  0  0  0.525026  0  4.204583  0  0  0.546112  0  4.213698  0  0  0.0569  0.510971  0  4.198508  0
N  N68  1  0.47836135  0.32720608  0.43360335  1  0  0.474126  0  3.943932  0  0  0.52514  0  4.204907  0  0  0.54623  0  4.214011  0  0  0.056916  0.511081  0  4.198834  0
N  N69  1  0.48483509  0.35312336  0.91859500  1  0  0.475053  0  3.944301  0  0  0.527068  0  4.201096  0  0  0.548678  0  4.209363  0  0  0.057738  0.51284  0  4.195245  0
N  N70  1  0.64687972  0.13170821  0.25192323  1  0  0.475184  0  3.944353  0  0  0.52709  0  4.201287  0  0  0.548703  0  4.209555  0  0  0.057788  0.512859  0  4.19544  0
N  N71  1  0.86827814  0.51516536  0.58526841  1  0  0.475743  0  3.943461  0  0  0.527428  0  4.200717  0  0  0.549037  0  4.208986  0  0  0.057878  0.5132  0  4.194864  0
N  N72  1  0.13171652  0.64689113  0.74807459  1  0  0.475232  0  3.944147  0  0  0.527216  0  4.200972  0  0  0.548824  0  4.20924  0  0  0.057826  0.51299  0  4.195122  0
N  N73  1  0.51516130  0.86827817  0.41473257  1  0  0.47544  0  3.943775  0  0  0.52726  0  4.200838  0  0  0.548871  0  4.209109  0  0  0.057831  0.513031  0  4.19499  0
N  N74  1  0.35311608  0.48482565  0.08140547  1  0  0.475184  0  3.943967  0  0  0.527181  0  4.20078  0  0  0.548788  0  4.209047  0  0  0.057752  0.512954  0  4.194926  0
O  O75  1  0.88156118  0.82544802  0.80430285  1  0  -0.629116  0  2.068973  0  0  -0.554001  0  2.346907  0  0  -0.584063  0  2.32826  0  0  -0.299388  -0.533173  0  2.359118  0
O  O76  1  0.17455497  0.05610846  0.13763208  1  0  -0.629366  0  2.068912  0  0  -0.554181  0  2.346886  0  0  -0.584246  0  2.328236  0  0  -0.299517  -0.53335  0  2.359098  0
O  O77  1  0.94387017  0.11842848  0.47098216  1  0  -0.629584  0  2.068315  0  0  -0.55439  0  2.346427  0  0  -0.584458  0  2.327772  0  0  -0.299591  -0.533557  0  2.358643  0
O  O78  1  0.05612953  0.17456875  0.86236001  1  0  -0.629261  0  2.068527  0  0  -0.554087  0  2.346509  0  0  -0.584153  0  2.327862  0  0  -0.299501  -0.533258  0  2.358721  0
O  O79  1  0.11843167  0.94387699  0.52901246  1  0  -0.629616  0  2.068449  0  0  -0.554503  0  2.346459  0  0  -0.584572  0  2.327803  0  0  -0.299654  -0.533671  0  2.358673  0
O  O80  1  0.82544805  0.88156680  0.19568890  1  0  -0.629453  0  2.068269  0  0  -0.554304  0  2.346347  0  0  -0.584372  0  2.327694  0  0  -0.299522  -0.533471  0  2.358557  0
O  O81  1  0.81795177  0.87425096  0.63178038  1  0  -0.663063  0  2.086862  0  0  -0.592443  0  2.37552  0  0  -0.620588  0  2.354709  0  0  -0.316094  -0.572755  0  2.38941  0
O  O82  1  0.12576417  0.94371990  0.96509613  1  0  -0.663176  0  2.087038  0  0  -0.59252  0  2.375782  0  0  -0.620662  0  2.354965  0  0  -0.316085  -0.572832  0  2.389681  0
O  O83  1  0.05629020  0.18205616  0.29846572  1  0  -0.663246  0  2.08695  0  0  -0.59258  0  2.375754  0  0  -0.620718  0  2.354931  0  0  -0.316139  -0.572897  0  2.389652  0
O  O84  1  0.94371860  0.12576442  0.03488982  1  0  -0.663195  0  2.087162  0  0  -0.592507  0  2.375859  0  0  -0.620652  0  2.355045  0  0  -0.31608  -0.572818  0  2.389745  0
O  O85  1  0.18205418  0.05630263  0.70152724  1  0  -0.663174  0  2.086922  0  0  -0.592564  0  2.375611  0  0  -0.620699  0  2.354785  0  0  -0.316155  -0.572879  0  2.389511  0
O  O86  1  0.87425180  0.81794891  0.36821135  1  0  -0.663132  0  2.086772  0  0  -0.592507  0  2.375567  0  0  -0.620646  0  2.354747  0  0  -0.316143  -0.572822  0  2.389461  0
O  O87  1  0.35219063  0.56268470  0.48699503  1  0  -0.343327  0  1.769375  0  0  -0.336309  0  1.96795  0  0  -0.350601  0  1.968729  0  0  -0.126915  -0.32678  0  1.967576  0
O  O88  1  0.43732477  0.78950512  0.82034089  1  0  -0.343129  0  1.770266  0  0  -0.33606  0  1.96874  0  0  -0.350333  0  1.969512  0  0  -0.126675  -0.326541  0  1.968372  0
O  O89  1  0.21048555  0.64780569  0.15367882  1  0  -0.343226  0  1.769851  0  0  -0.336119  0  1.968459  0  0  -0.350402  0  1.969228  0  0  -0.126701  -0.326594  0  1.968089  0
O  O90  1  0.78950648  0.43732223  0.17966601  1  0  -0.34333  0  1.769897  0  0  -0.33626  0  1.968459  0  0  -0.350542  0  1.96923  0  0  -0.126837  -0.326734  0  1.968089  0
O  O91  1  0.64779942  0.21048122  0.84632341  1  0  -0.343277  0  1.769852  0  0  -0.336224  0  1.968448  0  0  -0.350503  0  1.969218  0  0  -0.126771  -0.3267  0  1.968078  0
O  O92  1  0.56267139  0.35219258  0.51298730  1  0  -0.343254  0  1.770494  0  0  -0.336191  0  1.969069  0  0  -0.350464  0  1.969836  0  0  -0.1267  -0.32667  0  1.968701  0
O  O93  1  0.21818215  0.36629690  0.57627240  1  0  -0.331096  0  1.773004  0  0  -0.31756  0  1.964338  0  0  -0.33156  0  1.963028  0  0  -0.11324  -0.30823  0  1.965389  0
O  O94  1  0.63371270  0.85187671  0.90960015  1  0  -0.331193  0  1.772422  0  0  -0.317774  0  1.963726  0  0  -0.3318  0  1.962429  0  0  -0.113386  -0.308429  0  1.96477  0
O  O95  1  0.14811787  0.78182321  0.24294574  1  0  -0.33113  0  1.772638  0  0  -0.317619  0  1.964083  0  0  -0.331638  0  1.962786  0  0  -0.113273  -0.308286  0  1.965134  0
O  O96  1  0.85188524  0.63370549  0.09039833  1  0  -0.33125  0  1.772826  0  0  -0.31771  0  1.964144  0  0  -0.331734  0  1.962852  0  0  -0.113316  -0.308373  0  1.965192  0
O  O97  1  0.78182212  0.14811443  0.75705655  1  0  -0.331255  0  1.772267  0  0  -0.317757  0  1.963634  0  0  -0.331766  0  1.962326  0  0  -0.113338  -0.308428  0  1.964689  0
O  O98  1  0.36629136  0.21817385  0.42372870  1  0  -0.331274  0  1.772143  0  0  -0.317805  0  1.963508  0  0  -0.331838  0  1.962219  0  0  -0.11337  -0.308461  0  1.964555  0
O  O99  1  0.37579952  0.24007506  0.91443727  1  0  -0.348346  0  1.818405  0  0  -0.333381  0  2.024386  0  0  -0.348295  0  2.022757  0  0  -0.11403  -0.323241  0  2.025552  0
O  O100  1  0.75992286  0.13572546  0.24777233  1  0  -0.348375  0  1.818752  0  0  -0.33337  0  2.024809  0  0  -0.348282  0  2.023179  0  0  -0.113994  -0.323226  0  2.025968  0
O  O101  1  0.86426759  0.62420474  0.58111460  1  0  -0.348661  0  1.818175  0  0  -0.333548  0  2.024299  0  0  -0.348459  0  2.022665  0  0  -0.114059  -0.323432  0  2.02549  0
O  O102  1  0.13573373  0.75993195  0.75222906  1  0  -0.348438  0  1.818599  0  0  -0.333501  0  2.024658  0  0  -0.348409  0  2.023028  0  0  -0.114087  -0.323367  0  2.025829  0
O  O103  1  0.62420019  0.86426694  0.41888735  1  0  -0.34847  0  1.818138  0  0  -0.333432  0  2.024243  0  0  -0.348346  0  2.022614  0  0  -0.113997  -0.323307  0  2.025426  0
O  O104  1  0.24007362  0.37579320  0.08555866  1  0  -0.348423  0  1.818415  0  0  -0.333453  0  2.024428  0  0  -0.348362  0  2.022789  0  0  -0.11404  -0.323333  0  2.025616  0
O  O105  1  0.56991826  0.38943754  0.99870921  1  0  -0.338097  0  1.7817  0  0  -0.335333  0  1.984489  0  0  -0.348759  0  1.984178  0  0  -0.12303  -0.326269  0  1.984632  0
O  O106  1  0.61056780  0.18048454  0.33204900  1  0  -0.338254  0  1.781463  0  0  -0.335417  0  1.984249  0  0  -0.348852  0  1.983941  0  0  -0.123153  -0.326353  0  1.984394  0
O  O107  1  0.81950926  0.43008012  0.66538948  1  0  -0.338374  0  1.78134  0  0  -0.335527  0  1.984313  0  0  -0.348956  0  1.984007  0  0  -0.12316  -0.326462  0  1.984453  0
O  O108  1  0.18047832  0.61056880  0.66795230  1  0  -0.338248  0  1.781549  0  0  -0.33541  0  1.984297  0  0  -0.34884  0  1.983991  0  0  -0.123094  -0.326345  0  1.984439  0
O  O109  1  0.43007530  0.81950774  0.33461138  1  0  -0.338305  0  1.781547  0  0  -0.335484  0  1.984458  0  0  -0.348909  0  1.984137  0  0  -0.123175  -0.326421  0  1.984599  0
O  O110  1  0.38942839  0.56991190  0.00128877  1  0  -0.338125  0  1.78143  0  0  -0.335367  0  1.984249  0  0  -0.348795  0  1.983942  0  0  -0.123065  -0.326301  0  1.98439  0
