# generated using pymatgen
data_Zn4H6C32O19
_symmetry_space_group_name_H-M   'P 1'
_cell_length_a   19.66382583
_cell_length_b   19.66235623
_cell_length_c   22.88413325
_cell_angle_alpha   64.58523734
_cell_angle_beta   64.51467473
_cell_angle_gamma   89.98884687
_symmetry_Int_Tables_number   1
_chemical_formula_structural   Zn4H6C32O19
_chemical_formula_sum   'Zn8 H12 C64 O38'
_cell_volume   7026.92465475
_cell_formula_units_Z   2
loop_
 _symmetry_equiv_pos_site_id
 _symmetry_equiv_pos_as_xyz
  1  'x, y, z'
loop_
 _atom_site_type_symbol
 _atom_site_label
 _atom_site_symmetry_multiplicity
 _atom_site_fract_x
 _atom_site_fract_y
 _atom_site_fract_z
 _atom_site_occupancy
 _atom_site_pbe_bader_charge
 _atom_site_pbe_bader_spin_density
 _atom_site_pbe_cm5_charge
 _atom_site_pbe_ddec_charge
 _atom_site_pbe_ddec_spin_density
 _atom_site_pbe_ddec_sum_bond_order
 _atom_site_pbe_magmom
Zn  Zn0  1  0.71863937  0.13679191  0.56261652  1  1.320514  0  0.680986  0.970303  0  2.352187  0
Zn  Zn1  1  0.13666672  0.71888424  0.56231947  1  1.320822  0  0.680652  0.968853  0  2.35492  0
Zn  Zn2  1  0.71882185  0.30104927  0.56233455  1  1.321172  0  0.680259  0.968482  0  2.354419  0
Zn  Zn3  1  0.28117725  0.69895081  0.43766542  1  1.321201  0  0.680306  0.968518  0  2.354389  0
Zn  Zn4  1  0.86333236  0.28111263  0.43768141  1  1.320893  0  0.68062  0.968757  0  2.354998  0
Zn  Zn5  1  0.28136282  0.86320772  0.43738276  1  1.320636  0  0.681003  0.970336  0  2.352199  0
Zn  Zn6  1  0.69941686  0.28126010  0.43732937  1  1.320746  0  0.68097  0.970069  0  2.351617  0
Zn  Zn7  1  0.30058229  0.71874189  0.56267101  1  1.320808  0  0.680989  0.970043  0  2.351568  0
H  H8  1  0.34918298  0.08570830  0.99939791  1  0.066538  0  0.113807  0.052953  0  0.932396  0
H  H9  1  0.64943756  0.08921012  0.99931889  1  0.053663  0  0.113929  0.053115  0  0.932937  0
H  H10  1  0.91152285  0.35122739  0.99928967  1  0.062663  0  0.113088  0.05255  0  0.932633  0
H  H11  1  0.08848034  0.64877253  0.00070989  1  0.062668  0  0.11307  0.052513  0  0.932643  0
H  H12  1  0.35056098  0.91079019  0.00068086  1  0.053641  0  0.113912  0.053092  0  0.932934  0
H  H13  1  0.49823430  0.17408842  0.99944872  1  0.080953  0  0.112669  0.051838  0  0.933747  0
H  H14  1  0.50176875  0.82591269  0.00055023  1  0.081054  0  0.11267  0.051808  0  0.933736  0
H  H15  1  0.17352181  0.49769928  0.00053665  1  0.077774  0  0.112623  0.051489  0  0.934471  0
H  H16  1  0.65081625  0.91429366  0.00059962  1  0.066532  0  0.113818  0.052968  0  0.932438  0
H  H17  1  0.82647859  0.50230325  0.99946261  1  0.07776  0  0.112638  0.051508  0  0.934472  0
H  H18  1  0.08515718  0.34861383  0.00055982  1  0.090096  0  0.113413  0.052707  0  0.931415  0
H  H19  1  0.91484054  0.65138691  0.99944066  1  0.090035  0  0.113427  0.052736  0  0.931307  0
C  C20  1  0.84982054  0.34911979  0.30174577  1  1.631432  0  0.239184  0.675765  0  4.23006  0
C  C21  1  0.48609681  0.05165310  0.02618617  1  -0.03123  0  0.017816  -0.018284  0  3.606831  0
C  C22  1  0.11058335  0.61119514  0.77745925  1  0.009892  0  -0.018595  -0.137893  0  3.922082  0
C  C23  1  0.61129010  0.11193378  0.77741996  1  0.040612  0  -0.019222  -0.139543  0  3.922951  0
C  C24  1  0.38870719  0.88806775  0.22257916  1  0.040622  0  -0.019198  -0.139505  0  3.923003  0
C  C25  1  0.88941480  0.38880656  0.22254085  1  0.009884  0  -0.01863  -0.137948  0  3.922064  0
C  C26  1  0.40408260  0.09104114  0.95168699  1  0.975672  0  0.10733  0.259254  0  3.978423  0
C  C27  1  0.59591833  0.90896057  0.04831079  1  0.975628  0  0.107296  0.259226  0  3.97856  0
C  C28  1  0.04276366  0.35578480  0.04827756  1  0.936582  0  0.1079  0.259823  0  3.978181  0
C  C29  1  0.95723575  0.64421613  0.95172273  1  0.936605  0  0.107835  0.259764  0  3.978171  0
C  C30  1  0.92214228  0.48765749  0.02622409  1  -0.054604  0  0.017639  -0.017407  0  3.604201  0
C  C31  1  0.35733004  0.90617720  0.04835486  1  1.017509  0  0.107534  0.258476  0  3.978515  0
C  C32  1  0.64266894  0.09382364  0.95164494  1  1.0175  0  0.1075  0.258455  0  3.978563  0
C  C33  1  0.95454547  0.40569578  0.95163446  1  0.984757  0  0.108319  0.259366  0  3.977798  0
C  C34  1  0.04545408  0.59430483  0.04836557  1  0.984638  0  0.108366  0.259446  0  3.977831  0
C  C35  1  0.07785795  0.51234389  0.97377459  1  -0.054566  0  0.01764  -0.017397  0  3.604119  0
C  C36  1  0.47465705  0.11428725  0.04737915  1  0.973656  0  0.107037  0.257393  0  3.97711  0
C  C37  1  0.52534123  0.88571545  0.95261938  1  0.973617  0  0.107059  0.257587  0  3.977153  0
C  C38  1  0.16169944  0.52211210  0.95257433  1  0.98678  0  0.106893  0.257201  0  3.976251  0
C  C39  1  0.83830053  0.47788991  0.04742488  1  0.987221  0  0.106823  0.257115  0  3.976272  0
C  C40  1  0.51390299  0.94834732  0.97381289  1  -0.031202  0  0.017828  -0.018348  0  3.606964  0
C  C41  1  0.53892042  0.03846100  0.92224821  1  0.120702  0  0.027062  0.086889  0  3.785586  0
C  C42  1  0.46107925  0.96153929  0.07775156  1  0.120659  0  0.027025  0.086923  0  3.785603  0
C  C43  1  0.96075381  0.46118017  0.07773277  1  0.132767  0  0.027055  0.088057  0  3.785095  0
C  C44  1  0.15017718  0.65088182  0.69825384  1  1.631422  0  0.239228  0.675854  0  4.230078  0
C  C45  1  0.03924517  0.53882023  0.92226747  1  0.132875  0  0.027053  0.088092  0  3.78506  0
C  C46  1  0.57789663  0.07815787  0.84424875  1  -0.153746  0  -0.021094  -0.025162  0  4.051501  0
C  C47  1  0.42210304  0.92184199  0.15575145  1  -0.153772  0  -0.021093  -0.02518  0  4.051599  0
C  C48  1  0.92249272  0.42221853  0.15571209  1  -0.155086  0  -0.021183  -0.025973  0  4.051406  0
C  C49  1  0.07750712  0.57778336  0.84428782  1  -0.155134  0  -0.021248  -0.026086  0  4.051458  0
C  C50  1  0.65086031  0.15158563  0.69821698  1  1.6506  0  0.239681  0.677796  0  4.226879  0
C  C51  1  0.56824495  0.43176179  0.49984500  1  0.174548  0  -0.002235  -0.13377  0  3.845055  0
C  C52  1  0.43175580  0.56824131  0.50015717  1  0.174533  0  -0.002143  -0.133593  0  3.844988  0
C  C53  1  0.93160331  0.06807748  0.50016118  1  0.17345  0  -0.002192  -0.133634  0  3.845703  0
C  C54  1  0.06839873  0.93191670  0.49983430  1  0.173413  0  -0.002268  -0.133627  0  3.845589  0
C  C55  1  0.34913910  0.84841529  0.30178331  1  1.65059  0  0.239726  0.677806  0  4.227055  0
C  C56  1  0.52426608  0.47573234  0.49994883  1  -0.340412  0  0.001546  0.038746  0  4.217435  0
C  C57  1  0.47573241  0.52426992  0.50005417  1  -0.216759  0  0.001594  0.038717  0  4.217478  0
C  C58  1  0.97568310  0.02420893  0.50005660  1  -0.340548  0  0.001782  0.039035  0  4.218167  0
C  C59  1  0.02432097  0.97578775  0.49993985  1  -0.216926  0  0.001731  0.038906  0  4.218037  0
C  C60  1  0.93183605  0.43187019  0.49986477  1  0.168816  0  -0.002298  -0.134677  0  3.844487  0
C  C61  1  0.06816835  0.56813011  0.50013152  1  0.169347  0  -0.002325  -0.134737  0  3.844568  0
C  C62  1  0.97574898  0.47576702  0.49998268  1  -0.192033  0  0.00212  0.039798  0  4.217344  0
C  C63  1  0.02425512  0.52423462  0.50001111  1  -0.317381  0  0.002193  0.039851  0  4.217266  0
C  C64  1  0.87979077  0.11990556  0.50022133  1  1.7086  0  0.23796  0.668444  0  4.248157  0
C  C65  1  0.12021064  0.88009166  0.49977630  1  1.707707  0  0.237978  0.668468  0  4.248083  0
C  C66  1  0.62013453  0.38001550  0.49979041  1  1.677888  0  0.238129  0.668176  0  4.243709  0
C  C67  1  0.37986449  0.61998769  0.50020936  1  1.677775  0  0.237878  0.667692  0  4.244042  0
C  C68  1  0.88000670  0.38000940  0.49994618  1  1.675293  0  0.238467  0.669585  0  4.243921  0
C  C69  1  0.11999263  0.61998902  0.50005199  1  1.675085  0  0.238547  0.669711  0  4.243463  0
C  C70  1  0.62005245  0.12003343  0.50006123  1  1.671479  0  0.237433  0.66732  0  4.246146  0
C  C71  1  0.37994735  0.87996742  0.49993740  1  1.671484  0  0.237399  0.667167  0  4.246285  0
C  C72  1  0.56816579  0.06817789  0.50013916  1  0.168003  0  -0.002398  -0.133865  0  3.844144  0
C  C73  1  0.43183431  0.93182424  0.49985936  1  0.168108  0  -0.00244  -0.133916  0  3.844177  0
C  C74  1  0.52425600  0.02426377  0.50001481  1  -0.191889  0  0.000967  0.038251  0  4.216811  0
C  C75  1  0.47574328  0.97573878  0.49998444  1  -0.314822  0  0.001007  0.038308  0  4.216858  0
C  C76  1  0.43136302  0.95386757  0.02651542  1  -0.021107  0  0.019615  -0.011699  0  3.600299  0
C  C77  1  0.56863652  0.04613348  0.97348417  1  -0.021142  0  0.019623  -0.011679  0  3.600408  0
C  C78  1  0.98039819  0.45784621  0.97350871  1  -0.004887  0  0.019774  -0.012223  0  3.602069  0
C  C79  1  0.01960195  0.54215608  0.02649195  1  -0.004804  0  0.019699  -0.012274  0  3.602079  0
C  C80  1  0.45711718  0.04480661  0.97347116  1  -0.027523  0  0.01954  -0.012557  0  3.60229  0
C  C81  1  0.54288166  0.95519542  0.02652803  1  -0.027546  0  0.019504  -0.012664  0  3.602497  0
C  C82  1  0.01834281  0.43061873  0.02649345  1  -0.015057  0  0.019794  -0.013534  0  3.603418  0
C  C83  1  0.98165617  0.56938167  0.97350679  1  -0.015012  0  0.019778  -0.013595  0  3.603495  0
O  O84  1  0.74998726  0.25003049  0.49999610  1  -1.232466  0  -0.568063  -1.040762  0  2.518456  0
O  O85  1  0.22388261  0.66628278  0.66742330  1  -1.114064  0  -0.301807  -0.527394  0  2.275196  0
O  O86  1  0.66627584  0.10875017  0.66735315  1  -1.143225  0  -0.301547  -0.527697  0  2.27563  0
O  O87  1  0.33372652  0.89125148  0.33264584  1  -1.143224  0  -0.301547  -0.527736  0  2.275787  0
O  O88  1  0.91130126  0.19156775  0.45671457  1  -1.140789  0  -0.300449  -0.525108  0  2.27641  0
O  O89  1  0.08870229  0.80842931  0.54328380  1  -1.140601  0  -0.300493  -0.52516  0  2.276293  0
O  O90  1  0.64826781  0.36800174  0.54331043  1  -1.124793  0  -0.300496  -0.524833  0  2.273291  0
O  O91  1  0.35173246  0.63199980  0.45669040  1  -1.124833  0  -0.300403  -0.524634  0  2.27351  0
O  O92  1  0.25001185  0.74996959  0.50000388  1  -1.232474  0  -0.568058  -1.040822  0  2.518462  0
O  O93  1  0.91146503  0.35150467  0.45669712  1  -1.127382  0  -0.300297  -0.525212  0  2.273794  0
O  O94  1  0.08853321  0.64849524  0.54330187  1  -1.127207  0  -0.300332  -0.525307  0  2.27351  0
O  O95  1  0.80827080  0.36819782  0.54326396  1  -1.139341  0  -0.300369  -0.525363  0  2.275952  0
O  O96  1  0.19173291  0.63180258  0.45673281  1  -1.139342  0  -0.30047  -0.525439  0  2.275656  0
O  O97  1  0.63253346  0.19166614  0.45620491  1  -1.138288  0  -0.299838  -0.524729  0  2.27459  0
O  O98  1  0.36746708  0.80833520  0.54379497  1  -1.138261  0  -0.299837  -0.52468  0  2.274587  0
O  O99  1  0.64788837  0.08868612  0.54385542  1  -1.126544  0  -0.299672  -0.52455  0  2.273528  0
O  O100  1  0.35211147  0.91131490  0.45614536  1  -1.12654  0  -0.299567  -0.524347  0  2.273656  0
O  O101  1  0.80806259  0.08857108  0.54374625  1  -1.14158  0  -0.300068  -0.525572  0  2.275631  0
O  O102  1  0.19194029  0.91142843  0.45625256  1  -1.141239  0  -0.300029  -0.52556  0  2.27572  0
O  O103  1  0.63234578  0.35182058  0.45625180  1  -1.126779  0  -0.300121  -0.525219  0  2.274083  0
O  O104  1  0.36765211  0.64818001  0.54375057  1  -1.126819  0  -0.299997  -0.524974  0  2.273993  0
O  O105  1  0.89256683  0.33357332  0.33265961  1  -1.143271  0  -0.302024  -0.527221  0  2.274904  0
O  O106  1  0.10743215  0.66642664  0.66734106  1  -1.143363  0  -0.302019  -0.527284  0  2.275073  0
O  O107  1  0.66629461  0.22525882  0.66733968  1  -1.165423  0  -0.302175  -0.527959  0  2.272872  0
O  O108  1  0.33370523  0.77474307  0.33266023  1  -1.165357  0  -0.302239  -0.527981  0  2.272925  0
O  O109  1  0.77611541  0.33371880  0.33257749  1  -1.114148  0  -0.301742  -0.527348  0  2.275421  0
O  O110  1  0.41754380  0.13119786  0.88836245  1  -1.026979  0  -0.232232  -0.302016  0  2.097127  0
O  O111  1  0.58245756  0.86880437  0.11163538  1  -1.026859  0  -0.232183  -0.301968  0  2.097194  0
O  O112  1  0.01951639  0.30588266  0.11160168  1  -1.033866  0  -0.232402  -0.302158  0  2.097401  0
O  O113  1  0.98048558  0.69411907  0.88839897  1  -1.033867  0  -0.232341  -0.302109  0  2.097425  0
O  O114  1  0.30762445  0.86566971  0.11170281  1  -1.049294  0  -0.231797  -0.300971  0  2.097009  0
O  O115  1  0.69237579  0.13433079  0.88829675  1  -1.049302  0  -0.231783  -0.300977  0  2.096994  0
O  O116  1  0.97733106  0.41944043  0.88826481  1  -1.024  0  -0.231535  -0.300852  0  2.096274  0
O  O117  1  0.02266709  0.58056171  0.11173485  1  -1.023946  0  -0.231526  -0.300855  0  2.096212  0
O  O118  1  0.44284390  0.10303575  0.11061974  1  -1.030562  0  -0.229329  -0.296741  0  2.093664  0
O  O119  1  0.55714705  0.89696729  0.88937844  1  -1.030714  0  -0.229332  -0.296842  0  2.093661  0
O  O120  1  0.21372176  0.55353386  0.88935460  1  -1.036775  0  -0.229554  -0.297005  0  2.091982  0
O  O121  1  0.78627821  0.44646815  0.11064461  1  -1.03721  0  -0.2295  -0.296942  0  2.092017  0
