# generated using pymatgen
data_GdH19C21NO8
_symmetry_space_group_name_H-M   'P 1'
_cell_length_a   12.18546123
_cell_length_b   12.19666267
_cell_length_c   18.23332412
_cell_angle_alpha   102.78262178
_cell_angle_beta   107.18714749
_cell_angle_gamma   103.07911217
_symmetry_Int_Tables_number   1
_chemical_formula_structural   GdH19C21NO8
_chemical_formula_sum   'Gd4 H76 C84 N4 O32'
_cell_volume   2397.78650471
_cell_formula_units_Z   4
loop_
 _symmetry_equiv_pos_site_id
 _symmetry_equiv_pos_as_xyz
  1  'x, y, z'
loop_
 _atom_site_type_symbol
 _atom_site_label
 _atom_site_symmetry_multiplicity
 _atom_site_fract_x
 _atom_site_fract_y
 _atom_site_fract_z
 _atom_site_occupancy
 _atom_site_pbe_bader_charge
 _atom_site_pbe_bader_spin_density
 _atom_site_pbe_cm5_charge
 _atom_site_pbe_ddec_charge
 _atom_site_pbe_ddec_spin_density
 _atom_site_pbe_ddec_sum_bond_order
 _atom_site_pbe_magmom
Gd  Gd0  1  0.32787659  0.90084554  0.98739281  1  2.168564  0  1.460658  1.992405  0  2.209539  0
Gd  Gd1  1  0.41356265  0.34063897  0.51261520  1  2.166683  0  1.461086  1.994243  0  2.206845  0
Gd  Gd2  1  0.67212288  0.09914952  0.01260640  1  2.168536  0  1.460696  1.992526  0  2.209458  0
Gd  Gd3  1  0.58643235  0.65936260  0.48738304  1  2.166734  0  1.461087  1.994268  0  2.206884  0
H  H4  1  0.37788843  0.70900097  0.88162428  1  0.630632  0  0.338141  0.426931  0  0.852305  0
H  H5  1  0.32693512  0.49578868  0.61834419  1  0.635648  0  0.338216  0.426078  0  0.853743  0
H  H6  1  0.62211552  0.29099541  0.11837855  1  0.630713  0  0.338157  0.427026  0  0.852187  0
H  H7  1  0.67305760  0.50421354  0.38165354  1  0.635736  0  0.338207  0.426086  0  0.853759  0
H  H8  1  0.48106866  0.82657640  0.88973213  1  0.666008  0  0.303232  0.405373  0  0.930793  0
H  H9  1  0.43641041  0.59097030  0.61025722  1  0.66282  0  0.303054  0.405052  0  0.93108  0
H  H10  1  0.51893122  0.17341468  0.11026484  1  0.66602  0  0.303278  0.40545  0  0.930656  0
H  H11  1  0.56358459  0.40903128  0.38974102  1  0.662791  0  0.303035  0.405048  0  0.931097  0
H  H12  1  0.99105410  0.70326515  0.05154650  1  0.108486  0  0.10467  0.106728  0  1.015517  0
H  H13  1  0.15163848  0.93944585  0.44817287  1  0.087381  0  0.104894  0.106623  0  1.016931  0
H  H14  1  0.00895728  0.29672013  0.94845049  1  0.108272  0  0.104652  0.106698  0  1.015699  0
H  H15  1  0.84835876  0.06056503  0.55183293  1  0.086933  0  0.10492  0.106654  0  1.016932  0
H  H16  1  0.16218374  0.47528583  0.94702693  1  0.08784  0  0.105832  0.109285  0  1.00511  0
H  H17  1  0.02849799  0.21494962  0.55312918  1  0.084164  0  0.105097  0.108793  0  1.005691  0
H  H18  1  0.83782947  0.52469993  0.05297369  1  0.088295  0  0.105809  0.109324  0  1.004964  0
H  H19  1  0.97149846  0.78506377  0.44687939  1  0.084664  0  0.105101  0.108784  0  1.00569  0
H  H20  1  0.91865705  0.98081967  0.79336343  1  0.054707  0  0.11027  0.122538  0  0.989721  0
H  H21  1  0.68749772  0.12541579  0.70650265  1  0.051639  0  0.1099  0.122374  0  0.989748  0
H  H22  1  0.08134641  0.01918210  0.20663621  1  0.054674  0  0.110258  0.122509  0  0.989703  0
H  H23  1  0.31249060  0.87460219  0.29348879  1  0.051842  0  0.109995  0.122487  0  0.989632  0
H  H24  1  0.83678250  0.84832223  0.70938733  1  0.095706  0  0.11318  0.141747  0  0.991731  0
H  H25  1  0.63903104  0.12760418  0.79056600  1  0.095762  0  0.113339  0.141169  0  0.991519  0
H  H26  1  0.16321613  0.15167651  0.29061012  1  0.095716  0  0.11319  0.141705  0  0.991739  0
H  H27  1  0.36096687  0.87240632  0.20942890  1  0.09575  0  0.113335  0.141167  0  0.991394  0
H  H28  1  0.92653804  0.97409387  0.69595858  1  0.058345  0  0.102169  0.117534  0  1.006571  0
H  H29  1  0.77830552  0.23059562  0.80386384  1  0.103704  0  0.101917  0.117388  0  1.00501  0
H  H30  1  0.07346856  0.02590689  0.30404066  1  0.058463  0  0.102163  0.117536  0  1.006499  0
H  H31  1  0.22168585  0.76941590  0.19612803  1  0.103465  0  0.101879  0.117352  0  1.005074  0
H  H32  1  0.11924109  0.77382664  0.71883398  1  0.073375  0  0.11158  0.133188  0  0.996143  0
H  H33  1  0.55484988  0.40019799  0.78122616  1  0.105388  0  0.112121  0.134413  0  0.995481  0
H  H34  1  0.88075650  0.22617006  0.28116599  1  0.073413  0  0.11159  0.133187  0  0.996149  0
H  H35  1  0.44513840  0.59981123  0.21878131  1  0.105447  0  0.112116  0.134415  0  0.995371  0
H  H36  1  0.06772265  0.85821786  0.65479634  1  0.0551  0  0.100652  0.113687  0  1.003483  0
H  H37  1  0.70338113  0.41270888  0.84519628  1  0.035335  0  0.100292  0.11328  0  1.002798  0
H  H38  1  0.93227738  0.14178107  0.34520074  1  0.055328  0  0.100659  0.113665  0  1.003525  0
H  H39  1  0.29660939  0.58730039  0.15480900  1  0.035557  0  0.100331  0.113276  0  1.002848  0
H  H40  1  0.96114192  0.73244690  0.65687684  1  0.115865  0  0.107498  0.137368  0  1.013762  0
H  H41  1  0.57554328  0.30402960  0.84311022  1  0.110007  0  0.107979  0.138791  0  1.013498  0
H  H42  1  0.03885777  0.26754985  0.34312348  1  0.115916  0  0.10746  0.137311  0  1.013735  0
H  H43  1  0.42444820  0.69597625  0.15689337  1  0.110066  0  0.10799  0.138787  0  1.01349  0
H  H44  1  0.07076899  0.96308819  0.88013521  1  0.134073  0  0.129386  0.058631  0  1.015891  0
H  H45  1  0.58315908  0.19102547  0.61979312  1  0.132856  0  0.129683  0.058268  0  1.015815  0
H  H46  1  0.92923400  0.03690711  0.11986399  1  0.133946  0  0.129382  0.058611  0  1.016036  0
H  H47  1  0.41682750  0.80898660  0.38020551  1  0.13254  0  0.129637  0.058167  0  1.015829  0
H  H48  1  0.56261682  0.22592200  0.28849328  1  0.075698  0  0.099992  0.096134  0  1.037174  0
H  H49  1  0.43712003  0.27319584  0.21162529  1  0.055087  0  0.099849  0.094995  0  1.037517  0
H  H50  1  0.43739363  0.77408213  0.71151161  1  0.076035  0  0.100001  0.096158  0  1.037203  0
H  H51  1  0.56288076  0.72680201  0.78837613  1  0.055101  0  0.099872  0.094998  0  1.037536  0
H  H52  1  0.64239974  0.09756528  0.20724296  1  0.108238  0  0.109237  0.115477  0  1.033306  0
H  H53  1  0.39036283  0.43460463  0.29275641  1  0.09172  0  0.109107  0.115414  0  1.03367  0
H  H54  1  0.35760734  0.90243839  0.79276032  1  0.108245  0  0.109269  0.115563  0  1.033259  0
H  H55  1  0.60963870  0.56539616  0.70724396  1  0.091734  0  0.109121  0.115428  0  1.033652  0
H  H56  1  0.66683451  0.89048955  0.37150663  1  0.071448  0  0.106564  0.107135  0  1.023438  0
H  H57  1  0.01901565  0.29599713  0.12837534  1  0.093459  0  0.105851  0.105986  0  1.024816  0
H  H58  1  0.33316258  0.10950448  0.62848840  1  0.071649  0  0.106554  0.107131  0  1.023446  0
H  H59  1  0.98098687  0.70399621  0.87162873  1  0.092959  0  0.105845  0.10592  0  1.024848  0
H  H60  1  0.59511221  0.02539050  0.45593483  1  0.108017  0  0.110603  0.119886  0  0.992864  0
H  H61  1  0.06913493  0.13949364  0.04400469  1  0.125431  0  0.110104  0.118683  0  0.993796  0
H  H62  1  0.40488734  0.97460196  0.54406180  1  0.107888  0  0.110618  0.119944  0  0.99279  0
H  H63  1  0.93086887  0.86050319  0.95599888  1  0.125367  0  0.1101  0.118714  0  0.993736  0
H  H64  1  0.68378250  0.77661516  0.04218188  1  0.045118  0  0.107254  0.108414  0  0.997416  0
H  H65  1  0.23339368  0.64085809  0.45771327  1  0.050424  0  0.107638  0.1082  0  0.996813  0
H  H66  1  0.31621347  0.22338299  0.95781468  1  0.045196  0  0.107272  0.108416  0  0.997425  0
H  H67  1  0.76661189  0.35914396  0.54228582  1  0.050435  0  0.107588  0.108166  0  0.996817  0
H  H68  1  0.85795149  0.72089961  0.11639657  1  0.069201  0  0.098936  0.094561  0  1.031324  0
H  H69  1  0.10337685  0.74063167  0.38347396  1  0.032706  0  0.099153  0.095073  0  1.031978  0
H  H70  1  0.14204630  0.27910257  0.88360003  1  0.069208  0  0.098948  0.09461  0  1.031214  0
H  H71  1  0.89663057  0.25937394  0.61652698  1  0.032512  0  0.099189  0.095092  0  1.031997  0
H  H72  1  0.93526240  0.78449548  0.26793139  1  0.059307  0  0.097411  0.088973  0  1.034556  0
H  H73  1  0.01625569  0.66700067  0.23192363  1  0.039998  0  0.097727  0.08956  0  1.034199  0
H  H74  1  0.06473736  0.21549915  0.73206455  1  0.059343  0  0.097408  0.088983  0  1.034529  0
H  H75  1  0.98375095  0.33299939  0.76807832  1  0.040409  0  0.097713  0.089518  0  1.034209  0
H  H76  1  0.84043615  0.90323644  0.34131867  1  0.091105  0  0.097342  0.093015  0  1.059049  0
H  H77  1  0.06236972  0.49936974  0.15860609  1  0.044481  0  0.097192  0.092924  0  1.059715  0
H  H78  1  0.15956834  0.09676427  0.65868022  1  0.091061  0  0.097354  0.093051  0  1.059033  0
H  H79  1  0.93762996  0.50062748  0.84139242  1  0.044497  0  0.097156  0.092897  0  1.059752  0
C  C80  1  0.17250343  0.70344305  0.99660108  1  1.538899  0  0.18794  0.564527  0  4.244989  0
C  C81  1  0.20704477  0.17561883  0.50339221  1  1.538871  0  0.187882  0.565045  0  4.245835  0
C  C82  1  0.82750263  0.29654104  0.00339412  1  1.539426  0  0.187955  0.564544  0  4.245036  0
C  C83  1  0.79294791  0.82439311  0.49661346  1  1.539197  0  0.187693  0.564886  0  4.24605  0
C  C84  1  0.08496903  0.59835374  0.99977743  1  -0.094533  0  -0.012078  -0.023533  0  3.961675  0
C  C85  1  0.09868005  0.08504823  0.50019613  1  -0.048034  0  -0.013046  -0.023452  0  3.966139  0
C  C86  1  0.91503847  0.40162959  0.00022102  1  -0.094789  0  -0.012025  -0.023497  0  3.961653  0
C  C87  1  0.90131435  0.91496275  0.49980860  1  -0.04824  0  -0.012921  -0.023203  0  3.965852  0
C  C88  1  0.99389518  0.61361835  0.02956685  1  -0.045928  0  -0.081746  -0.103447  0  3.978631  0
C  C89  1  0.08402497  0.96430331  0.47030001  1  -0.065986  0  -0.082161  -0.105649  0  3.983952  0
C  C90  1  0.00611722  0.38636232  0.97043298  1  -0.045559  0  -0.081881  -0.1036  0  3.978953  0
C  C91  1  0.91597092  0.03570977  0.52970711  1  -0.065618  0  -0.082287  -0.105867  0  3.983994  0
C  C92  1  0.09081285  0.48430355  0.97031220  1  -0.015133  0  -0.082506  -0.098555  0  3.974922  0
C  C93  1  0.01413415  0.12038278  0.52979369  1  0.000831  0  -0.080778  -0.095879  0  3.973395  0
C  C94  1  0.90919449  0.51567596  0.02968074  1  -0.015235  0  -0.082525  -0.098641  0  3.974815  0
C  C95  1  0.98585823  0.87963007  0.47021344  1  0.000766  0  -0.080843  -0.095982  0  3.973393  0
C  C96  1  0.55138676  0.89026488  0.09996248  1  1.545817  0  0.223438  0.618679  0  4.195579  0
C  C97  1  0.29012172  0.45141590  0.40005011  1  1.561021  0  0.221042  0.616458  0  4.197555  0
C  C98  1  0.44860878  0.10972942  0.90003366  1  1.545635  0  0.223475  0.618719  0  4.195242  0
C  C99  1  0.70988019  0.54858613  0.59995063  1  1.560893  0  0.220988  0.616332  0  4.197781  0
C  C100  1  0.92044461  0.92364767  0.73837698  1  0.274104  0  -0.129534  -0.279084  0  3.893547  0
C  C101  1  0.68537585  0.18217349  0.76151668  1  0.235981  0  -0.129115  -0.278593  0  3.891729  0
C  C102  1  0.07955510  0.07635240  0.26162066  1  0.273987  0  -0.129514  -0.279021  0  3.893622  0
C  C103  1  0.31461559  0.81784018  0.23847704  1  0.23565  0  -0.129243  -0.278813  0  3.891718  0
C  C104  1  0.04444892  0.80619357  0.69328910  1  0.247727  0  -0.134203  -0.268377  0  3.850525  0
C  C105  1  0.61284556  0.35100049  0.80670251  1  0.241537  0  -0.135275  -0.271533  0  3.850529  0
C  C106  1  0.95554967  0.19380232  0.30670922  1  0.247504  0  -0.134156  -0.268259  0  3.850484  0
C  C107  1  0.38714352  0.64900931  0.19330043  1  0.241209  0  -0.135227  -0.271371  0  3.850412  0
C  C108  1  0.09398911  0.90462612  0.83588776  1  1.356894  0  0.183027  0.310909  0  4.105254  0
C  C109  1  0.56894516  0.25837616  0.66409285  1  1.358021  0  0.183281  0.312295  0  4.105359  0
C  C110  1  0.90602079  0.09535801  0.16411577  1  1.357332  0  0.183101  0.311038  0  4.10492  0
C  C111  1  0.43104331  0.74164256  0.33590586  1  1.357929  0  0.183463  0.312776  0  4.105062  0
C  C112  1  0.52540544  0.21163578  0.42557478  1  1.516638  0  0.198366  0.574198  0  4.214181  0
C  C113  1  0.28553976  0.09931817  0.07449395  1  1.530157  0  0.200605  0.575611  0  4.212717  0
C  C114  1  0.47459621  0.78836148  0.57442662  1  1.516586  0  0.198353  0.574158  0  4.214351  0
C  C115  1  0.71445827  0.90067386  0.92550650  1  1.529735  0  0.200621  0.575641  0  4.212693  0
C  C116  1  0.57354247  0.13408158  0.37714461  1  -0.040823  0  -0.02137  -0.046182  0  3.999578  0
C  C117  1  0.25660766  0.19605500  0.12287788  1  -0.038495  0  -0.022803  -0.047442  0  3.999899  0
C  C118  1  0.42646091  0.86591472  0.62285586  1  -0.040795  0  -0.021353  -0.046097  0  3.99956  0
C  C119  1  0.74339254  0.80393945  0.87712386  1  -0.038108  0  -0.022784  -0.047364  0  3.99977  0
C  C120  1  0.58635836  0.15260804  0.30660095  1  -0.034562  0  -0.083287  -0.083595  0  3.97896  0
C  C121  1  0.34578214  0.27917734  0.19345375  1  -0.063203  0  -0.081943  -0.081011  0  3.976125  0
C  C122  1  0.41364920  0.84739380  0.69340194  1  -0.034849  0  -0.083271  -0.083533  0  3.978983  0
C  C123  1  0.65421878  0.72082052  0.80654512  1  -0.063059  0  -0.081928  -0.080988  0  3.976098  0
C  C124  1  0.62874263  0.07873122  0.26012609  1  -0.038667  0  -0.084435  -0.121597  0  3.946806  0
C  C125  1  0.31857738  0.36826978  0.23985032  1  -0.023933  0  -0.084502  -0.120786  0  3.945349  0
C  C126  1  0.37126146  0.92127300  0.73987685  1  -0.038613  0  -0.08443  -0.121717  0  3.946856  0
C  C127  1  0.68142602  0.63172961  0.76014838  1  -0.023981  0  -0.084488  -0.120801  0  3.94539  0
C  C128  1  0.65745991  0.98278866  0.28254226  1  -0.043927  0  -0.000687  0.078404  0  3.988534  0
C  C129  1  0.20028342  0.37498565  0.21736013  1  -0.032017  0  0.000435  0.077963  0  3.989099  0
C  C130  1  0.34254747  0.01721410  0.71745954  1  -0.04415  0  -0.000701  0.078335  0  3.988576  0
C  C131  1  0.79971740  0.62501149  0.78264401  1  -0.031966  0  0.000386  0.077939  0  3.988814  0
C  C132  1  0.64579500  0.96523273  0.35391382  1  -0.009578  0  -0.089582  -0.136215  0  3.971252  0
C  C133  1  0.11129832  0.29221184  0.14597003  1  -0.026289  0  -0.088787  -0.135631  0  3.973093  0
C  C134  1  0.35420139  0.03476120  0.64608140  1  -0.012772  0  -0.089552  -0.136078  0  3.971145  0
C  C135  1  0.88870608  0.70778792  0.85403502  1  -0.026111  0  -0.088802  -0.135605  0  3.972993  0
C  C136  1  0.60493004  0.04010151  0.40104124  1  -0.062178  0  -0.08115  -0.088778  0  3.966292  0
C  C137  1  0.13884827  0.20400465  0.09889350  1  -0.056764  0  -0.081371  -0.087511  0  3.966009  0
C  C138  1  0.39506887  0.95989324  0.59895652  1  -0.058951  0  -0.081202  -0.089005  0  3.966361  0
C  C139  1  0.86115411  0.79599223  0.90110953  1  -0.056837  0  -0.081356  -0.087559  0  3.966085  0
C  C140  1  0.70545321  0.90545895  0.23472296  1  0.056884  0  0.003216  0.052603  0  3.95864  0
C  C141  1  0.17082819  0.47079579  0.26520918  1  -0.055655  0  0.003033  0.052809  0  3.95821  0
C  C142  1  0.29454948  0.09454058  0.76527502  1  0.056811  0  0.003222  0.052681  0  3.958736  0
C  C143  1  0.82917497  0.52920688  0.73479193  1  -0.055649  0  0.003083  0.052886  0  3.958069  0
C  C144  1  0.66149435  0.86832561  0.14956364  1  -0.103839  0  -0.005319  -0.067958  0  3.922546  0
C  C145  1  0.21848680  0.51172627  0.35038499  1  -0.018808  0  -0.003845  -0.066141  0  3.920181  0
C  C146  1  0.33849978  0.13166850  0.85043287  1  -0.104041  0  -0.005377  -0.068056  0  3.922614  0
C  C147  1  0.78151807  0.48827544  0.64961518  1  -0.018926  0  -0.003839  -0.066144  0  3.920276  0
C  C148  1  0.71769819  0.80324389  0.10791529  1  -0.011081  0  -0.080798  -0.091756  0  3.977834  0
C  C149  1  0.19458769  0.60921793  0.39197990  1  0.008965  0  -0.081678  -0.0914  0  3.976838  0
C  C150  1  0.28229870  0.19675604  0.89208220  1  -0.010759  0  -0.080825  -0.091763  0  3.977846  0
C  C151  1  0.80542212  0.39078397  0.60802079  1  0.008873  0  -0.08158  -0.091324  0  3.976767  0
C  C152  1  0.81550594  0.77195870  0.14969453  1  0.000795  0  -0.094109  -0.091939  0  4.025865  0
C  C153  1  0.12147446  0.66517576  0.35020285  1  -0.069951  0  -0.094398  -0.092653  0  4.027373  0
C  C154  1  0.18449471  0.22804292  0.85030494  1  0.000784  0  -0.09411  -0.091924  0  4.025759  0
C  C155  1  0.87853824  0.33482819  0.64980075  1  -0.069858  0  -0.094453  -0.092724  0  4.027391  0
C  C156  1  0.85824941  0.80683471  0.23391131  1  -0.112337  0  -0.092516  -0.08095  0  4.040856  0
C  C157  1  0.07256757  0.62401861  0.26597848  1  0.029383  0  -0.09315  -0.082451  0  4.041527  0
C  C158  1  0.14175297  0.19316572  0.76608814  1  -0.112333  0  -0.09255  -0.081045  0  4.040785  0
C  C159  1  0.92743852  0.37598090  0.73402293  1  0.029357  0  -0.093105  -0.082309  0  4.041407  0
C  C160  1  0.80404865  0.87313592  0.27555811  1  -0.030253  0  -0.0888  -0.123373  0  3.974986  0
C  C161  1  0.09767367  0.52852524  0.22436241  1  0.004204  0  -0.08869  -0.123379  0  3.97532  0
C  C162  1  0.19595333  0.12686375  0.72443915  1  -0.030284  0  -0.088737  -0.123371  0  3.97495  0
C  C163  1  0.90232909  0.47147643  0.77563741  1  0.004111  0  -0.088759  -0.123484  0  3.975284  0
N  N164  1  0.02444522  0.88098803  0.75916744  1  -1.217736  0  -0.27391  0.039736  0  3.720553  0
N  N165  1  0.62188462  0.26533421  0.74078336  1  -1.219997  0  -0.274385  0.040644  0  3.719023  0
N  N166  1  0.97555952  0.11901391  0.24083437  1  -1.218035  0  -0.273907  0.039792  0  3.720788  0
N  N167  1  0.37810413  0.73467697  0.25921924  1  -1.219586  0  -0.274348  0.040578  0  3.719084  0
O  O168  1  0.23886706  0.68782101  0.95491306  1  -1.169396  0  -0.389208  -0.63503  0  2.162642  0
O  O169  1  0.23309647  0.28350599  0.54520555  1  -1.186588  0  -0.390818  -0.637221  0  2.162033  0
O  O170  1  0.76115038  0.31217291  0.04509001  1  -1.169607  0  -0.389257  -0.635082  0  2.162604  0
O  O171  1  0.76690134  0.71650734  0.45479102  1  -1.186318  0  -0.390681  -0.637151  0  2.161977  0
O  O172  1  0.17708087  0.80722598  0.03417763  1  -1.174244  0  -0.386279  -0.62119  0  2.167046  0
O  O173  1  0.27336263  0.14283882  0.46577288  1  -1.174572  0  -0.384232  -0.620109  0  2.165347  0
O  O174  1  0.82291777  0.19275996  0.96581365  1  -1.17459  0  -0.386221  -0.62111  0  2.167114  0
O  O175  1  0.72662957  0.85716689  0.53423144  1  -1.174822  0  -0.384157  -0.62001  0  2.165472  0
O  O176  1  0.56138689  0.94980623  0.05078191  1  -1.21265  0  -0.426335  -0.729021  0  2.412098  0
O  O177  1  0.39890453  0.51054468  0.44913417  1  -1.220466  0  -0.4264  -0.728758  0  2.414127  0
O  O178  1  0.43860710  0.05019616  0.94921799  1  -1.212556  0  -0.426377  -0.729076  0  2.412151  0
O  O179  1  0.60110036  0.48945680  0.55086691  1  -1.220294  0  -0.42639  -0.728711  0  2.414114  0
O  O180  1  0.18073876  0.86453438  0.85852638  1  -1.192737  0  -0.381705  -0.565232  0  2.371239  0
O  O181  1  0.50632347  0.32257368  0.64152599  1  -1.193638  0  -0.381528  -0.566645  0  2.373722  0
O  O182  1  0.81925340  0.13545590  0.14147173  1  -1.192831  0  -0.381777  -0.565442  0  2.37077  0
O  O183  1  0.49366181  0.67743632  0.35848025  1  -1.193255  0  -0.381698  -0.566994  0  2.373564  0
O  O184  1  0.48144599  0.28777224  0.39789229  1  -1.194289  0  -0.36928  -0.639706  0  2.247071  0
O  O185  1  0.38936794  0.08294696  0.10215459  1  -1.199544  0  -0.371264  -0.641162  0  2.246924  0
O  O186  1  0.51855743  0.71222667  0.60210822  1  -1.194355  0  -0.369296  -0.639695  0  2.247148  0
O  O187  1  0.61063459  0.91704970  0.89784681  1  -1.199356  0  -0.371255  -0.641187  0  2.247149  0
O  O188  1  0.52574215  0.20221339  0.49360283  1  -1.17229  0  -0.367582  -0.614354  0  2.270058  0
O  O189  1  0.20801245  0.03167612  0.00652183  1  -1.177704  0  -0.367888  -0.614584  0  2.268675  0
O  O190  1  0.47425578  0.79778171  0.50639839  1  -1.172227  0  -0.36761  -0.614389  0  2.270196  0
O  O191  1  0.79198637  0.96831790  0.99348118  1  -1.177582  0  -0.367919  -0.614639  0  2.268401  0
O  O192  1  0.44896160  0.84537862  0.10234609  1  -1.16881  0  -0.335831  -0.591518  0  2.224111  0
O  O193  1  0.24294462  0.34667722  0.39767631  1  -1.169397  0  -0.334445  -0.59085  0  2.222945  0
O  O194  1  0.55104157  0.15461575  0.89765417  1  -1.168667  0  -0.335833  -0.591502  0  2.223691  0
O  O195  1  0.75705740  0.65332506  0.60232099  1  -1.169426  0  -0.334398  -0.590793  0  2.222941  0
O  O196  1  0.39822261  0.79363560  0.89020230  1  -1.270195  0  -0.617965  -0.82635  0  2.064981  0
O  O197  1  0.40305247  0.50768680  0.60973079  1  -1.272482  0  -0.618347  -0.825533  0  2.067329  0
O  O198  1  0.60177520  0.20635805  0.10979436  1  -1.270243  0  -0.618012  -0.826507  0  2.06484  0
O  O199  1  0.59693822  0.49231277  0.39026401  1  -1.272555  0  -0.61833  -0.825579  0  2.067334  0
