# generated using pymatgen
data_AlH11C12O5
_symmetry_space_group_name_H-M   'P 1'
_cell_length_a   6.73409975
_cell_length_b   18.07545779
_cell_length_c   20.63740313
_cell_angle_alpha   72.59491043
_cell_angle_beta   87.68926577
_cell_angle_gamma   87.43423880
_symmetry_Int_Tables_number   1
_chemical_formula_structural   AlH11C12O5
_chemical_formula_sum   'Al4 H44 C48 O20'
_cell_volume   2393.64986549
_cell_formula_units_Z   4
loop_
 _symmetry_equiv_pos_site_id
 _symmetry_equiv_pos_as_xyz
  1  'x, y, z'
loop_
 _atom_site_type_symbol
 _atom_site_label
 _atom_site_symmetry_multiplicity
 _atom_site_fract_x
 _atom_site_fract_y
 _atom_site_fract_z
 _atom_site_occupancy
 _atom_site_pbe_bader_charge
 _atom_site_pbe_bader_spin_density
 _atom_site_pbe_cm5_charge
 _atom_site_pbe_ddec_charge
 _atom_site_pbe_ddec_spin_density
 _atom_site_pbe_ddec_sum_bond_order
 _atom_site_pbe_magmom
Al  Al0  1  0.12880940  0.49877044  0.49858588  1  2.504299  0  0.406624  1.648383  0  2.574318  0
Al  Al1  1  0.62863082  0.49925584  0.49978157  1  2.502601  0  0.407719  1.648103  0  2.568412  0
Al  Al2  1  0.61390213  0.00015466  0.00065605  1  2.5018  0  0.406206  1.64652  0  2.576341  0
Al  Al3  1  0.11411506  0.99929721  0.99924809  1  2.503406  0  0.406854  1.646567  0  2.572671  0
H  H4  1  0.61130641  0.78042096  0.67804683  1  0.014897  0  0.095356  0.062916  0  0.964176  0
H  H5  1  0.21628169  0.19680952  0.35131418  1  0.023536  0  0.095743  0.064108  0  0.96369  0
H  H6  1  0.55850221  0.82133053  0.77345971  1  0.039483  0  0.094793  0.097244  0  0.981781  0
H  H7  1  0.07308794  0.15892795  0.26603116  1  0.057608  0  0.095194  0.100004  0  0.975867  0
H  H8  1  0.11058585  0.85240923  0.73264965  1  0.03037  0  0.094712  0.09478  0  0.982651  0
H  H9  1  0.63134106  0.15780780  0.23154682  1  0.050518  0  0.096452  0.099081  0  0.981133  0
H  H10  1  0.87139598  0.88407895  0.70153746  1  0.03155  0  0.096155  0.097901  0  0.970885  0
H  H11  1  0.44472242  0.11845677  0.29331935  1  0.020168  0  0.09518  0.096754  0  0.973532  0
H  H12  1  0.92920958  0.80885745  0.62741868  1  0.045439  0  0.094874  0.094668  0  0.980915  0
H  H13  1  0.57404699  0.20059078  0.35066423  1  0.009835  0  0.094619  0.09447  0  0.980544  0
H  H14  1  0.15083642  0.72716168  0.81971754  1  0.021389  0  0.093961  0.063165  0  0.979565  0
H  H15  1  0.55791382  0.28763982  0.15052533  1  -0.005185  0  0.095334  0.064713  0  0.962176  0
H  H16  1  0.59606255  0.72814055  0.83108249  1  0.046455  0  0.092651  0.092334  0  1.006948  0
H  H17  1  0.03159503  0.25441185  0.21263477  1  0.029926  0  0.09069  0.089527  0  1.014784  0
H  H18  1  0.10483837  0.63280140  0.76554733  1  0.043441  0  0.094234  0.096151  0  1.029528  0
H  H19  1  0.50968329  0.38284153  0.20605116  1  0.037714  0  0.095912  0.098109  0  0.990058  0
H  H20  1  0.63052061  0.55969410  0.77593963  1  0.036187  0  0.089142  0.119574  0  1.007826  0
H  H21  1  0.53606195  0.60278164  0.83865405  1  0.008031  0  0.080794  0.099617  0  1.03451  0
H  H22  1  0.37282870  0.56329700  0.79371537  1  0.019364  0  0.088656  0.117201  0  1.007257  0
H  H23  1  0.34725063  0.70339714  0.74340571  1  -0.017436  0  0.085289  0.069813  0  1.046532  0
H  H24  1  0.46814711  0.66264293  0.68431057  1  0.042628  0  0.09224  0.087794  0  0.983665  0
H  H25  1  0.03407948  0.41258106  0.27353277  1  0.031014  0  0.087716  0.119101  0  1.005361  0
H  H26  1  0.90096574  0.35980520  0.23028786  1  -0.035892  0  0.076159  0.09051  0  1.038381  0
H  H27  1  0.78788479  0.38558968  0.29997530  1  0.028744  0  0.086037  0.119119  0  1.024985  0
H  H28  1  0.88458389  0.24936494  0.34647635  1  -0.012756  0  0.085993  0.07427  0  1.024823  0
H  H29  1  0.04701419  0.30293774  0.37729403  1  0.046582  0  0.090981  0.089031  0  0.99091  0
H  H30  1  0.14093039  0.76161126  0.67130222  1  0.035476  0  0.093612  0.09456  0  1.005165  0
H  H31  1  0.68637271  0.26003345  0.27511471  1  0.030316  0  0.093701  0.095228  0  1.031039  0
H  H32  1  0.09197620  0.55676052  0.90254693  1  0.011776  0  0.084504  0.108661  0  1.015415  0
H  H33  1  0.24407866  0.62097318  0.92706217  1  0.007474  0  0.084121  0.108855  0  1.008179  0
H  H34  1  0.05199694  0.57252507  0.98292679  1  0.034018  0  0.087274  0.113554  0  1.002154  0
H  H35  1  0.94903158  0.71090414  0.92773583  1  0.037515  0  0.088698  0.084898  0  0.99331  0
H  H36  1  0.79362912  0.64790357  0.90402104  1  0.001068  0  0.085275  0.072017  0  1.000794  0
H  H37  1  0.34135969  0.45215326  0.08692935  1  0.005626  0  0.084443  0.109401  0  1.011957  0
H  H38  1  0.51691883  0.40533902  0.04439416  1  0.040504  0  0.084469  0.108903  0  1.001232  0
H  H39  1  0.27552397  0.43190690  0.01186374  1  0.02531  0  0.087323  0.115337  0  1.006799  0
H  H40  1  0.29530187  0.28993174  0.06944183  1  0.051036  0  0.088834  0.083707  0  0.993755  0
H  H41  1  0.12537462  0.33527588  0.11402788  1  0.003053  0  0.084918  0.072647  0  0.995403  0
H  H42  1  0.86997882  0.61009267  0.80466629  1  0.041932  0  0.095517  0.098949  0  1.022024  0
H  H43  1  0.24828029  0.38147452  0.20453157  1  0.047171  0  0.095545  0.097292  0  1.016018  0
H  H44  1  0.36555055  0.59650083  0.49789672  1  0.641968  0  0.359337  0.441029  0  0.837352  0
H  H45  1  0.88778707  0.39913566  0.50724464  1  0.636898  0  0.359869  0.440646  0  0.836698  0
H  H46  1  0.37841947  0.90377773  0.99757788  1  0.632875  0  0.359211  0.440501  0  0.838223  0
H  H47  1  0.85510390  0.09498299  0.00377357  1  0.620536  0  0.358287  0.438635  0  0.840498  0
C  C48  1  0.40070690  0.42155658  0.42191290  1  1.662081  0  0.278153  0.730965  0  4.151291  0
C  C49  1  0.86108363  0.57682449  0.57629160  1  1.666503  0  0.277256  0.733783  0  4.145877  0
C  C50  1  0.37579531  0.39284186  0.60329846  1  1.686722  0  0.27636  0.705238  0  4.178196  0
C  C51  1  0.87988821  0.60498011  0.39536926  1  1.703921  0  0.277251  0.704315  0  4.17681  0
C  C52  1  0.87672321  0.66667076  0.33208029  1  0.147486  0  -0.003438  -0.146903  0  3.850686  0
C  C53  1  0.37501211  0.33161668  0.66691561  1  0.225835  0  -0.003982  -0.147035  0  3.851359  0
C  C54  1  0.87283800  0.71979949  0.27896037  1  -0.296283  0  -0.006407  0.032051  0  4.24092  0
C  C55  1  0.37221866  0.27890827  0.72034956  1  -0.283308  0  -0.007986  0.030277  0  4.241259  0
C  C56  1  0.86911421  0.77838440  0.22031558  1  -0.295273  0  -0.007742  0.028009  0  4.241533  0
C  C57  1  0.36950462  0.22069240  0.77927814  1  -0.317459  0  -0.008601  0.026464  0  4.242085  0
C  C58  1  0.86588739  0.83148296  0.16718450  1  0.220308  0  -0.001215  -0.140641  0  3.846609  0
C  C59  1  0.36710713  0.16784618  0.83259071  1  0.162608  0  -0.000818  -0.139222  0  3.844901  0
C  C60  1  0.65423899  0.76848488  0.78370988  1  -0.061113  0  -0.155224  -0.22707  0  3.844563  0
C  C61  1  0.13913124  0.21622862  0.24710765  1  -0.06491  0  -0.154754  -0.226415  0  3.839525  0
C  C62  1  0.96489157  0.83213645  0.72448170  1  -0.052907  0  -0.151452  -0.186905  0  3.862774  0
C  C63  1  0.49913092  0.17295749  0.25850810  1  -0.026678  0  -0.153718  -0.19425  0  3.878082  0
C  C64  1  0.98507198  0.77891838  0.67819918  1  -0.014733  0  -0.154508  -0.19599  0  3.870743  0
C  C65  1  0.54987075  0.23052983  0.29665217  1  0.001077  0  -0.157391  -0.202777  0  3.883761  0
C  C66  1  0.85873518  0.62088165  0.62401772  1  0.171622  0  -0.051753  -0.235453  0  3.96782  0
C  C67  1  0.40826473  0.37737287  0.37417350  1  0.194467  0  -0.048363  -0.23558  0  3.952914  0
C  C68  1  0.86996412  0.78793263  0.79452546  1  0.146606  0  0.002685  0.136282  0  3.876961  0
C  C69  1  0.33525049  0.21005751  0.20661221  1  0.134013  0  0.003291  0.137351  0  3.87147  0
C  C70  1  0.64909606  0.73315828  0.72427334  1  0.013324  0  -0.080096  -0.014432  0  3.784498  0
C  C71  1  0.18174820  0.24730651  0.30719437  1  0.007947  0  -0.07874  -0.014219  0  3.775627  0
C  C72  1  0.86420132  0.70500648  0.71022034  1  0.148459  0  0.002209  0.142129  0  3.865732  0
C  C73  1  0.37918987  0.29244615  0.28957887  1  0.147031  0  0.002389  0.139556  0  3.860819  0
C  C74  1  0.96315914  0.65853090  0.77771981  1  -0.032013  0  -0.157285  -0.234159  0  3.815581  0
C  C75  1  0.38362099  0.34424120  0.21438725  1  -0.02457  0  -0.153674  -0.22741  0  3.826965  0
C  C76  1  0.99390933  0.71070837  0.82355615  1  0.002778  0  -0.077074  -0.008897  0  3.765377  0
C  C77  1  0.40034115  0.29361655  0.16568956  1  0.017698  0  -0.077089  -0.010796  0  3.773692  0
C  C78  1  0.86405800  0.65872133  0.66367924  1  -0.478226  0  -0.009277  0.000203  0  4.008936  0
C  C79  1  0.40210772  0.33894774  0.33498955  1  -0.505766  0  -0.003926  0.006162  0  3.995727  0
C  C80  1  0.87516408  0.83598500  0.83941401  1  -0.496078  0  -0.009594  -0.00398  0  4.024619  0
C  C81  1  0.32115041  0.16274161  0.16149535  1  -0.351703  0  -0.009777  -0.003985  0  4.02114  0
C  C82  1  0.88394569  0.87666719  0.87658005  1  0.185233  0  -0.054266  -0.239544  0  3.978875  0
C  C83  1  0.32925630  0.12250046  0.12357753  1  0.050597  0  -0.054292  -0.239396  0  3.978226  0
C  C84  1  0.36577765  0.10623321  0.89607603  1  1.70668  0  0.276252  0.701137  0  4.180201  0
C  C85  1  0.86369735  0.89316148  0.10377454  1  1.706134  0  0.276307  0.701713  0  4.179557  0
C  C86  1  0.34197805  0.07716045  0.07695700  1  1.672566  0  0.278671  0.735026  0  4.145312  0
C  C87  1  0.88125789  0.92222830  0.92301364  1  1.688292  0  0.279015  0.735004  0  4.144826  0
C  C88  1  0.48615284  0.67388420  0.73328813  1  0.007568  0  -0.168613  -0.139498  0  3.954113  0
C  C89  1  0.50916866  0.59604887  0.78853336  1  -0.068045  0  -0.24539  -0.352511  0  3.961838  0
C  C90  1  0.00526529  0.29044232  0.33077376  1  0.000401  0  -0.169593  -0.136625  0  3.954773  0
C  C91  1  0.92858098  0.36605019  0.28063341  1  -0.025668  0  -0.249279  -0.354344  0  3.960638  0
C  C92  1  0.94644201  0.66892625  0.89863411  1  -0.018329  0  -0.166017  -0.129836  0  3.949496  0
C  C93  1  0.09122467  0.60103116  0.92931342  1  -0.048222  0  -0.243529  -0.34845  0  3.978111  0
C  C94  1  0.28454588  0.32982891  0.10069264  1  -0.0266  0  -0.166456  -0.130982  0  3.958012  0
C  C95  1  0.35857680  0.40915710  0.05887696  1  -0.065636  0  -0.244016  -0.347667  0  3.973063  0
O  O96  1  0.54585839  0.41497170  0.57735192  1  -1.229127  0  -0.225867  -0.580221  0  2.284235  0
O  O97  1  0.05069291  0.57910010  0.41760631  1  -1.229701  0  -0.223762  -0.57253  0  2.281661  0
O  O98  1  0.22724535  0.43637263  0.44319314  1  -1.239783  0  -0.229767  -0.590792  0  2.278302  0
O  O99  1  0.69420617  0.55751911  0.56034419  1  -1.237164  0  -0.231516  -0.590222  0  2.262513  0
O  O100  1  0.20593170  0.41769365  0.57947762  1  -1.227989  0  -0.224448  -0.575602  0  2.285285  0
O  O101  1  0.71093080  0.58356345  0.42274583  1  -1.231893  0  -0.224808  -0.577118  0  2.288664  0
O  O102  1  0.03236207  0.56184009  0.55362363  1  -1.248743  0  -0.231148  -0.596056  0  2.292187  0
O  O103  1  0.56524395  0.44098391  0.43932662  1  -1.23862  0  -0.230035  -0.587662  0  2.275957  0
O  O104  1  0.37398963  0.54470662  0.49317349  1  -1.442163  0  -0.445846  -0.997107  0  2.184052  0
O  O105  1  0.88281422  0.45326643  0.50566977  1  -1.437571  0  -0.446085  -0.996723  0  2.18828  0
O  O106  1  0.17839696  0.05815811  0.05842885  1  -1.236659  0  -0.229968  -0.591593  0  2.286912  0
O  O107  1  0.70959922  0.93901301  0.94413043  1  -1.242748  0  -0.229479  -0.591768  0  2.292841  0
O  O108  1  0.53521550  0.08243102  0.92074542  1  -1.225776  0  -0.223876  -0.572931  0  2.28595  0
O  O109  1  0.03316948  0.91514357  0.07726575  1  -1.224648  0  -0.225474  -0.57641  0  2.286799  0
O  O110  1  0.51647799  0.06092458  0.05754855  1  -1.244665  0  -0.230102  -0.591847  0  2.278577  0
O  O111  1  0.04797594  0.94076189  0.93971279  1  -1.242639  0  -0.229871  -0.589767  0  2.271939  0
O  O112  1  0.69303553  0.91819006  0.08084205  1  -1.224713  0  -0.224664  -0.573592  0  2.28181  0
O  O113  1  0.19549344  0.08308260  0.92085080  1  -1.226037  0  -0.224912  -0.574607  0  2.283514  0
O  O114  1  0.36916727  0.95395139  0.00567176  1  -1.433601  0  -0.44749  -0.996274  0  2.179714  0
O  O115  1  0.85980517  0.04556066  0.99426869  1  -1.420467  0  -0.446591  -0.994222  0  2.179791  0
