# generated using pymatgen
data_HgH4C7ClOF2
_symmetry_space_group_name_H-M   'P 1'
_cell_length_a   6.72146282
_cell_length_b   11.45644268
_cell_length_c   11.45590121
_cell_angle_alpha   86.38513206
_cell_angle_beta   75.08250592
_cell_angle_gamma   75.08382871
_symmetry_Int_Tables_number   1
_chemical_formula_structural   HgH4C7ClOF2
_chemical_formula_sum   'Hg4 H16 C28 Cl4 O4 F8'
_cell_volume   823.69167984
_cell_formula_units_Z   4
loop_
 _symmetry_equiv_pos_site_id
 _symmetry_equiv_pos_as_xyz
  1  'x, y, z'
loop_
 _atom_site_type_symbol
 _atom_site_label
 _atom_site_symmetry_multiplicity
 _atom_site_fract_x
 _atom_site_fract_y
 _atom_site_fract_z
 _atom_site_occupancy
 _atom_site_hle17_bader_spin_density
 _atom_site_hle17_ddec_charge
 _atom_site_hle17_ddec_spin_density
 _atom_site_hle17_ddec_sum_bond_order
 _atom_site_hle17_magmom
 _atom_site_hse06_10hf_bader_spin_density
 _atom_site_hse06_10hf_ddec_charge
 _atom_site_hse06_10hf_ddec_spin_density
 _atom_site_hse06_10hf_ddec_sum_bond_order
 _atom_site_hse06_10hf_magmom
 _atom_site_hse06_bader_spin_density
 _atom_site_hse06_ddec_charge
 _atom_site_hse06_ddec_spin_density
 _atom_site_hse06_ddec_sum_bond_order
 _atom_site_hse06_magmom
 _atom_site_pbe_bader_spin_density
 _atom_site_pbe_cm5_charge
 _atom_site_pbe_ddec_charge
 _atom_site_pbe_ddec_spin_density
 _atom_site_pbe_ddec_sum_bond_order
 _atom_site_pbe_magmom
Hg  Hg0  1  0.05232809  0.28470215  0.59271004  1  0  0.733494  0  1.896264  0  0  0.607236  0  2.335517  0  0  0.642819  0  2.311728  0  0  0.49428  0.582865  0  2.351428  0
Hg  Hg1  1  0.55237575  0.59268364  0.28471389  1  0  0.733996  0  1.895442  0  0  0.607231  0  2.335442  0  0  0.642797  0  2.311688  0  0  0.494297  0.582899  0  2.351273  0
Hg  Hg2  1  0.50786104  0.48366002  0.64102086  1  0  0.663438  0  2.025241  0  0  0.531351  0  2.483246  0  0  0.567306  0  2.457175  0  0  0.453176  0.506285  0  2.501409  0
Hg  Hg3  1  0.00789801  0.64101338  0.48367923  1  0  0.664166  0  2.024061  0  0  0.531347  0  2.482844  0  0  0.567301  0  2.456781  0  0  0.4532  0.506289  0  2.501003  0
H  H4  1  0.06541303  0.89683026  0.57979699  1  0  0.093647  0  0.968081  0  0  0.100391  0  1.038841  0  0  0.104032  0  1.035616  0  0  0.092239  0.097732  0  1.041337  0
H  H5  1  0.56535682  0.57985262  0.89685974  1  0  0.093607  0  0.967685  0  0  0.100324  0  1.038575  0  0  0.103962  0  1.035364  0  0  0.092223  0.097668  0  1.041073  0
H  H6  1  0.37477588  0.93885772  0.42721837  1  0  0.100816  0  0.965058  0  0  0.108512  0  1.025821  0  0  0.111705  0  1.024485  0  0  0.091985  0.106207  0  1.026889  0
H  H7  1  0.87471266  0.42726178  0.93886613  1  0  0.10015  0  0.965887  0  0  0.108586  0  1.02595  0  0  0.111786  0  1.024603  0  0  0.092017  0.106278  0  1.027024  0
H  H8  1  0.31920451  0.09237471  0.26790045  1  0  0.094871  0  0.941043  0  0  0.104369  0  1.001118  0  0  0.108114  0  0.998317  0  0  0.099511  0.101721  0  1.003099  0
H  H9  1  0.81916222  0.26791969  0.09237189  1  0  0.094701  0  0.940742  0  0  0.104253  0  1.000806  0  0  0.108  0  0.998002  0  0  0.099381  0.101602  0  1.002792  0
H  H10  1  0.95132618  0.20993498  0.26664323  1  0  0.094154  0  0.958593  0  0  0.104636  0  1.017681  0  0  0.107533  0  1.0165  0  0  0.093206  0.102483  0  1.018738  0
H  H11  1  0.45127249  0.26665992  0.20992510  1  0  0.094086  0  0.958841  0  0  0.104591  0  1.01792  0  0  0.107484  0  1.01674  0  0  0.093164  0.10244  0  1.018972  0
H  H12  1  0.64087200  0.16851899  0.42119511  1  0  0.10214  0  0.978302  0  0  0.10952  0  1.045717  0  0  0.112902  0  1.043532  0  0  0.088393  0.107035  0  1.047392  0
H  H13  1  0.14079662  0.42119780  0.16852504  1  0  0.102056  0  0.978038  0  0  0.109476  0  1.045456  0  0  0.112856  0  1.043268  0  0  0.088388  0.106965  0  1.047152  0
H  H14  1  0.56398194  0.77382281  0.76100338  1  0  0.091615  0  0.957252  0  0  0.107382  0  1.028133  0  0  0.107781  0  1.02739  0  0  0.088859  0.106976  0  1.028768  0
H  H15  1  0.06397276  0.76103161  0.77381622  1  0  0.091674  0  0.957051  0  0  0.107421  0  1.027956  0  0  0.107819  0  1.027215  0  0  0.088802  0.107016  0  1.028593  0
H  H16  1  0.37016603  0.89656997  0.71641139  1  0  0.100296  0  0.949682  0  0  0.116148  0  1.01422  0  0  0.117214  0  1.01326  0  0  0.0964  0.115312  0  1.01495  0
H  H17  1  0.87011157  0.71645619  0.89656578  1  0  0.100274  0  0.949789  0  0  0.116094  0  1.014359  0  0  0.11718  0  1.013375  0  0  0.096384  0.115263  0  1.015081  0
H  H18  1  0.49040120  0.91890903  0.83285067  1  0  0.092332  0  0.960667  0  0  0.101132  0  1.03654  0  0  0.102534  0  1.03445  0  0  0.090254  0.100016  0  1.038125  0
H  H19  1  0.99038941  0.83287110  0.91891647  1  0  0.092366  0  0.960563  0  0  0.101116  0  1.03651  0  0  0.102519  0  1.03442  0  0  0.090201  0.099997  0  1.038098  0
C  C20  1  0.79156889  0.24445648  0.71558726  1  0  -0.267172  0  3.807161  0  0  -0.244176  0  4.112986  0  0  -0.259201  0  4.149615  0  0  -0.139959  -0.234312  0  4.088368  0
C  C21  1  0.29161945  0.71558303  0.24446815  1  0  -0.267319  0  3.807373  0  0  -0.244348  0  4.113344  0  0  -0.259373  0  4.14997  0  0  -0.14004  -0.234499  0  4.08874  0
C  C22  1  0.58566682  0.31967072  0.72890334  1  0  -0.259558  0  3.814062  0  0  -0.232283  0  4.110318  0  0  -0.247503  0  4.147999  0  0  -0.141306  -0.222138  0  4.085044  0
C  C23  1  0.08573987  0.72889797  0.31967475  1  0  -0.25854  0  3.812185  0  0  -0.231977  0  4.110203  0  0  -0.247195  0  4.14789  0  0  -0.141179  -0.221867  0  4.085015  0
C  C24  1  0.41773318  0.29034485  0.81406193  1  0  0.209934  0  3.845507  0  0  0.184085  0  4.131957  0  0  0.192684  0  4.146441  0  0  0.070163  0.177908  0  4.122691  0
C  C25  1  0.91781203  0.81403961  0.29034695  1  0  0.211834  0  3.844185  0  0  0.183883  0  4.132448  0  0  0.192485  0  4.146927  0  0  0.070018  0.177703  0  4.123163  0
C  C26  1  0.44670080  0.19039786  0.88908820  1  0  0.137775  0  3.799849  0  0  0.1072  0  4.097568  0  0  0.114313  0  4.105985  0  0  0.087351  0.101977  0  4.092513  0
C  C27  1  0.94679254  0.88908103  0.19041358  1  0  0.138525  0  3.797897  0  0  0.107196  0  4.097601  0  0  0.114304  0  4.106024  0  0  0.087486  0.10198  0  4.092531  0
C  C28  1  0.65065969  0.11573128  0.87587053  1  0  0.127496  0  3.788438  0  0  0.095848  0  4.089908  0  0  0.102307  0  4.098232  0  0  0.085929  0.090959  0  4.084847  0
C  C29  1  0.15075267  0.87584981  0.11573011  1  0  0.128072  0  3.788363  0  0  0.096508  0  4.089738  0  0  0.102968  0  4.098066  0  0  0.086422  0.091621  0  4.084666  0
C  C30  1  0.82050027  0.14343596  0.78929423  1  0  0.215922  0  3.84255  0  0  0.183371  0  4.139682  0  0  0.193152  0  4.152588  0  0  0.074255  0.176494  0  4.131318  0
C  C31  1  0.32057176  0.78926776  0.14342352  1  0  0.215383  0  3.843534  0  0  0.182744  0  4.140641  0  0  0.192528  0  4.153547  0  0  0.073905  0.175863  0  4.132278  0
C  C32  1  0.83338563  0.02837377  0.50817851  1  0  -0.091688  0  3.818717  0  0  -0.068185  0  4.052113  0  0  -0.077514  0  4.077306  0  0  -0.031385  -0.061958  0  4.035097  0
C  C33  1  0.33334976  0.50820208  0.02838478  1  0  -0.092115  0  3.819456  0  0  -0.068371  0  4.052218  0  0  -0.077689  0  4.077412  0  0  -0.031537  -0.062143  0  4.035212  0
C  C34  1  0.04059105  0.96437791  0.51033306  1  0  -0.078029  0  3.745909  0  0  -0.105981  0  4.00169  0  0  -0.1054  0  4.022092  0  0  -0.095267  -0.106203  0  3.987771  0
C  C35  1  0.54053148  0.51035708  0.96439310  1  0  -0.077913  0  3.746169  0  0  -0.105822  0  4.001907  0  0  -0.105258  0  4.02233  0  0  -0.095337  -0.106  0  3.987871  0
C  C36  1  0.21448254  0.98820145  0.42472991  1  0  -0.068121  0  3.748873  0  0  -0.077436  0  4.00077  0  0  -0.081271  0  4.02313  0  0  -0.096986  -0.074855  0  3.985516  0
C  C37  1  0.71442303  0.42476554  0.98820965  1  0  -0.068469  0  3.750467  0  0  -0.077518  0  4.001502  0  0  -0.081359  0  4.023868  0  0  -0.096864  -0.074939  0  3.986282  0
C  C38  1  0.18279385  0.07532320  0.33582162  1  0  -0.059017  0  3.751468  0  0  -0.078478  0  4.009594  0  0  -0.078783  0  4.029776  0  0  -0.090935  -0.078072  0  3.995612  0
C  C39  1  0.68273936  0.33585537  0.07531648  1  0  -0.058813  0  3.750758  0  0  -0.078283  0  4.008908  0  0  -0.0786  0  4.029108  0  0  -0.091008  -0.077879  0  3.994936  0
C  C40  1  0.97647651  0.14024976  0.33420459  1  0  -0.087548  0  3.781957  0  0  -0.099919  0  4.036925  0  0  -0.103658  0  4.058961  0  0  -0.104198  -0.097426  0  4.022077  0
C  C41  1  0.47640627  0.33422660  0.14024142  1  0  -0.08767  0  3.782119  0  0  -0.100092  0  4.037221  0  0  -0.103827  0  4.059259  0  0  -0.104082  -0.097602  0  4.022362  0
C  C42  1  0.80220873  0.11753299  0.42037318  1  0  -0.073167  0  3.728515  0  0  -0.096233  0  3.973174  0  0  -0.09622  0  3.994245  0  0  -0.093334  -0.096066  0  3.95901  0
C  C43  1  0.30215979  0.42039198  0.11753478  1  0  -0.073031  0  3.728954  0  0  -0.096122  0  3.973521  0  0  -0.096086  0  3.994543  0  0  -0.093325  -0.095944  0  3.959396  0
C  C44  1  0.64319593  0.00602825  0.59756647  1  0  0.575127  0  3.812213  0  0  0.526001  0  4.105702  0  0  0.559107  0  4.098549  0  0  0.22417  0.503568  0  4.110004  0
C  C45  1  0.14310636  0.59759324  0.00604346  1  0  0.575006  0  3.812915  0  0  0.526097  0  4.105829  0  0  0.559196  0  4.098678  0  0  0.224485  0.503653  0  4.110136  0
C  C46  1  0.51559037  0.87137845  0.74825024  1  0  -0.070943  0  3.588165  0  0  -0.170748  0  3.855809  0  0  -0.162609  0  3.857812  0  0  -0.154949  -0.176143  0  3.854508  0
C  C47  1  0.01554467  0.74827064  0.87139224  1  0  -0.071056  0  3.588523  0  0  -0.170777  0  3.856111  0  0  -0.162656  0  3.858112  0  0  -0.154803  -0.176187  0  3.854805  0
Cl  Cl48  1  0.31847427  0.35604069  0.45335259  1  0  -0.452104  0  1.170725  0  0  -0.382932  0  1.484993  0  0  -0.402731  0  1.465072  0  0  -0.239778  -0.368633  0  1.498383  0
Cl  Cl49  1  0.81847288  0.45331904  0.35608281  1  0  -0.452046  0  1.170439  0  0  -0.382901  0  1.484944  0  0  -0.402709  0  1.465041  0  0  -0.2398  -0.3686  0  1.498322  0
Cl  Cl50  1  0.40345545  0.67881150  0.56153997  1  0  -0.431406  0  1.195645  0  0  -0.361529  0  1.516932  0  0  -0.38  0  1.495556  0  0  -0.229968  -0.348644  0  1.531344  0
Cl  Cl51  1  0.90344648  0.56152297  0.67883325  1  0  -0.431879  0  1.196106  0  0  -0.361541  0  1.516827  0  0  -0.380015  0  1.495459  0  0  -0.230004  -0.348661  0  1.531243  0
O  O52  1  0.46335813  0.07277983  0.61464948  1  0  -0.536553  0  1.973568  0  0  -0.497626  0  2.208077  0  0  -0.518229  0  2.202169  0  0  -0.289845  -0.483354  0  2.211629  0
O  O53  1  0.96331779  0.61466950  0.07279404  1  0  -0.536364  0  1.974496  0  0  -0.497452  0  2.208901  0  0  -0.518048  0  2.202991  0  0  -0.289844  -0.483187  0  2.212458  0
O  O54  1  0.69068943  0.90090147  0.65841247  1  0  -0.301262  0  2.304874  0  0  -0.222821  0  2.551603  0  0  -0.24484  0  2.550693  0  0  -0.18189  -0.207577  0  2.551797  0
O  O55  1  0.19062642  0.65843393  0.90091195  1  0  -0.301392  0  2.30578  0  0  -0.222869  0  2.552166  0  0  -0.244886  0  2.551268  0  0  -0.181976  -0.207603  0  2.552346  0
F  F56  1  0.21544361  0.36075305  0.82810818  1  0  -0.184487  0  1.2585  0  0  -0.133706  0  1.437923  0  0  -0.144063  0  1.428558  0  0  -0.095151  -0.126224  0  1.444376  0
F  F57  1  0.71551853  0.82809481  0.36077431  1  0  -0.191706  0  1.266426  0  0  -0.133569  0  1.438115  0  0  -0.143922  0  1.428751  0  0  -0.095019  -0.126086  0  1.444568  0
F  F58  1  0.28164554  0.16652225  0.97388418  1  0  -0.14859  0  1.24645  0  0  -0.098789  0  1.404537  0  0  -0.107274  0  1.394823  0  0  -0.080762  -0.092563  0  1.411084  0
F  F59  1  0.78174820  0.97387599  0.16652932  1  0  -0.148362  0  1.245538  0  0  -0.099021  0  1.404445  0  0  -0.107503  0  1.394729  0  0  -0.081026  -0.092798  0  1.41099  0
F  F60  1  0.68157606  0.01768901  0.94707339  1  0  -0.148023  0  1.273448  0  0  -0.09862  0  1.440661  0  0  -0.106993  0  1.430184  0  0  -0.074879  -0.092533  0  1.447754  0
F  F61  1  0.18168340  0.94705695  0.01768338  1  0  -0.148235  0  1.2733  0  0  -0.098821  0  1.440472  0  0  -0.107194  0  1.429991  0  0  -0.075069  -0.092738  0  1.447564  0
F  F62  1  0.01648974  0.06831286  0.78062112  1  0  -0.173365  0  1.238726  0  0  -0.117711  0  1.402058  0  0  -0.127198  0  1.392756  0  0  -0.089607  -0.110828  0  1.40828  0
F  F63  1  0.51655012  0.78058387  0.06830066  1  0  -0.173009  0  1.238829  0  0  -0.117393  0  1.40226  0  0  -0.12688  0  1.392964  0  0  -0.08943  -0.110517  0  1.408482  0
