# generated using pymatgen
data_NiH8(C3N)4
_symmetry_space_group_name_H-M   'P 1'
_cell_length_a   6.72310259
_cell_length_b   13.23637763
_cell_length_c   13.63509563
_cell_angle_alpha   119.03667621
_cell_angle_beta   104.25640269
_cell_angle_gamma   89.98811865
_symmetry_Int_Tables_number   1
_chemical_formula_structural   NiH8(C3N)4
_chemical_formula_sum   'Ni2 H16 C24 N8'
_cell_volume   1017.95430443
_cell_formula_units_Z   2
loop_
 _symmetry_equiv_pos_site_id
 _symmetry_equiv_pos_as_xyz
  1  'x, y, z'
loop_
 _atom_site_type_symbol
 _atom_site_label
 _atom_site_symmetry_multiplicity
 _atom_site_fract_x
 _atom_site_fract_y
 _atom_site_fract_z
 _atom_site_occupancy
 _atom_site_hle17_bader_spin_density
 _atom_site_hle17_ddec_charge
 _atom_site_hle17_ddec_spin_density
 _atom_site_hle17_ddec_sum_bond_order
 _atom_site_hle17_magmom
 _atom_site_hse06_10hf_bader_spin_density
 _atom_site_hse06_10hf_ddec_charge
 _atom_site_hse06_10hf_ddec_spin_density
 _atom_site_hse06_10hf_ddec_sum_bond_order
 _atom_site_hse06_10hf_magmom
 _atom_site_hse06_bader_spin_density
 _atom_site_hse06_ddec_charge
 _atom_site_hse06_ddec_spin_density
 _atom_site_hse06_ddec_sum_bond_order
 _atom_site_hse06_magmom
 _atom_site_pbe_bader_spin_density
 _atom_site_pbe_cm5_charge
 _atom_site_pbe_ddec_charge
 _atom_site_pbe_ddec_spin_density
 _atom_site_pbe_ddec_sum_bond_order
 _atom_site_pbe_magmom
Ni  Ni0  1  0.99999872  0.50000101  0.50000021  1  0  0.413605  0  2.56799  0  0  0.327184  0  3.081877  0  0  0.394287  0  3.00612  0  0  0.687688  0.290014  0  3.132202  0
Ni  Ni1  1  0.49999805  0.50000039  0.50000046  1  0  0.413996  0  2.567956  0  0  0.326807  0  3.082754  0  0  0.394056  0  3.006725  0  0  0.687752  0.289471  0  3.133228  0
H  H2  1  0.86779499  0.09033050  0.09405444  1  0  0.081314  0  0.962973  0  0  0.09433  0  1.022479  0  0  0.096838  0  1.021176  0  0  0.095713  0.092398  0  1.023672  0
H  H3  1  0.77358972  0.90956720  0.90568616  1  0  0.081423  0  0.962763  0  0  0.09446  0  1.022151  0  0  0.096932  0  1.020888  0  0  0.095763  0.092548  0  1.023316  0
H  H4  1  0.72645383  0.50396604  0.09437520  1  0  0.08141  0  0.96285  0  0  0.094729  0  1.021978  0  0  0.097162  0  1.020753  0  0  0.096126  0.0928  0  1.023174  0
H  H5  1  0.63217297  0.49637775  0.90597131  1  0  0.080903  0  0.963146  0  0  0.094106  0  1.022481  0  0  0.096538  0  1.02126  0  0  0.095666  0.092235  0  1.023604  0
H  H6  1  0.13220288  0.90967116  0.90594492  1  0  0.081295  0  0.962978  0  0  0.094292  0  1.022504  0  0  0.096801  0  1.021201  0  0  0.095702  0.092361  0  1.023696  0
H  H7  1  0.22641120  0.09043444  0.09431503  1  0  0.081414  0  0.962774  0  0  0.094457  0  1.02216  0  0  0.096924  0  1.020902  0  0  0.09576  0.092546  0  1.023324  0
H  H8  1  0.27354841  0.49603474  0.90562500  1  0  0.08135  0  0.962855  0  0  0.094655  0  1.022  0  0  0.097098  0  1.020765  0  0  0.096117  0.092721  0  1.023203  0
H  H9  1  0.36783278  0.50362478  0.09402942  1  0  0.080846  0  0.963228  0  0  0.094061  0  1.022551  0  0  0.096493  0  1.02133  0  0  0.095656  0.092191  0  1.023673  0
H  H10  1  0.31352465  0.26548407  0.27074714  1  0  0.097951  0  0.955273  0  0  0.109082  0  1.017084  0  0  0.110758  0  1.014828  0  0  0.11931  0.107761  0  1.01907  0
H  H11  1  0.04202687  0.73517573  0.72923314  1  0  0.097944  0  0.954571  0  0  0.109169  0  1.016553  0  0  0.110839  0  1.014186  0  0  0.119372  0.107966  0  1.017888  0
H  H12  1  0.45787592  0.50588449  0.27071762  1  0  0.097999  0  0.955417  0  0  0.109325  0  1.017145  0  0  0.110974  0  1.014821  0  0  0.119182  0.108132  0  1.01846  0
H  H13  1  0.18654156  0.49462163  0.72933743  1  0  0.097534  0  0.955303  0  0  0.108887  0  1.016948  0  0  0.110488  0  1.0148  0  0  0.118924  0.107618  0  1.018875  0
H  H14  1  0.68647605  0.73451670  0.72925361  1  0  0.097964  0  0.955261  0  0  0.109099  0  1.017066  0  0  0.110775  0  1.01481  0  0  0.119317  0.107777  0  1.019053  0
H  H15  1  0.95797559  0.26482590  0.27076896  1  0  0.097974  0  0.954525  0  0  0.109172  0  1.016538  0  0  0.110841  0  1.014174  0  0  0.119362  0.10797  0  1.017874  0
H  H16  1  0.54211994  0.49410931  0.72927846  1  0  0.097981  0  0.955467  0  0  0.10931  0  1.01719  0  0  0.110958  0  1.014871  0  0  0.119197  0.108122  0  1.018495  0
H  H17  1  0.81345805  0.50538089  0.27066402  1  0  0.097516  0  0.955271  0  0  0.108883  0  1.016904  0  0  0.110484  0  1.014755  0  0  0.118943  0.107615  0  1.018831  0
C  C18  1  0.47994095  0.28078167  0.28790907  1  0  -0.018158  0  3.702884  0  0  -0.061912  0  3.965708  0  0  -0.054051  0  3.98377  0  0  0.009934  -0.068391  0  3.955057  0
C  C19  1  0.19129406  0.71956691  0.71204971  1  0  -0.020483  0  3.700912  0  0  -0.064765  0  3.964785  0  0  -0.056221  0  3.982145  0  0  0.010048  -0.068089  0  3.950955  0
C  C20  1  0.30870369  0.50759730  0.28800153  1  0  -0.021881  0  3.702766  0  0  -0.066164  0  3.96642  0  0  -0.057606  0  3.983817  0  0  0.009442  -0.069492  0  3.952531  0
C  C21  1  0.02008526  0.49269238  0.71207090  1  0  -0.018104  0  3.701429  0  0  -0.062003  0  3.964732  0  0  -0.05409  0  3.982811  0  0  0.010226  -0.068543  0  3.954105  0
C  C22  1  0.52005975  0.71921909  0.71209240  1  0  -0.018207  0  3.702921  0  0  -0.061965  0  3.965753  0  0  -0.054103  0  3.983814  0  0  0.009901  -0.068442  0  3.955104  0
C  C23  1  0.80870839  0.28043472  0.28795239  1  0  -0.020603  0  3.700942  0  0  -0.064877  0  3.964829  0  0  -0.056328  0  3.982193  0  0  0.01  -0.068202  0  3.950997  0
C  C24  1  0.69129567  0.49239822  0.71199727  1  0  -0.021782  0  3.702825  0  0  -0.066057  0  3.966469  0  0  -0.0575  0  3.983864  0  0  0.009473  -0.069384  0  3.952581  0
C  C25  1  0.97991148  0.50730490  0.28792769  1  0  -0.017999  0  3.701337  0  0  -0.061936  0  3.964635  0  0  -0.054018  0  3.98271  0  0  0.01023  -0.068477  0  3.954009  0
C  C26  1  0.61139709  0.21468902  0.22222606  1  0  -0.056679  0  3.871103  0  0  -0.040939  0  4.112113  0  0  -0.048878  0  4.139107  0  0  -0.034022  -0.035494  0  4.093744  0
C  C27  1  0.38860361  0.78531175  0.77777468  1  0  -0.056668  0  3.871209  0  0  -0.040925  0  4.11222  0  0  -0.048862  0  4.139212  0  0  -0.034004  -0.035485  0  4.093857  0
C  C28  1  0.11142949  0.50768619  0.22227912  1  0  -0.055538  0  3.869505  0  0  -0.040407  0  4.11121  0  0  -0.04832  0  4.138171  0  0  -0.033735  -0.034969  0  4.092865  0
C  C29  1  0.88856943  0.49230760  0.77771733  1  0  -0.055412  0  3.869549  0  0  -0.040348  0  4.11125  0  0  -0.048256  0  4.138204  0  0  -0.03371  -0.034904  0  4.09291  0
C  C30  1  0.55517150  0.10568194  0.11025226  1  0  0.068319  0  3.83909  0  0  0.082802  0  4.068138  0  0  0.083695  0  4.094121  0  0  -0.012581  0.081505  0  4.051501  0
C  C31  1  0.44482789  0.89431971  0.88974802  1  0  0.068304  0  3.839155  0  0  0.082773  0  4.068213  0  0  0.083664  0  4.094199  0  0  -0.012597  0.081479  0  4.051577  0
C  C32  1  0.05523370  0.50470915  0.11029896  1  0  0.066635  0  3.841034  0  0  0.081447  0  4.069919  0  0  0.082332  0  4.095885  0  0  -0.013092  0.08015  0  4.053299  0
C  C33  1  0.94476873  0.49528638  0.88969948  1  0  0.066427  0  3.841187  0  0  0.081374  0  4.069894  0  0  0.082257  0  4.09586  0  0  -0.013163  0.080052  0  4.053306  0
C  C34  1  0.70541920  0.05136802  0.05354460  1  0  -0.112234  0  3.769151  0  0  -0.130917  0  4.013435  0  0  -0.133844  0  4.03555  0  0  -0.095344  -0.128838  0  3.999189  0
C  C35  1  0.65177914  0.94857737  0.94627575  1  0  -0.112153  0  3.767923  0  0  -0.130768  0  4.012256  0  0  -0.133739  0  4.034329  0  0  -0.095267  -0.128952  0  3.9978  0
C  C36  1  0.84822634  0.50237515  0.05376060  1  0  -0.110592  0  3.766188  0  0  -0.12951  0  4.010444  0  0  -0.132433  0  4.032508  0  0  -0.094988  -0.127701  0  3.996004  0
C  C37  1  0.79451614  0.49777610  0.94643031  1  0  -0.112139  0  3.768709  0  0  -0.131118  0  4.012902  0  0  -0.133969  0  4.035015  0  0  -0.095649  -0.129084  0  3.998662  0
C  C38  1  0.29458020  0.94863364  0.94645568  1  0  -0.112164  0  3.769222  0  0  -0.130825  0  4.013506  0  0  -0.13375  0  4.035619  0  0  -0.095306  -0.128746  0  3.999262  0
C  C39  1  0.34822026  0.05142430  0.05372379  1  0  -0.112173  0  3.768007  0  0  -0.130802  0  4.012334  0  0  -0.133768  0  4.034407  0  0  -0.095279  -0.128985  0  3.997878  0
C  C40  1  0.15177500  0.49762213  0.94623855  1  0  -0.110476  0  3.766298  0  0  -0.129413  0  4.010503  0  0  -0.132345  0  4.032565  0  0  -0.094972  -0.127593  0  3.996071  0
C  C41  1  0.20548675  0.50222119  0.05356830  1  0  -0.112035  0  3.768769  0  0  -0.130991  0  4.012998  0  0  -0.133843  0  4.035118  0  0  -0.095594  -0.128963  0  3.998744  0
N  N42  1  0.59177373  0.37759931  0.38468115  1  0  -0.156496  0  3.391802  0  0  -0.111336  0  3.702391  0  0  -0.134129  0  3.723724  0  0  -0.27823  -0.097987  0  3.690032  0
N  N43  1  0.20625050  0.62260458  0.61529410  1  0  -0.157655  0  3.393939  0  0  -0.112856  0  3.705422  0  0  -0.13539  0  3.726367  0  0  -0.278609  -0.099462  0  3.691849  0
N  N44  1  0.29368951  0.50734551  0.38472152  1  0  -0.157109  0  3.393695  0  0  -0.111743  0  3.704327  0  0  -0.134368  0  3.725355  0  0  -0.277822  -0.098246  0  3.690665  0
N  N45  1  0.90830200  0.49282519  0.61531436  1  0  -0.15604  0  3.391214  0  0  -0.110973  0  3.701568  0  0  -0.133761  0  3.722922  0  0  -0.278119  -0.09768  0  3.689261  0
N  N46  1  0.40822544  0.62240147  0.61531941  1  0  -0.156441  0  3.391826  0  0  -0.111291  0  3.702423  0  0  -0.13409  0  3.723753  0  0  -0.278199  -0.097943  0  3.690065  0
N  N47  1  0.79374866  0.37739619  0.38470718  1  0  -0.157501  0  3.393932  0  0  -0.112683  0  3.705359  0  0  -0.135236  0  3.726329  0  0  -0.278517  -0.09929  0  3.691784  0
N  N48  1  0.70630943  0.49265438  0.61527932  1  0  -0.157245  0  3.39373  0  0  -0.111862  0  3.704366  0  0  -0.134487  0  3.725393  0  0  -0.277869  -0.098366  0  3.690706  0
N  N49  1  0.09169564  0.50717560  0.38468528  1  0  -0.156138  0  3.391254  0  0  -0.111018  0  3.701566  0  0  -0.133807  0  3.722921  0  0  -0.278138  -0.097724  0  3.689257  0
