# generated using pymatgen
data_Cu3H12C17(IN2)3
_symmetry_space_group_name_H-M   'P 1'
_cell_length_a   7.57264614
_cell_length_b   9.63251608
_cell_length_c   15.60555793
_cell_angle_alpha   87.41067777
_cell_angle_beta   78.60965380
_cell_angle_gamma   84.39211151
_symmetry_Int_Tables_number   1
_chemical_formula_structural   Cu3H12C17(IN2)3
_chemical_formula_sum   'Cu6 H24 C34 I6 N12'
_cell_volume   1110.17466726
_cell_formula_units_Z   2
loop_
 _symmetry_equiv_pos_site_id
 _symmetry_equiv_pos_as_xyz
  1  'x, y, z'
loop_
 _atom_site_type_symbol
 _atom_site_label
 _atom_site_symmetry_multiplicity
 _atom_site_fract_x
 _atom_site_fract_y
 _atom_site_fract_z
 _atom_site_occupancy
 _atom_site_hle17_bader_spin_density
 _atom_site_hle17_ddec_charge
 _atom_site_hle17_ddec_spin_density
 _atom_site_hle17_ddec_sum_bond_order
 _atom_site_hle17_magmom
 _atom_site_hse06_10hf_bader_spin_density
 _atom_site_hse06_10hf_ddec_charge
 _atom_site_hse06_10hf_ddec_spin_density
 _atom_site_hse06_10hf_ddec_sum_bond_order
 _atom_site_hse06_10hf_magmom
 _atom_site_hse06_bader_spin_density
 _atom_site_hse06_ddec_charge
 _atom_site_hse06_ddec_spin_density
 _atom_site_hse06_ddec_sum_bond_order
 _atom_site_hse06_magmom
 _atom_site_pbe_bader_spin_density
 _atom_site_pbe_cm5_charge
 _atom_site_pbe_ddec_charge
 _atom_site_pbe_ddec_spin_density
 _atom_site_pbe_ddec_sum_bond_order
 _atom_site_pbe_magmom
Cu  Cu0  1  0.46295106  0.42363333  0.44452094  1  0  0.293419  0  2.200652  0  0  0.206341  0  2.692657  0  0  0.213481  0  2.638904  0  0  0.334066  0.206203  0  2.725664  0
Cu  Cu1  1  0.53704189  0.57634829  0.55547812  1  0  0.293395  0  2.200486  0  0  0.206276  0  2.692463  0  0  0.213501  0  2.638581  0  0  0.333977  0.206151  0  2.725394  0
Cu  Cu2  1  0.30334423  0.52702695  0.03408935  1  0  0.275711  0  2.092092  0  0  0.176558  0  2.580915  0  0  0.196878  0  2.513431  0  0  0.268984  0.165496  0  2.623966  0
Cu  Cu3  1  0.69665341  0.47298008  0.96591431  1  0  0.275751  0  2.092061  0  0  0.176532  0  2.580913  0  0  0.196875  0  2.51341  0  0  0.268912  0.165451  0  2.624006  0
Cu  Cu4  1  0.04234960  0.62406809  0.96329819  1  0  0.218027  0  2.266133  0  0  0.155313  0  2.730648  0  0  0.165836  0  2.675933  0  0  0.244843  0.151653  0  2.764891  0
Cu  Cu5  1  0.95766346  0.37595690  0.03669938  1  0  0.21808  0  2.26578  0  0  0.155319  0  2.730336  0  0  0.16584  0  2.675642  0  0  0.244799  0.15171  0  2.764496  0
H  H6  1  0.81491206  0.88487960  0.93193424  1  0  0.088415  0  0.939464  0  0  0.095815  0  1.003906  0  0  0.099381  0  1.000661  0  0  0.103497  0.091385  0  1.009777  0
H  H7  1  0.18516109  0.11517322  0.06806894  1  0  0.088347  0  0.939576  0  0  0.095883  0  1.003906  0  0  0.099402  0  1.000709  0  0  0.10356  0.091454  0  1.009772  0
H  H8  1  0.72007026  0.01299280  0.80651473  1  0  0.107587  0  0.959796  0  0  0.116257  0  1.023254  0  0  0.120281  0  1.020986  0  0  0.101275  0.113353  0  1.024999  0
H  H9  1  0.27995399  0.98704000  0.19348894  1  0  0.107672  0  0.959822  0  0  0.116284  0  1.023333  0  0  0.120302  0  1.021078  0  0  0.101288  0.113384  0  1.02507  0
H  H10  1  0.05227769  0.69700102  0.64117778  1  0  0.096819  0  0.996926  0  0  0.107494  0  1.061451  0  0  0.110343  0  1.06105  0  0  0.090187  0.105661  0  1.061416  0
H  H11  1  0.94768129  0.30298936  0.35882563  1  0  0.096892  0  0.9969  0  0  0.107573  0  1.061303  0  0  0.110423  0  1.060898  0  0  0.090238  0.105732  0  1.061296  0
H  H12  1  0.12751485  0.58210025  0.77355770  1  0  0.068641  0  0.977122  0  0  0.073467  0  1.053618  0  0  0.076058  0  1.051932  0  0  0.089739  0.071772  0  1.054287  0
H  H13  1  0.87248003  0.41789835  0.22644643  1  0  0.068537  0  0.977161  0  0  0.073386  0  1.053647  0  0  0.075978  0  1.05195  0  0  0.089733  0.071694  0  1.054313  0
H  H14  1  0.70870706  0.13198330  0.68892884  1  0  0.091518  0  0.957853  0  0  0.103901  0  1.01689  0  0  0.106918  0  1.015141  0  0  0.101013  0.101778  0  1.018107  0
H  H15  1  0.29126695  0.86803018  0.31106575  1  0  0.091475  0  0.957696  0  0  0.103811  0  1.016803  0  0  0.106832  0  1.015047  0  0  0.100974  0.101687  0  1.018026  0
H  H16  1  0.61382020  0.23565652  0.55591900  1  0  0.087095  0  0.994771  0  0  0.08869  0  1.078274  0  0  0.094664  0  1.071389  0  0  0.086295  0.083902  0  1.083729  0
H  H17  1  0.38616529  0.76434967  0.44406872  1  0  0.087052  0  0.994921  0  0  0.088703  0  1.078355  0  0  0.094699  0  1.071456  0  0  0.086331  0.083944  0  1.083744  0
H  H18  1  0.82703721  0.85519093  0.42017161  1  0  0.077038  0  0.996803  0  0  0.086504  0  1.064367  0  0  0.089846  0  1.062329  0  0  0.084828  0.083618  0  1.066989  0
H  H19  1  0.17294373  0.14478435  0.57983420  1  0  0.077146  0  0.996664  0  0  0.086599  0  1.064239  0  0  0.08994  0  1.062197  0  0  0.084859  0.08371  0  1.066866  0
H  H20  1  0.91472376  0.75336985  0.55006642  1  0  0.096867  0  0.959919  0  0  0.106014  0  1.024437  0  0  0.109578  0  1.022009  0  0  0.0984  0.103313  0  1.026529  0
H  H21  1  0.08524354  0.24661488  0.44994953  1  0  0.09687  0  0.9599  0  0  0.105979  0  1.02449  0  0  0.109544  0  1.022062  0  0  0.098412  0.103283  0  1.026573  0
H  H22  1  0.48926621  0.29860888  0.13417020  1  0  0.100885  0  0.975638  0  0  0.104701  0  1.046691  0  0  0.109163  0  1.042704  0  0  0.104604  0.101376  0  1.049877  0
H  H23  1  0.51076026  0.70137012  0.86582112  1  0  0.100915  0  0.975726  0  0  0.104713  0  1.046805  0  0  0.109173  0  1.042818  0  0  0.104637  0.101391  0  1.049993  0
H  H24  1  0.15559270  0.66502888  0.19523860  1  0  0.090324  0  0.952933  0  0  0.095363  0  1.021513  0  0  0.099658  0  1.017604  0  0  0.106958  0.092168  0  1.024524  0
H  H25  1  0.84446132  0.33495520  0.80475921  1  0  0.090396  0  0.952741  0  0  0.095438  0  1.021325  0  0  0.09973  0  1.017416  0  0  0.106967  0.092249  0  1.024334  0
H  H26  1  0.19136816  0.63486654  0.35324787  1  0  0.087401  0  0.940096  0  0  0.097261  0  1.001638  0  0  0.100276  0  0.999682  0  0  0.11359  0.094778  0  1.003913  0
H  H27  1  0.80863823  0.36512071  0.64675338  1  0  0.087624  0  0.94013  0  0  0.097434  0  1.001691  0  0  0.100467  0  0.999718  0  0  0.113677  0.094932  0  1.003987  0
H  H28  1  0.73708188  0.94579064  0.30755362  1  0  0.308768  0  0.839589  0  0  0.298888  0  0.883757  0  0  0.305921  0  0.878794  0  0  0.352635  0.292375  0  0.889543  0
H  H29  1  0.26290721  0.05420126  0.69244275  1  0  0.308963  0  0.839363  0  0  0.299023  0  0.883581  0  0  0.306062  0  0.87862  0  0  0.352661  0.292502  0  0.889366  0
C  C30  1  0.86460219  0.84706891  0.86593217  1  0  0.134631  0  3.663288  0  0  0.105248  0  3.913742  0  0  0.113185  0  3.928729  0  0  0.040819  0.100643  0  3.902804  0
C  C31  1  0.13543803  0.15295992  0.13406681  1  0  0.134862  0  3.663649  0  0  0.105343  0  3.914128  0  0  0.113322  0  3.929109  0  0  0.040846  0.100721  0  3.903262  0
C  C32  1  0.81339891  0.91943762  0.79423824  1  0  -0.162145  0  3.70709  0  0  -0.182362  0  3.956909  0  0  -0.190015  0  3.976478  0  0  -0.089179  -0.177276  0  3.94286  0
C  C33  1  0.18662431  0.08058439  0.20575689  1  0  -0.162185  0  3.707293  0  0  -0.182396  0  3.957282  0  0  -0.190051  0  3.976847  0  0  -0.08914  -0.177318  0  3.943234  0
C  C34  1  0.87675560  0.86829979  0.70961238  1  0  0.078308  0  3.771115  0  0  0.089568  0  4.006282  0  0  0.094524  0  4.028486  0  0  -0.000852  0.086731  0  3.990989  0
C  C35  1  0.12322701  0.13171275  0.29037915  1  0  0.07845  0  3.770533  0  0  0.089645  0  4.005711  0  0  0.094601  0  4.027915  0  0  -0.000863  0.08681  0  3.990429  0
C  C36  1  0.99375871  0.74480030  0.70347456  1  0  -0.160647  0  3.726367  0  0  -0.181732  0  3.975852  0  0  -0.190396  0  3.999847  0  0  -0.097832  -0.176283  0  3.959551  0
C  C37  1  0.00621579  0.25521440  0.29652446  1  0  -0.160942  0  3.726386  0  0  -0.181987  0  3.976009  0  0  -0.190669  0  4.000034  0  0  -0.097904  -0.176513  0  3.959627  0
C  C38  1  0.03847885  0.67887972  0.77790136  1  0  0.119307  0  3.702533  0  0  0.089578  0  3.95494  0  0  0.095261  0  3.974487  0  0  0.02521  0.085644  0  3.942551  0
C  C39  1  0.96151262  0.32113443  0.22210049  1  0  0.119654  0  3.702817  0  0  0.089814  0  3.955229  0  0  0.095501  0  3.974767  0  0  0.025183  0.085878  0  3.942858  0
C  C40  1  0.82280696  0.93500465  0.63056013  1  0  0.052569  0  3.750153  0  0  0.064747  0  3.984005  0  0  0.065333  0  4.005876  0  0  -0.007517  0.064266  0  3.969344  0
C  C41  1  0.17718239  0.06499619  0.36945196  1  0  0.05231  0  3.749437  0  0  0.064616  0  3.983176  0  0  0.065208  0  4.005042  0  0  -0.007471  0.064137  0  3.968516  0
C  C42  1  0.73639029  0.07136216  0.62967271  1  0  -0.10578  0  3.720418  0  0  -0.126295  0  3.970319  0  0  -0.128689  0  3.990328  0  0  -0.090123  -0.12487  0  3.956849  0
C  C43  1  0.26359230  0.92862885  0.37033244  1  0  -0.105598  0  3.720076  0  0  -0.126072  0  3.969948  0  0  -0.128469  0  3.989967  0  0  -0.090013  -0.124653  0  3.956486  0
C  C44  1  0.68317033  0.13071403  0.55477808  1  0  -0.076327  0  3.711326  0  0  -0.098512  0  3.961831  0  0  -0.099851  0  3.98088  0  0  -0.088317  -0.097136  0  3.948972  0
C  C45  1  0.31682486  0.86927178  0.44521941  1  0  -0.076373  0  3.711431  0  0  -0.098646  0  3.961928  0  0  -0.100003  0  3.980924  0  0  -0.088403  -0.097272  0  3.949083  0
C  C46  1  0.71526818  0.05454156  0.47748648  1  0  -0.014847  0  3.810539  0  0  0.005589  0  4.044225  0  0  0.00249  0  4.066836  0  0  -0.009594  0.00752  0  4.028757  0
C  C47  1  0.28470830  0.94545193  0.52250353  1  0  -0.01459  0  3.810302  0  0  0.00586  0  4.044037  0  0  0.002765  0  4.066652  0  0  -0.009579  0.007784  0  4.028553  0
C  C48  1  0.80301924  0.91943066  0.47772715  1  0  -0.078478  0  3.754165  0  0  -0.103457  0  4.004811  0  0  -0.104515  0  4.025443  0  0  -0.090085  -0.102574  0  3.990859  0
C  C49  1  0.19696648  0.08055425  0.52228124  1  0  -0.07873  0  3.754416  0  0  -0.10363  0  4.004992  0  0  -0.10469  0  4.025619  0  0  -0.090126  -0.102745  0  3.991032  0
C  C50  1  0.85428456  0.86072369  0.55256299  1  0  -0.08623  0  3.714226  0  0  -0.105398  0  3.964455  0  0  -0.107676  0  3.983965  0  0  -0.08601  -0.104452  0  3.95204  0
C  C51  1  0.14568726  0.13927174  0.44745616  1  0  -0.086043  0  3.714362  0  0  -0.105255  0  3.964557  0  0  -0.107535  0  3.984061  0  0  -0.086031  -0.104318  0  3.952146  0
C  C52  1  0.65521932  0.11119056  0.39925550  1  0  0.335229  0  3.729542  0  0  0.298212  0  3.994858  0  0  0.313507  0  4.00943  0  0  0.236484  0.288237  0  3.984616  0
C  C53  1  0.34476524  0.88880843  0.60073703  1  0  0.335321  0  3.729613  0  0  0.298131  0  3.995096  0  0  0.313435  0  4.009679  0  0  0.236466  0.288172  0  3.984799  0
C  C54  1  0.53997594  0.23696451  0.30372640  1  0  0.251445  0  3.792099  0  0  0.230233  0  4.061422  0  0  0.237753  0  4.078816  0  0  0.214103  0.225396  0  4.049972  0
C  C55  1  0.46002971  0.76298327  0.69628531  1  0  0.252277  0  3.791756  0  0  0.230955  0  4.061211  0  0  0.238452  0  4.078588  0  0  0.21437  0.226151  0  4.049795  0
C  C56  1  0.43847289  0.35626413  0.27040408  1  0  0.12476  0  3.732275  0  0  0.125853  0  3.970139  0  0  0.129678  0  3.985244  0  0  0.122097  0.122849  0  3.96082  0
C  C57  1  0.56154991  0.64370793  0.72960121  1  0  0.12475  0  3.732372  0  0  0.1257  0  3.970445  0  0  0.129612  0  3.985454  0  0  0.122134  0.122586  0  3.961278  0
C  C58  1  0.42048762  0.37331475  0.18320968  1  0  0.071286  0  3.603969  0  0  0.034839  0  3.84629  0  0  0.040733  0  3.857775  0  0  0.053  0.030058  0  3.839822  0
C  C59  1  0.57950730  0.62668486  0.81679312  1  0  0.071325  0  3.604288  0  0  0.034857  0  3.846587  0  0  0.040719  0  3.858048  0  0  0.05295  0.030103  0  3.84017  0
C  C60  1  0.23710257  0.57639785  0.21784902  1  0  0.073744  0  3.649933  0  0  0.039888  0  3.902747  0  0  0.046244  0  3.9136  0  0  0.039435  0.035156  0  3.896037  0
C  C61  1  0.76291873  0.42360444  0.78215271  1  0  0.073596  0  3.648848  0  0  0.039689  0  3.901641  0  0  0.046045  0  3.912506  0  0  0.039388  0.034952  0  3.894922  0
C  C62  1  0.25856595  0.56024939  0.30410735  1  0  0.081026  0  3.684279  0  0  0.052527  0  3.940292  0  0  0.05592  0  3.952242  0  0  0.043903  0.049344  0  3.934118  0
C  C63  1  0.74143971  0.43974984  0.69587745  1  0  0.080815  0  3.684024  0  0  0.052305  0  3.940021  0  0  0.055698  0  3.951968  0  0  0.043898  0.049144  0  3.933833  0
I  I64  1  0.74781963  0.57341286  0.40645049  1  0  -0.441188  0  1.441082  0  0  -0.398642  0  1.841425  0  0  -0.418273  0  1.808332  0  0  -0.217958  -0.384577  0  1.863242  0
I  I65  1  0.25216880  0.42658019  0.59354909  1  0  -0.441212  0  1.441102  0  0  -0.398675  0  1.841472  0  0  -0.418282  0  1.808338  0  0  -0.217967  -0.384608  0  1.863296  0
I  I66  1  0.26283536  0.79656179  0.01307644  1  0  -0.428228  0  1.338844  0  0  -0.376177  0  1.693727  0  0  -0.400636  0  1.662649  0  0  -0.237931  -0.358715  0  1.719308  0
I  I67  1  0.73716191  0.20345412  0.98691150  1  0  -0.428202  0  1.338874  0  0  -0.376151  0  1.693781  0  0  -0.400612  0  1.662708  0  0  -0.237881  -0.358692  0  1.719363  0
I  I68  1  0.75547612  0.61755860  0.08968582  1  0  -0.32054  0  1.704922  0  0  -0.269225  0  2.12263  0  0  -0.288794  0  2.083576  0  0  -0.171581  -0.255921  0  2.152622  0
I  I69  1  0.24454294  0.38245598  0.91030918  1  0  -0.320568  0  1.704839  0  0  -0.269236  0  2.122528  0  0  -0.288806  0  2.083478  0  0  -0.171587  -0.255936  0  2.152509  0
N  N70  1  0.97430497  0.72727264  0.85888779  1  0  -0.253443  0  3.363064  0  0  -0.179597  0  3.643531  0  0  -0.193477  0  3.65407  0  0  -0.363908  -0.171074  0  3.635419  0
N  N71  1  0.02572597  0.27274384  0.14112377  1  0  -0.253822  0  3.363516  0  0  -0.179886  0  3.643976  0  0  -0.193762  0  3.654499  0  0  -0.363955  -0.171376  0  3.635877  0
N  N72  1  0.67906000  0.04363894  0.32204700  1  0  -0.214613  0  3.444629  0  0  -0.155818  0  3.689367  0  0  -0.169487  0  3.703369  0  0  -0.255701  -0.146305  0  3.68092  0
N  N73  1  0.32094299  0.95634678  0.67794295  1  0  -0.215048  0  3.445304  0  0  -0.156101  0  3.690043  0  0  -0.169807  0  3.70409  0  0  -0.255808  -0.14656  0  3.68155  0
N  N74  1  0.60749874  0.12074398  0.26101239  1  0  -0.20284  0  2.823722  0  0  -0.200746  0  3.093209  0  0  -0.204176  0  3.105519  0  0  -0.204201  -0.199209  0  3.086045  0
N  N75  1  0.39250794  0.87921948  0.73896720  1  0  -0.203039  0  2.824811  0  0  -0.200949  0  3.094313  0  0  -0.204373  0  3.106639  0  0  -0.204334  -0.199423  0  3.087141  0
N  N76  1  0.56609688  0.23563951  0.38818717  1  0  -0.411178  0  3.211985  0  0  -0.352842  0  3.504721  0  0  -0.368137  0  3.511578  0  0  -0.357923  -0.343547  0  3.499981  0
N  N77  1  0.43388846  0.76436356  0.61183152  1  0  -0.411753  0  3.211682  0  0  -0.353229  0  3.50437  0  0  -0.368542  0  3.511243  0  0  -0.357932  -0.343953  0  3.499601  0
N  N78  1  0.36121808  0.45169911  0.33122558  1  0  -0.245381  0  3.275159  0  0  -0.189601  0  3.559228  0  0  -0.1916  0  3.561527  0  0  -0.334843  -0.18927  0  3.558125  0
N  N79  1  0.63877032  0.54829091  0.66877732  1  0  -0.245289  0  3.275717  0  0  -0.189383  0  3.559703  0  0  -0.191462  0  3.562044  0  0  -0.334855  -0.189  0  3.558564  0
N  N80  1  0.32099011  0.48428679  0.15653985  1  0  -0.208961  0  3.377368  0  0  -0.128388  0  3.65531  0  0  -0.137152  0  3.661138  0  0  -0.352435  -0.123441  0  3.651626  0
N  N81  1  0.67902115  0.51573999  0.84345006  1  0  -0.209076  0  3.377332  0  0  -0.128332  0  3.655085  0  0  -0.137101  0  3.66092  0  0  -0.352389  -0.123369  0  3.651425  0
