# generated using pymatgen
data_Zn2H21C42N2O13F2
_symmetry_space_group_name_H-M   'P 1'
_cell_length_a   16.60831867
_cell_length_b   17.91111823
_cell_length_c   28.93626544
_cell_angle_alpha   89.90154818
_cell_angle_beta   90.07283409
_cell_angle_gamma   89.97454560
_symmetry_Int_Tables_number   1
_chemical_formula_structural   Zn2H21C42N2O13F2
_chemical_formula_sum   'Zn4 H42 C84 N4 O26 F4'
_cell_volume   8607.75335083
_cell_formula_units_Z   2
loop_
 _symmetry_equiv_pos_site_id
 _symmetry_equiv_pos_as_xyz
  1  'x, y, z'
loop_
 _atom_site_type_symbol
 _atom_site_label
 _atom_site_symmetry_multiplicity
 _atom_site_fract_x
 _atom_site_fract_y
 _atom_site_fract_z
 _atom_site_occupancy
 _atom_site_pbe_bader_charge
 _atom_site_pbe_bader_spin_density
 _atom_site_pbe_cm5_charge
 _atom_site_pbe_ddec_charge
 _atom_site_pbe_ddec_spin_density
 _atom_site_pbe_ddec_sum_bond_order
 _atom_site_pbe_magmom
Zn  Zn0  1  0.58389640  0.50440433  0.49622016  1  1.288296  0  0.679577  0.835438  0  2.399529  0
Zn  Zn1  1  0.41000033  0.50340693  0.49951184  1  1.287902  0  0.678183  0.836384  0  2.378316  0
Zn  Zn2  1  0.41583656  0.50762232  0.88183908  1  1.29013  0  0.680015  0.838386  0  2.409535  0
Zn  Zn3  1  0.59028939  0.50589318  0.88087182  1  1.291884  0  0.677935  0.834485  0  2.393738  0
H  H4  1  0.28105488  0.58885475  0.54102850  1  0.103669  0  0.129655  0.104349  0  0.973623  0
H  H5  1  0.13095223  0.59496863  0.54102370  1  0.110865  0  0.11956  0.134819  0  0.978421  0
H  H6  1  0.13178376  0.39125650  0.46000292  1  0.128129  0  0.125493  0.154516  0  0.96273  0
H  H7  1  0.86711062  0.56390890  0.56238222  1  0.102799  0  0.124674  0.153457  0  0.964641  0
H  H8  1  0.70833480  0.43965954  0.44137196  1  0.125015  0  0.127817  0.103495  0  0.978493  0
H  H9  1  0.85858432  0.43244125  0.43666092  1  0.072727  0  0.11877  0.134146  0  0.979493  0
H  H10  1  0.62264656  0.73576698  0.48753518  1  0.090045  0  0.107329  0.113696  0  0.991462  0
H  H11  1  0.63058972  0.87530618  0.48850048  1  0.095959  0  0.104703  0.111891  0  0.995393  0
H  H12  1  0.37269594  0.88469283  0.50903368  1  0.098766  0  0.113335  0.13638  0  0.97695  0
H  H13  1  0.63491304  0.12727989  0.51026737  1  0.083399  0  0.115358  0.139495  0  0.974252  0
H  H14  1  0.37382203  0.25998646  0.49089169  1  0.073838  0  0.106369  0.108021  0  1.006618  0
H  H15  1  0.37692960  0.12160489  0.48945279  1  0.050588  0  0.106534  0.11467  0  0.991756  0
H  H16  1  0.59799149  0.40053423  0.77641893  1  0.094205  0  0.114575  0.152527  0  0.999664  0
H  H17  1  0.60155367  0.40133302  0.60378982  1  0.102522  0  0.112945  0.148104  0  1.000855  0
H  H18  1  0.36964311  0.50168259  0.02774674  1  0.110693  0  0.104758  0.10787  0  0.998849  0
H  H19  1  0.36802796  0.50369961  0.11417039  1  0.075139  0  0.103727  0.111204  0  0.996584  0
H  H20  1  0.62850022  0.50194117  0.11432218  1  0.103276  0  0.113566  0.136566  0  0.977571  0
H  H21  1  0.36842684  0.52061268  0.26549235  1  0.09422  0  0.113663  0.136548  0  0.977662  0
H  H22  1  0.62389285  0.48019127  0.35180157  1  0.046219  0  0.103945  0.106153  0  0.99994  0
H  H23  1  0.62562834  0.48237656  0.26540454  1  0.076449  0  0.10377  0.111189  0  0.996204  0
H  H24  1  0.71843537  0.59423278  0.84143669  1  0.134718  0  0.128335  0.102609  0  0.976313  0
H  H25  1  0.86863997  0.60178237  0.84225946  1  0.084804  0  0.118819  0.13456  0  0.97989  0
H  H26  1  0.86925414  0.39169696  0.91721273  1  0.110906  0  0.126178  0.155982  0  0.962275  0
H  H27  1  0.13151013  0.57252914  0.81999247  1  0.116065  0  0.12426  0.153156  0  0.964232  0
H  H28  1  0.29244684  0.44250931  0.93801699  1  0.122296  0  0.127804  0.104491  0  0.979237  0
H  H29  1  0.14219974  0.43529156  0.94357755  1  0.096661  0  0.118492  0.133924  0  0.97926  0
H  H30  1  0.38256861  0.73646382  0.87597724  1  0.116122  0  0.107688  0.114251  0  0.990999  0
H  H31  1  0.37264798  0.87588882  0.87287655  1  0.061247  0  0.104839  0.112166  0  0.995189  0
H  H32  1  0.63259893  0.88915501  0.87935356  1  0.084003  0  0.11326  0.136001  0  0.977244  0
H  H33  1  0.36525265  0.12984145  0.87697159  1  0.080105  0  0.114597  0.138111  0  0.974871  0
H  H34  1  0.62922857  0.26127883  0.87580999  1  0.087111  0  0.106488  0.107799  0  1.005134  0
H  H35  1  0.62565112  0.12275853  0.87596399  1  0.072941  0  0.106923  0.114756  0  0.990842  0
H  H36  1  0.34456290  0.37848531  0.47078996  1  0.647323  0  0.310798  0.367211  0  0.973127  0
H  H37  1  0.65501846  0.55483477  0.57317644  1  0.684974  0  0.31237  0.373575  0  0.9603  0
H  H38  1  0.36232665  0.68720205  0.50977634  1  0.630406  0  0.297884  0.343356  0  0.992572  0
H  H39  1  0.63184966  0.32442684  0.51483378  1  0.617565  0  0.301537  0.348032  0  0.980556  0
H  H40  1  0.63179808  0.50108443  0.99213591  1  0.636488  0  0.301529  0.354095  0  0.971046  0
H  H41  1  0.36569487  0.52127358  0.38771894  1  0.631013  0  0.301979  0.354195  0  0.968919  0
H  H42  1  0.65713387  0.37734920  0.90306345  1  0.658309  0  0.309541  0.364255  0  0.975914  0
H  H43  1  0.34198765  0.55901372  0.80616046  1  0.67294  0  0.310397  0.372991  0  0.963099  0
H  H44  1  0.64656907  0.69176552  0.88375909  1  0.644058  0  0.299471  0.346369  0  0.986341  0
H  H45  1  0.36836674  0.32721863  0.87510292  1  0.629577  0  0.301758  0.349359  0  0.9811  0
C  C46  1  0.49353857  0.64967578  0.49707173  1  1.531933  0  0.216541  0.611069  0  4.138654  0
C  C47  1  0.49878645  0.50787188  0.58861810  1  1.619457  0  0.231305  0.639234  0  4.136976  0
C  C48  1  0.49880228  0.35456128  0.50164432  1  1.494888  0  0.220784  0.618451  0  4.122459  0
C  C49  1  0.49849373  0.49769270  0.40809943  1  1.438926  0  0.216523  0.611607  0  4.14081  0
C  C50  1  0.51367291  0.65258884  0.88182187  1  1.524086  0  0.216048  0.61031  0  4.143605  0
C  C51  1  0.49780909  0.51169230  0.79020932  1  1.64598  0  0.230792  0.639267  0  4.129396  0
C  C52  1  0.50321604  0.35635614  0.87677513  1  1.440698  0  0.2201  0.614838  0  4.129891  0
C  C53  1  0.49664320  0.49925751  0.97160911  1  1.448502  0  0.216373  0.6107  0  4.141656  0
C  C54  1  0.24516424  0.54675861  0.52328607  1  0.391106  0  0.051231  0.121018  0  3.965432  0
C  C55  1  0.16228713  0.54999826  0.52335762  1  0.075313  0  -0.086536  -0.205952  0  3.943073  0
C  C56  1  0.11905033  0.49372060  0.49954903  1  0.150395  0  0.022271  0.197289  0  4.128554  0
C  C57  1  0.16203115  0.43647971  0.47807582  1  0.049867  0  -0.078249  -0.27403  0  3.833177  0
C  C58  1  0.24655689  0.43632109  0.48058170  1  1.101138  0  0.224415  0.487676  0  4.063573  0
C  C59  1  0.03383972  0.49513156  0.49837181  1  -0.162304  0  -0.023095  -0.083003  0  4.060315  0
C  C60  1  0.96049468  0.49714701  0.49835657  1  -0.221014  0  -0.023441  -0.083211  0  4.059153  0
C  C61  1  0.87526368  0.49881647  0.49920783  1  0.110729  0  0.022814  0.19942  0  4.127246  0
C  C62  1  0.83480088  0.53565800  0.53476715  1  0.047123  0  -0.080592  -0.278249  0  3.839583  0
C  C63  1  0.75022119  0.53464445  0.53580778  1  1.107677  0  0.223301  0.485201  0  4.071701  0
C  C64  1  0.74656473  0.46562687  0.46744831  1  0.47326  0  0.049624  0.118201  0  3.966587  0
C  C65  1  0.82933199  0.46223394  0.46472911  1  0.007736  0  -0.087153  -0.206836  0  3.9444  0
C  C66  1  0.49508049  0.73202279  0.49794727  1  -0.047608  0  -0.04016  -0.194179  0  3.979616  0
C  C67  1  0.56881929  0.76961080  0.49227827  1  -0.025223  0  -0.083114  -0.058728  0  4.027209  0
C  C68  1  0.57327615  0.84664342  0.49273038  1  0.009496  0  -0.098509  -0.166226  0  3.983403  0
C  C69  1  0.50192509  0.88906890  0.49857118  1  0.101616  0  0.006613  0.167683  0  4.136695  0
C  C70  1  0.42780896  0.85264055  0.50433629  1  0.042161  0  -0.094481  -0.248445  0  3.881631  0
C  C71  1  0.42372707  0.77459088  0.50441613  1  0.511629  0  0.093401  0.3254  0  4.061659  0
C  C72  1  0.50502140  0.96804368  0.49869803  1  -0.225445  0  -0.035554  -0.091892  0  4.093443  0
C  C73  1  0.50720089  0.03618063  0.49898829  1  -0.265714  0  -0.039905  -0.106047  0  4.097375  0
C  C74  1  0.50626460  0.11515976  0.49960981  1  0.135277  0  0.008875  0.176371  0  4.129989  0
C  C75  1  0.57751387  0.15585992  0.50591637  1  0.139212  0  -0.09395  -0.250781  0  3.878102  0
C  C76  1  0.57601185  0.23399196  0.50722748  1  0.457047  0  0.095909  0.329082  0  4.057798  0
C  C77  1  0.50165198  0.27260870  0.50138022  1  -0.002579  0  -0.04363  -0.206826  0  3.995118  0
C  C78  1  0.43076816  0.23056791  0.49499226  1  -0.048896  0  -0.084102  -0.059109  0  4.029505  0
C  C79  1  0.43205250  0.15354271  0.49418738  1  0.00759  0  -0.096588  -0.163995  0  3.976187  0
C  C80  1  0.50009633  0.50864911  0.73850424  1  0.002569  0  -0.01874  -0.174174  0  3.953023  0
C  C81  1  0.55010297  0.45601349  0.71476474  1  0.149419  0  0.000589  0.086961  0  3.971224  0
C  C82  1  0.45301937  0.55722471  0.71306284  1  0.482942  0  0.098807  0.162281  0  4.085374  0
C  C83  1  0.59730765  0.40239806  0.73884407  1  0.104877  0  -0.099101  -0.238932  0  3.963674  0
C  C84  1  0.64362561  0.35242277  0.71479855  1  0.490342  0  0.092698  0.187698  0  4.110526  0
C  C85  1  0.50134674  0.50729640  0.64037060  1  0.018753  0  -0.017248  -0.168487  0  3.966314  0
C  C86  1  0.45335910  0.55636029  0.66442275  1  0.534995  0  0.097424  0.162156  0  4.094437  0
C  C87  1  0.55103029  0.45577860  0.66505921  1  0.000265  0  -0.001893  0.080375  0  3.985109  0
C  C88  1  0.59972949  0.40303353  0.64140605  1  0.059413  0  -0.100907  -0.24298  0  3.967123  0
C  C89  1  0.64530369  0.35289484  0.66598640  1  0.429233  0  0.093697  0.189445  0  4.112415  0
C  C90  1  0.49839331  0.50045959  0.02252022  1  0.003234  0  -0.042001  -0.198557  0  3.985714  0
C  C91  1  0.42557899  0.50155461  0.04741732  1  0.056718  0  -0.084909  -0.060754  0  4.035332  0
C  C92  1  0.42451427  0.50280369  0.09514282  1  -0.114499  0  -0.099359  -0.16775  0  3.98509  0
C  C93  1  0.49831414  0.50253545  0.11986549  1  0.125523  0  0.006225  0.170848  0  4.136499  0
C  C94  1  0.57146476  0.50180408  0.09572716  1  0.029481  0  -0.095439  -0.250731  0  3.883657  0
C  C95  1  0.57242296  0.50107302  0.04734205  1  0.504974  0  0.095169  0.326321  0  4.065334  0
C  C96  1  0.49805207  0.50273033  0.16875797  1  -0.069794  0  -0.039069  -0.099845  0  4.100718  0
C  C97  1  0.49714885  0.50229570  0.21093289  1  -0.317298  0  -0.039279  -0.100913  0  4.100307  0
C  C98  1  0.49690013  0.50132316  0.25982405  1  0.120965  0  0.006618  0.173006  0  4.134039  0
C  C99  1  0.42469467  0.51160359  0.28404782  1  0.031995  0  -0.095328  -0.251533  0  3.883787  0
C  C100  1  0.42383116  0.51111639  0.33243984  1  0.494432  0  0.094547  0.325443  0  4.063694  0
C  C101  1  0.49680024  0.49907246  0.35720649  1  0.048424  0  -0.041343  -0.19688  0  3.983587  0
C  C102  1  0.56865342  0.48884778  0.33220045  1  -0.081819  0  -0.084465  -0.059476  0  4.037051  0
C  C103  1  0.56978291  0.49002732  0.28448421  1  0.064737  0  -0.100373  -0.169481  0  3.985956  0
C  C104  1  0.75477745  0.55094784  0.85782667  1  0.369678  0  0.049235  0.120964  0  3.970029  0
C  C105  1  0.83757302  0.55507217  0.85835155  1  0.084094  0  -0.086953  -0.208516  0  3.947891  0
C  C106  1  0.88108746  0.49748709  0.88088973  1  0.14412  0  0.022386  0.20002  0  4.129925  0
C  C107  1  0.83863102  0.43796213  0.90028758  1  0.041689  0  -0.079187  -0.277135  0  3.835469  0
C  C108  1  0.75424029  0.43694265  0.89700760  1  1.116447  0  0.223157  0.486292  0  4.06648  0
C  C109  1  0.96616648  0.49983599  0.88270394  1  -0.391545  0  -0.023633  -0.084408  0  4.065169  0
C  C110  1  0.03944550  0.50246816  0.88312257  1  0.014591  0  -0.024208  -0.083928  0  4.065366  0
C  C111  1  0.12457027  0.50445966  0.88213685  1  0.089137  0  0.021797  0.198246  0  4.133064  0
C  C112  1  0.16432157  0.54291825  0.84692325  1  0.018201  0  -0.080493  -0.276518  0  3.839298  0
C  C113  1  0.24879528  0.54119861  0.84514184  1  1.144933  0  0.223947  0.486926  0  4.063664  0
C  C114  1  0.25370649  0.46949610  0.91253272  1  0.47156  0  0.05012  0.117719  0  3.965726  0
C  C115  1  0.17099070  0.46627368  0.91579415  1  -0.010051  0  -0.087478  -0.207857  0  3.946077  0
C  C116  1  0.51133347  0.73479437  0.87949825  1  0.009176  0  -0.040027  -0.193507  0  3.982802  0
C  C117  1  0.43635466  0.77118713  0.87672437  1  -0.041791  0  -0.082206  -0.056575  0  4.023938  0
C  C118  1  0.43083217  0.84807141  0.87499891  1  -0.035903  0  -0.097994  -0.166039  0  3.984004  0
C  C119  1  0.50216542  0.89144513  0.87627832  1  0.105304  0  0.005806  0.167534  0  4.139096  0
C  C120  1  0.57755298  0.85618310  0.87846933  1  0.040248  0  -0.094511  -0.248462  0  3.884087  0
C  C121  1  0.58290762  0.77824887  0.88003050  1  0.5152  0  0.092293  0.322521  0  4.068807  0
C  C122  1  0.49772128  0.97028307  0.87590543  1  -0.273984  0  -0.035952  -0.0931  0  4.098472  0
C  C123  1  0.49443162  0.03834958  0.87631403  1  -0.109231  0  -0.039427  -0.104793  0  4.10167  0
C  C124  1  0.49519482  0.11723994  0.87663535  1  0.095608  0  0.008705  0.175045  0  4.134406  0
C  C125  1  0.42324689  0.15817009  0.87686305  1  0.053015  0  -0.093958  -0.250142  0  3.881082  0
C  C126  1  0.42483371  0.23630790  0.87662815  1  0.526616  0  0.095156  0.327646  0  4.063085  0
C  C127  1  0.50010769  0.27447195  0.87665726  1  0.004573  0  -0.044037  -0.207561  0  3.999288  0
C  C128  1  0.57171736  0.23214952  0.87639013  1  -0.110874  0  -0.083712  -0.058389  0  4.028305  0
C  C129  1  0.57019527  0.15514637  0.87636781  1  0.081864  0  -0.095978  -0.1619  0  3.974231  0
N  N130  1  0.28736738  0.49201447  0.50180031  1  -1.266046  0  -0.343288  -0.352317  0  3.475088  0
N  N131  1  0.70686179  0.50127592  0.50199418  1  -1.252777  0  -0.342441  -0.351685  0  3.472501  0
N  N132  1  0.71301103  0.49398670  0.87734396  1  -1.263197  0  -0.344362  -0.353481  0  3.474076  0
N  N133  1  0.29268762  0.50617802  0.87811479  1  -1.246861  0  -0.342292  -0.347047  0  3.467155  0
O  O134  1  0.55827835  0.61474114  0.48838348  1  -1.171116  0  -0.315612  -0.537922  0  2.334828  0
O  O135  1  0.42518176  0.61691762  0.50536796  1  -1.165404  0  -0.316269  -0.564539  0  2.354446  0
O  O136  1  0.43257470  0.49275439  0.56953943  1  -1.148412  0  -0.298125  -0.515847  0  2.2938  0
O  O137  1  0.56444218  0.52254589  0.56738322  1  -1.187433  0  -0.301636  -0.561599  0  2.39881  0
O  O138  1  0.43281284  0.38864861  0.49234396  1  -1.195008  0  -0.309485  -0.559393  0  2.404459  0
O  O139  1  0.56385691  0.39070305  0.51148045  1  -1.165961  0  -0.308262  -0.559207  0  2.354833  0
O  O140  1  0.56456526  0.48315547  0.42873793  1  -1.170658  0  -0.317979  -0.542891  0  2.335283  0
O  O141  1  0.43167971  0.51152540  0.42957373  1  -1.164295  0  -0.313623  -0.562314  0  2.36604  0
O  O142  1  0.44759895  0.61708173  0.88303401  1  -1.186551  0  -0.314729  -0.54192  0  2.354109  0
O  O143  1  0.58386600  0.62055528  0.88248058  1  -1.164287  0  -0.316121  -0.561243  0  2.348971  0
O  O144  1  0.56458087  0.50999438  0.81124435  1  -1.162552  0  -0.299301  -0.526274  0  2.337799  0
O  O145  1  0.42881913  0.51389091  0.80959754  1  -1.17185  0  -0.306256  -0.563102  0  2.392137  0
O  O146  1  0.57164141  0.38974630  0.87851221  1  -1.199635  0  -0.31353  -0.567395  0  2.405276  0
O  O147  1  0.43647746  0.39277962  0.87452280  1  -1.163402  0  -0.304401  -0.545343  0  2.361479  0
O  O148  1  0.42900178  0.49645608  0.95098425  1  -1.169339  0  -0.314381  -0.538809  0  2.342456  0
O  O149  1  0.56526749  0.50107632  0.95022269  1  -1.173401  0  -0.315084  -0.564924  0  2.372991  0
O  O150  1  0.28594063  0.37962321  0.46132693  1  -1.159258  0  -0.337289  -0.462149  0  2.257329  0
O  O151  1  0.71394404  0.56768452  0.57133127  1  -1.189185  0  -0.338332  -0.459492  0  2.246361  0
O  O152  1  0.35105168  0.74224149  0.51056714  1  -1.143912  0  -0.365165  -0.45544  0  2.244513  0
O  O153  1  0.64635347  0.27006907  0.51389609  1  -1.12507  0  -0.360032  -0.449543  0  2.251216  0
O  O154  1  0.64461019  0.50084844  0.02602996  1  -1.140489  0  -0.362101  -0.450586  0  2.237831  0
O  O155  1  0.35273761  0.52223555  0.35384571  1  -1.138043  0  -0.361357  -0.449319  0  2.236475  0
O  O156  1  0.71506758  0.37814760  0.91396318  1  -1.16653  0  -0.337532  -0.460566  0  2.255456  0
O  O157  1  0.28454719  0.57536898  0.80979795  1  -1.171842  0  -0.337388  -0.462858  0  2.259783  0
O  O158  1  0.65685296  0.74692267  0.88235791  1  -1.154192  0  -0.36548  -0.456486  0  2.244727  0
O  O159  1  0.35381302  0.27284329  0.87637120  1  -1.146933  0  -0.360754  -0.450429  0  2.246795  0
F  F160  1  0.40646395  0.60655951  0.64201901  1  -0.61708  0  -0.091942  -0.11073  0  1.34865  0
F  F161  1  0.40622657  0.60912046  0.73385707  1  -0.61748  0  -0.083871  -0.101779  0  1.372178  0
F  F162  1  0.68893594  0.30120547  0.73755994  1  -0.619223  0  -0.101601  -0.12849  0  1.32386  0
F  F163  1  0.69249880  0.30264597  0.64399285  1  -0.625561  0  -0.098216  -0.123345  0  1.330187  0
