# generated using pymatgen
data_CaH6C5O4
_symmetry_space_group_name_H-M   'P 1'
_cell_length_a   8.67183284
_cell_length_b   12.28302923
_cell_length_c   12.28318702
_cell_angle_alpha   114.63637116
_cell_angle_beta   103.61341084
_cell_angle_gamma   103.61261630
_symmetry_Int_Tables_number   1
_chemical_formula_structural   CaH6C5O4
_chemical_formula_sum   'Ca6 H36 C30 O24'
_cell_volume   1070.34281730
_cell_formula_units_Z   6
loop_
 _symmetry_equiv_pos_site_id
 _symmetry_equiv_pos_as_xyz
  1  'x, y, z'
loop_
 _atom_site_type_symbol
 _atom_site_label
 _atom_site_symmetry_multiplicity
 _atom_site_fract_x
 _atom_site_fract_y
 _atom_site_fract_z
 _atom_site_occupancy
 _atom_site_hle17_bader_spin_density
 _atom_site_hle17_ddec_charge
 _atom_site_hle17_ddec_spin_density
 _atom_site_hle17_ddec_sum_bond_order
 _atom_site_hle17_magmom
 _atom_site_hse06_10hf_bader_spin_density
 _atom_site_hse06_10hf_ddec_charge
 _atom_site_hse06_10hf_ddec_spin_density
 _atom_site_hse06_10hf_ddec_sum_bond_order
 _atom_site_hse06_10hf_magmom
 _atom_site_hse06_bader_spin_density
 _atom_site_hse06_ddec_charge
 _atom_site_hse06_ddec_spin_density
 _atom_site_hse06_ddec_sum_bond_order
 _atom_site_hse06_magmom
 _atom_site_pbe_bader_spin_density
 _atom_site_pbe_cm5_charge
 _atom_site_pbe_ddec_charge
 _atom_site_pbe_ddec_spin_density
 _atom_site_pbe_ddec_sum_bond_order
 _atom_site_pbe_magmom
Ca  Ca0  1  0.59046733  0.19626637  0.57679757  1  0  1.553414  0  1.11085  0  0  1.419066  0  1.465168  0  0  1.466342  0  1.417538  0  0  0.910372  1.383786  0  1.498728  0
Ca  Ca1  1  0.39420712  0.38052221  0.80372897  1  0  1.553202  0  1.111481  0  0  1.418492  0  1.466327  0  0  1.46579  0  1.418688  0  0  0.910221  1.383264  0  1.499779  0
Ca  Ca2  1  0.01365753  0.42319773  0.61946200  1  0  1.553662  0  1.110958  0  0  1.419128  0  1.465447  0  0  1.466433  0  1.417782  0  0  0.910772  1.383781  0  1.499106  0
Ca  Ca3  1  0.40953269  0.80373311  0.42320199  1  0  1.553409  0  1.110844  0  0  1.419063  0  1.465159  0  0  1.466337  0  1.417532  0  0  0.910372  1.383778  0  1.498728  0
Ca  Ca4  1  0.60579338  0.61947823  0.19627107  1  0  1.553178  0  1.111513  0  0  1.41849  0  1.466322  0  0  1.465791  0  1.418681  0  0  0.910226  1.383267  0  1.49977  0
Ca  Ca5  1  0.98634248  0.57680174  0.38053755  1  0  1.553652  0  1.110962  0  0  1.419104  0  1.465475  0  0  1.466412  0  1.417807  0  0  0.91075  1.383757  0  1.499133  0
H  H6  1  0.79107609  0.73111766  0.82207346  1  0  0.09712  0  0.926657  0  0  0.113989  0  0.981314  0  0  0.116106  0  0.980346  0  0  0.096995  0.112437  0  0.982119  0
H  H7  1  0.05994776  0.09097389  0.26883889  1  0  0.096367  0  0.927038  0  0  0.113511  0  0.981325  0  0  0.115621  0  0.980368  0  0  0.096669  0.111953  0  0.982093  0
H  H8  1  0.96897908  0.17790283  0.90902801  1  0  0.097901  0  0.926109  0  0  0.114496  0  0.980756  0  0  0.116599  0  0.979774  0  0  0.097095  0.112931  0  0.981556  0
H  H9  1  0.20892462  0.26888084  0.17792581  1  0  0.097127  0  0.926684  0  0  0.113998  0  0.981321  0  0  0.116117  0  0.980349  0  0  0.096993  0.112442  0  0.982129  0
H  H10  1  0.94005274  0.90902655  0.73116196  1  0  0.096386  0  0.927043  0  0  0.113529  0  0.981329  0  0  0.115641  0  0.98037  0  0  0.096701  0.111971  0  0.982097  0
H  H11  1  0.03102212  0.82209664  0.09097174  1  0  0.097895  0  0.926131  0  0  0.114496  0  0.980767  0  0  0.116598  0  0.979785  0  0  0.097095  0.112932  0  0.981565  0
H  H12  1  0.64761300  0.65924570  0.87780188  1  0  0.099838  0  0.941905  0  0  0.114221  0  1.003507  0  0  0.116748  0  1.002332  0  0  0.107726  0.112459  0  1.004371  0
H  H13  1  0.98835988  0.21858447  0.34070236  1  0  0.099432  0  0.942115  0  0  0.113828  0  1.003808  0  0  0.116315  0  1.00267  0  0  0.107358  0.112065  0  1.00465  0
H  H14  1  0.76976847  0.12216471  0.78142745  1  0  0.099465  0  0.94226  0  0  0.114001  0  1.003635  0  0  0.116475  0  1.002478  0  0  0.107358  0.112199  0  1.004541  0
H  H15  1  0.35238771  0.34075281  0.12219657  1  0  0.099832  0  0.941925  0  0  0.114197  0  1.003538  0  0  0.116722  0  1.002368  0  0  0.107724  0.112434  0  1.004394  0
H  H16  1  0.01164062  0.78141598  0.65929768  1  0  0.099436  0  0.942078  0  0  0.11382  0  1.003779  0  0  0.116307  0  1.002642  0  0  0.10738  0.112057  0  1.00462  0
H  H17  1  0.23023202  0.87783573  0.21857259  1  0  0.099499  0  0.942247  0  0  0.114027  0  1.00362  0  0  0.116501  0  1.002461  0  0  0.107371  0.112225  0  1.004525  0
H  H18  1  0.56653322  0.60852677  0.59909393  1  0  0.072756  0  0.928843  0  0  0.092711  0  0.984502  0  0  0.093194  0  0.985818  0  0  0.100033  0.092271  0  0.983712  0
H  H19  1  0.95799101  0.99058596  0.39143043  1  0  0.07176  0  0.92733  0  0  0.09184  0  0.9829  0  0  0.092351  0  0.98419  0  0  0.099385  0.091352  0  0.982178  0
H  H20  1  0.96743959  0.40088018  0.00942616  1  0  0.071839  0  0.928371  0  0  0.091797  0  0.984306  0  0  0.092349  0  0.985542  0  0  0.099915  0.09131  0  0.983572  0
H  H21  1  0.43346560  0.39147270  0.40090624  1  0  0.072748  0  0.928826  0  0  0.092689  0  0.984502  0  0  0.093172  0  0.985818  0  0  0.100025  0.092246  0  0.983712  0
H  H22  1  0.04200830  0.00941449  0.60857023  1  0  0.071742  0  0.927325  0  0  0.091829  0  0.982889  0  0  0.09234  0  0.984178  0  0  0.099387  0.091339  0  0.982167  0
H  H23  1  0.03256139  0.59912123  0.99057518  1  0  0.071815  0  0.928341  0  0  0.091768  0  0.984273  0  0  0.092319  0  0.98551  0  0  0.099892  0.091282  0  0.983537  0
H  H24  1  0.42743801  0.52562304  0.64805894  1  0  0.068407  0  0.967823  0  0  0.081012  0  1.038898  0  0  0.083034  0  1.038362  0  0  0.106795  0.079549  0  1.039345  0
H  H25  1  0.90181213  0.12244345  0.47432320  1  0  0.06887  0  0.967267  0  0  0.081161  0  1.038706  0  0  0.083191  0  1.038168  0  0  0.106994  0.079699  0  1.039148  0
H  H26  1  0.77938702  0.35193771  0.87756866  1  0  0.068539  0  0.967327  0  0  0.081165  0  1.038613  0  0  0.083176  0  1.038084  0  0  0.107166  0.079707  0  1.039059  0
H  H27  1  0.57256200  0.47437644  0.35194143  1  0  0.068423  0  0.96778  0  0  0.081026  0  1.038853  0  0  0.083047  0  1.03832  0  0  0.106799  0.079563  0  1.039301  0
H  H28  1  0.09818717  0.87755699  0.52567746  1  0  0.068872  0  0.967263  0  0  0.081145  0  1.038715  0  0  0.083175  0  1.038179  0  0  0.107004  0.079682  0  1.039156  0
H  H29  1  0.22061466  0.64806273  0.12243240  1  0  0.068525  0  0.967321  0  0  0.081154  0  1.038586  0  0  0.083178  0  1.038044  0  0  0.107176  0.079697  0  1.039032  0
H  H30  1  0.43319833  0.74441110  0.80707101  1  0  0.098745  0  0.93646  0  0  0.115698  0  0.993083  0  0  0.117086  0  0.993088  0  0  0.101889  0.114671  0  0.993184  0
H  H31  1  0.68870147  0.06264886  0.25554926  1  0  0.100255  0  0.937184  0  0  0.117399  0  0.993249  0  0  0.118768  0  0.993238  0  0  0.102666  0.116363  0  0.993365  0
H  H32  1  0.62608919  0.19294237  0.93735026  1  0  0.098438  0  0.937702  0  0  0.115924  0  0.993594  0  0  0.117363  0  0.993545  0  0  0.102201  0.11486  0  0.993724  0
H  H33  1  0.56680050  0.25558838  0.19292916  1  0  0.098762  0  0.936468  0  0  0.115725  0  0.993073  0  0  0.117113  0  0.993076  0  0  0.101897  0.114697  0  0.993176  0
H  H34  1  0.31129784  0.93735158  0.74445059  1  0  0.100284  0  0.937191  0  0  0.117415  0  0.99325  0  0  0.118782  0  0.993241  0  0  0.102684  0.116381  0  0.993362  0
H  H35  1  0.37391082  0.80705710  0.06264929  1  0  0.098434  0  0.937715  0  0  0.115936  0  0.993595  0  0  0.11737  0  0.993552  0  0  0.102207  0.114872  0  0.993724  0
H  H36  1  0.54553235  0.81409730  0.73189132  1  0  0.105886  0  0.926697  0  0  0.11956  0  0.985958  0  0  0.122237  0  0.984272  0  0  0.104965  0.117576  0  0.987302  0
H  H37  1  0.73138017  0.91779477  0.18586942  1  0  0.106825  0  0.926763  0  0  0.120836  0  0.98546  0  0  0.123509  0  0.983724  0  0  0.105277  0.118857  0  0.986839  0
H  H38  1  0.81360875  0.26809315  0.08220205  1  0  0.10605  0  0.926969  0  0  0.120002  0  0.985704  0  0  0.122713  0  0.983989  0  0  0.105234  0.118002  0  0.987089  0
H  H39  1  0.45446648  0.18590217  0.26810885  1  0  0.105874  0  0.926722  0  0  0.119546  0  0.985986  0  0  0.122223  0  0.984301  0  0  0.104951  0.117564  0  0.98733  0
H  H40  1  0.26861962  0.08220665  0.81413172  1  0  0.106841  0  0.926719  0  0  0.12083  0  0.985429  0  0  0.123503  0  0.983693  0  0  0.105272  0.118861  0  0.986796  0
H  H41  1  0.18639175  0.73190729  0.91779799  1  0  0.106085  0  0.926983  0  0  0.120042  0  0.985716  0  0  0.122753  0  0.983999  0  0  0.10525  0.118041  0  0.9871  0
C  C42  1  0.73533299  0.52820807  0.75094321  1  0  0.749518  0  3.829039  0  0  0.708743  0  4.123092  0  0  0.743164  0  4.113471  0  0  0.240151  0.685165  0  4.128991  0
C  C43  1  0.20714896  0.22276414  0.47178323  1  0  0.749319  0  3.830351  0  0  0.707777  0  4.125536  0  0  0.742174  0  4.115923  0  0  0.239474  0.684198  0  4.131415  0
C  C44  1  0.98437145  0.24903828  0.77723111  1  0  0.746892  0  3.831751  0  0  0.705331  0  4.126808  0  0  0.739667  0  4.117288  0  0  0.238638  0.681779  0  4.132637  0
C  C45  1  0.26466654  0.47179043  0.24905505  1  0  0.749528  0  3.82906  0  0  0.708786  0  4.123052  0  0  0.743208  0  4.113428  0  0  0.240208  0.685199  0  4.128963  0
C  C46  1  0.79285153  0.77723631  0.52821763  1  0  0.749278  0  3.83044  0  0  0.707737  0  4.125625  0  0  0.742134  0  4.116013  0  0  0.239454  0.684158  0  4.131501  0
C  C47  1  0.01562904  0.75096216  0.22276893  1  0  0.746933  0  3.831876  0  0  0.705367  0  4.126931  0  0  0.739704  0  4.117409  0  0  0.238627  0.681813  0  4.132762  0
C  C48  1  0.68262603  0.64426428  0.79348873  1  0  -0.277139  0  3.669803  0  0  -0.317198  0  3.9214  0  0  -0.323001  0  3.929082  0  0  -0.160282  -0.313184  0  3.916093  0
C  C49  1  0.03834725  0.14924277  0.35568386  1  0  -0.275338  0  3.67031  0  0  -0.315518  0  3.92186  0  0  -0.321281  0  3.929624  0  0  -0.158784  -0.311412  0  3.916352  0
C  C50  1  0.88909767  0.20649101  0.85075648  1  0  -0.277827  0  3.671092  0  0  -0.317157  0  3.922152  0  0  -0.322845  0  3.929796  0  0  -0.159138  -0.313059  0  3.916748  0
C  C51  1  0.31737469  0.35573422  0.20651054  1  0  -0.277143  0  3.669893  0  0  -0.317171  0  3.921417  0  0  -0.322973  0  3.929095  0  0  -0.160271  -0.313137  0  3.916093  0
C  C52  1  0.96165254  0.85075864  0.64431729  1  0  -0.275355  0  3.6703  0  0  -0.315521  0  3.92186  0  0  -0.321281  0  3.92962  0  0  -0.158839  -0.311417  0  3.91635  0
C  C53  1  0.11090331  0.79351040  0.14924405  1  0  -0.277844  0  3.671153  0  0  -0.317175  0  3.922189  0  0  -0.322865  0  3.929835  0  0  -0.159131  -0.31308  0  3.91679  0
C  C54  1  0.52853114  0.61835774  0.68107446  1  0  -0.061827  0  3.662292  0  0  -0.102257  0  3.923877  0  0  -0.102641  0  3.936994  0  0  -0.149025  -0.101761  0  3.914786  0
C  C55  1  0.91015648  0.06273240  0.38158203  1  0  -0.060375  0  3.659554  0  0  -0.100635  0  3.920678  0  0  -0.101124  0  3.93383  0  0  -0.148881  -0.100088  0  3.911549  0
C  C56  1  0.84745051  0.31890478  0.93727857  1  0  -0.058459  0  3.659027  0  0  -0.099224  0  3.920418  0  0  -0.099684  0  3.933561  0  0  -0.148609  -0.098688  0  3.911278  0
C  C57  1  0.47146768  0.38164174  0.31892409  1  0  -0.061785  0  3.662281  0  0  -0.102209  0  3.923837  0  0  -0.102595  0  3.936956  0  0  -0.148999  -0.101713  0  3.91474  0
C  C58  1  0.08984283  0.93726805  0.61841863  1  0  -0.060329  0  3.659543  0  0  -0.100583  0  3.92064  0  0  -0.101072  0  3.933792  0  0  -0.148892  -0.100034  0  3.911509  0
C  C59  1  0.15255046  0.68109663  0.06272277  1  0  -0.058458  0  3.658988  0  0  -0.099201  0  3.920345  0  0  -0.09967  0  3.933485  0  0  -0.148629  -0.098664  0  3.911203  0
C  C60  1  0.45563778  0.72520091  0.71762538  1  0  -0.268536  0  3.669164  0  0  -0.30897  0  3.923862  0  0  -0.314086  0  3.930796  0  0  -0.155702  -0.305401  0  3.919093  0
C  C61  1  0.73041629  0.99243049  0.27476135  1  0  -0.27303  0  3.670536  0  0  -0.313593  0  3.924576  0  0  -0.318526  0  3.931331  0  0  -0.1569  -0.310103  0  3.919963  0
C  C62  1  0.73801405  0.28237499  0.00757322  1  0  -0.269586  0  3.668904  0  0  -0.310042  0  3.923279  0  0  -0.315177  0  3.930147  0  0  -0.156549  -0.30648  0  3.91863  0
C  C63  1  0.54436153  0.27479953  0.28237446  1  0  -0.268608  0  3.669195  0  0  -0.309025  0  3.923897  0  0  -0.314141  0  3.930832  0  0  -0.15572  -0.305456  0  3.919132  0
C  C64  1  0.26958350  0.00757092  0.72523897  1  0  -0.273107  0  3.670583  0  0  -0.313605  0  3.924566  0  0  -0.318537  0  3.93132  0  0  -0.156906  -0.310124  0  3.91994  0
C  C65  1  0.26198666  0.71762352  0.99242523  1  0  -0.269642  0  3.668909  0  0  -0.310122  0  3.923307  0  0  -0.315256  0  3.93018  0  0  -0.156558  -0.30656  0  3.918659  0
C  C66  1  0.28675800  0.68125689  0.61119851  1  0  0.74959  0  3.820066  0  0  0.706507  0  4.111479  0  0  0.740761  0  4.102733  0  0  0.238082  0.683033  0  4.116704  0
C  C67  1  0.60553063  0.92995612  0.31873991  1  0  0.752412  0  3.817693  0  0  0.708833  0  4.10984  0  0  0.742914  0  4.101269  0  0  0.239096  0.685439  0  4.115015  0
C  C68  1  0.67556036  0.38877614  0.07007415  1  0  0.749311  0  3.819751  0  0  0.705248  0  4.11262  0  0  0.739462  0  4.103964  0  0  0.23754  0.681796  0  4.117824  0
C  C69  1  0.71324152  0.31874162  0.38880057  1  0  0.749759  0  3.819972  0  0  0.706603  0  4.111492  0  0  0.740857  0  4.102745  0  0  0.238119  0.68313  0  4.116721  0
C  C70  1  0.39446987  0.07004432  0.68126094  1  0  0.752407  0  3.817727  0  0  0.708806  0  4.109881  0  0  0.742887  0  4.101311  0  0  0.239104  0.685407  0  4.115064  0
C  C71  1  0.32443847  0.61122334  0.92992602  1  0  0.749405  0  3.81967  0  0  0.705307  0  4.112595  0  0  0.739522  0  4.103935  0  0  0.237533  0.681856  0  4.117797  0
O  O72  1  0.63436556  0.42376129  0.73707303  1  0  -0.781023  0  1.964584  0  0  -0.717208  0  2.21987  0  0  -0.746725  0  2.207473  0  0  -0.38058  -0.696113  0  2.227697  0
O  O73  1  0.21059234  0.31330818  0.57621422  1  0  -0.781821  0  1.966039  0  0  -0.717352  0  2.22095  0  0  -0.746844  0  2.208564  0  0  -0.38034  -0.696266  0  2.228778  0
O  O74  1  0.89727300  0.26290468  0.68665711  1  0  -0.779215  0  1.964576  0  0  -0.715181  0  2.220134  0  0  -0.744681  0  2.207794  0  0  -0.379738  -0.694076  0  2.227939  0
O  O75  1  0.36563634  0.57623721  0.26292644  1  0  -0.781028  0  1.964693  0  0  -0.717228  0  2.219943  0  0  -0.746747  0  2.207546  0  0  -0.38061  -0.696131  0  2.227777  0
O  O76  1  0.78940815  0.68669226  0.42378663  1  0  -0.781813  0  1.966111  0  0  -0.717323  0  2.220978  0  0  -0.746815  0  2.208592  0  0  -0.380326  -0.696238  0  2.228805  0
O  O77  1  0.10272964  0.73709770  0.31334328  1  0  -0.779233  0  1.964643  0  0  -0.715185  0  2.220175  0  0  -0.744685  0  2.207835  0  0  -0.379704  -0.694078  0  2.227981  0
O  O78  1  0.86966378  0.53809073  0.72640027  1  0  -0.699832  0  1.933003  0  0  -0.646864  0  2.175916  0  0  -0.673732  0  2.164163  0  0  -0.369838  -0.627824  0  2.183445  0
O  O79  1  0.33161522  0.18837203  0.46191339  1  0  -0.700182  0  1.933185  0  0  -0.646808  0  2.176078  0  0  -0.673688  0  2.164382  0  0  -0.370163  -0.627789  0  2.183617  0
O  O80  1  0.14324508  0.27359182  0.81165219  1  0  -0.699734  0  1.933294  0  0  -0.646644  0  2.176786  0  0  -0.673512  0  2.165111  0  0  -0.370285  -0.62762  0  2.184275  0
O  O81  1  0.13033456  0.46190778  0.27359698  1  0  -0.699864  0  1.932979  0  0  -0.646922  0  2.175894  0  0  -0.673791  0  2.164138  0  0  -0.369878  -0.627877  0  2.183421  0
O  O82  1  0.66838527  0.81162841  0.53808665  1  0  -0.700162  0  1.933187  0  0  -0.646801  0  2.176088  0  0  -0.67368  0  2.164391  0  0  -0.370161  -0.62778  0  2.183626  0
O  O83  1  0.85675612  0.72640766  0.18834675  1  0  -0.699726  0  1.933361  0  0  -0.646646  0  2.176859  0  0  -0.67351  0  2.165169  0  0  -0.370275  -0.627624  0  2.184349  0
O  O84  1  0.15063309  0.60179942  0.59909157  1  0  -0.743981  0  1.966477  0  0  -0.682946  0  2.214419  0  0  -0.711913  0  2.203582  0  0  -0.377766  -0.662326  0  2.221219  0
O  O85  1  0.54889915  0.99732515  0.39820756  1  0  -0.745141  0  1.966238  0  0  -0.684208  0  2.214607  0  0  -0.713113  0  2.203836  0  0  -0.378519  -0.663616  0  2.221374  0
O  O86  1  0.55151699  0.40087440  0.00273288  1  0  -0.744283  0  1.967029  0  0  -0.683048  0  2.215456  0  0  -0.712005  0  2.20466  0  0  -0.377744  -0.662461  0  2.222237  0
O  O87  1  0.84936525  0.39819909  0.40090730  1  0  -0.744061  0  1.966481  0  0  -0.683003  0  2.214462  0  0  -0.711971  0  2.203622  0  0  -0.377787  -0.662383  0  2.221262  0
O  O88  1  0.45110016  0.00267529  0.60179310  1  0  -0.745091  0  1.966246  0  0  -0.68417  0  2.214646  0  0  -0.713075  0  2.203875  0  0  -0.3785  -0.663577  0  2.221412  0
O  O89  1  0.44848303  0.59912508  0.99726831  1  0  -0.744321  0  1.966957  0  0  -0.683094  0  2.215432  0  0  -0.712053  0  2.204635  0  0  -0.377765  -0.662508  0  2.222214  0
O  O90  1  0.28143215  0.72192952  0.53080162  1  0  -0.762938  0  2.034285  0  0  -0.696104  0  2.291208  0  0  -0.726627  0  2.281007  0  0  -0.413867  -0.674373  0  2.297558  0
O  O91  1  0.55948766  0.80888626  0.27808774  1  0  -0.763221  0  2.032316  0  0  -0.696263  0  2.28961  0  0  -0.726749  0  2.279487  0  0  -0.413761  -0.674568  0  2.295942  0
O  O92  1  0.75067055  0.46920489  0.19113725  1  0  -0.762303  0  2.032746  0  0  -0.695043  0  2.28997  0  0  -0.72558  0  2.279822  0  0  -0.413613  -0.673283  0  2.296233  0
O  O93  1  0.71856786  0.27806996  0.46919794  1  0  -0.76298  0  2.034265  0  0  -0.696128  0  2.291232  0  0  -0.726649  0  2.281031  0  0  -0.41386  -0.674395  0  2.297583  0
O  O94  1  0.44051450  0.19111515  0.72191380  1  0  -0.763264  0  2.03234  0  0  -0.696293  0  2.289639  0  0  -0.726779  0  2.279519  0  0  -0.413785  -0.674596  0  2.295973  0
O  O95  1  0.24933113  0.53079555  0.80886380  1  0  -0.762334  0  2.032758  0  0  -0.695043  0  2.28997  0  0  -0.725578  0  2.279822  0  0  -0.413594  -0.673284  0  2.296237  0
