# generated using pymatgen
data_SrH14C6(NO6)2
_symmetry_space_group_name_H-M   'P 1'
_cell_length_a   7.73290583
_cell_length_b   8.64052683
_cell_length_c   10.32387619
_cell_angle_alpha   110.08391673
_cell_angle_beta   90.00028092
_cell_angle_gamma   89.99982003
_symmetry_Int_Tables_number   1
_chemical_formula_structural   SrH14C6(NO6)2
_chemical_formula_sum   'Sr2 H28 C12 N4 O24'
_cell_volume   647.85752447
_cell_formula_units_Z   2
loop_
 _symmetry_equiv_pos_site_id
 _symmetry_equiv_pos_as_xyz
  1  'x, y, z'
loop_
 _atom_site_type_symbol
 _atom_site_label
 _atom_site_symmetry_multiplicity
 _atom_site_fract_x
 _atom_site_fract_y
 _atom_site_fract_z
 _atom_site_occupancy
 _atom_site_pbe_bader_spin_density
 _atom_site_pbe_cm5_charge
 _atom_site_pbe_ddec_charge
 _atom_site_pbe_ddec_spin_density
 _atom_site_pbe_ddec_sum_bond_order
 _atom_site_pbe_magmom
Sr  Sr0  1  0.00000000  0.00000000  0.00000000  1  0  0.92154  1.389764  0  1.500009  0
Sr  Sr1  1  0.50000038  0.49999928  0.49999987  1  0  0.921559  1.389781  0  1.49998  0
H  H2  1  0.43918814  0.85525879  0.87529812  1  0  0.114417  0.057638  0  1.003025  0
H  H3  1  0.93918861  0.64474160  0.62470394  1  0  0.114417  0.057656  0  1.003  0
H  H4  1  0.56081133  0.14474346  0.12470268  1  0  0.114417  0.057651  0  1.003012  0
H  H5  1  0.06081216  0.35525819  0.37529809  1  0  0.114408  0.057639  0  1.003037  0
H  H6  1  0.49711318  0.12528292  0.83387840  1  0  0.106166  0.057614  0  0.99747  0
H  H7  1  0.99711570  0.37471506  0.66612256  1  0  0.106167  0.057623  0  0.997434  0
H  H8  1  0.50288629  0.87471810  0.16612205  1  0  0.10616  0.057568  0  0.997514  0
H  H9  1  0.00288636  0.62528474  0.33388044  1  0  0.106152  0.057588  0  0.997453  0
H  H10  1  0.70005328  0.00193719  0.63676787  1  0  0.10011  0.076476  0  1.001384  0
H  H11  1  0.20005611  0.49806245  0.86323345  1  0  0.100126  0.076474  0  1.001375  0
H  H12  1  0.29994748  0.99806259  0.36323126  1  0  0.100137  0.076489  0  1.001385  0
H  H13  1  0.79994594  0.50193980  0.13676929  1  0  0.100132  0.076472  0  1.001384  0
H  H14  1  0.75171435  0.84158580  0.70154400  1  0  0.110103  0.068873  0  1.015543  0
H  H15  1  0.25171666  0.65841240  0.79845675  1  0  0.110118  0.068893  0  1.0155  0
H  H16  1  0.24828382  0.15841398  0.29845512  1  0  0.110103  0.068864  0  1.015528  0
H  H17  1  0.74828410  0.34158862  0.20154467  1  0  0.110109  0.068882  0  1.015519  0
H  H18  1  0.67872966  0.74454006  0.89409658  1  0  0.303923  0.334097  0  1.011399  0
H  H19  1  0.17873166  0.75545948  0.60590526  1  0  0.30393  0.334108  0  1.011395  0
H  H20  1  0.32126981  0.25546219  0.10590325  1  0  0.303909  0.334091  0  1.011409  0
H  H21  1  0.82126911  0.24454030  0.39409484  1  0  0.303928  0.334105  0  1.011387  0
H  H22  1  0.75717840  0.23584550  0.88685050  1  0  0.305506  0.34464  0  0.988931  0
H  H23  1  0.25717912  0.26415160  0.61315030  1  0  0.305489  0.344622  0  0.988931  0
H  H24  1  0.24282236  0.76415428  0.11314862  1  0  0.305503  0.344618  0  0.988949  0
H  H25  1  0.74281905  0.73584572  0.38685007  1  0  0.3055  0.344634  0  0.988927  0
H  H26  1  0.42034432  0.89901890  0.60388209  1  0  0.310497  0.343883  0  0.964545  0
H  H27  1  0.92034801  0.60098028  0.89611859  1  0  0.310528  0.343918  0  0.96455  0
H  H28  1  0.57965515  0.10098088  0.39611704  1  0  0.310482  0.343863  0  0.964625  0
H  H29  1  0.07965404  0.39901951  0.10388150  1  0  0.310504  0.343893  0  0.964547  0
C  C30  1  0.53846262  0.94427347  0.93164749  1  0  -0.004649  0.114007  0  3.826611  0
C  C31  1  0.03846379  0.55572505  0.56835354  1  0  -0.004693  0.113991  0  3.826606  0
C  C32  1  0.46153685  0.05572632  0.06835164  1  0  -0.004667  0.11389  0  3.826641  0
C  C33  1  0.96153698  0.44427351  0.43164911  1  0  -0.004664  0.113896  0  3.826718  0
C  C34  1  0.59948108  0.03979599  0.84029157  1  0  -0.014995  0.119229  0  3.877377  0
C  C35  1  0.09948271  0.46020381  0.65971039  1  0  -0.015004  0.119181  0  3.877313  0
C  C36  1  0.40051839  0.96020380  0.15970755  1  0  -0.014969  0.119335  0  3.877296  0
C  C37  1  0.90051805  0.53979598  0.34029262  1  0  -0.014993  0.119272  0  3.877329  0
C  C38  1  0.64914989  0.92651443  0.69493544  1  0  -0.076232  0.011376  0  3.891894  0
C  C39  1  0.14915384  0.57348393  0.80506594  1  0  -0.07629  0.011357  0  3.891906  0
C  C40  1  0.35084828  0.07348536  0.30506466  1  0  -0.07625  0.011394  0  3.89181  0
C  C41  1  0.85084822  0.42651586  0.19493609  1  0  -0.076277  0.011363  0  3.891913  0
N  N42  1  0.15947401  0.06450652  0.72639444  1  0  0.104156  0.703552  0  4.42308  0
N  N43  1  0.65947443  0.43549072  0.77360507  1  0  0.104126  0.703456  0  4.423116  0
N  N44  1  0.84052416  0.93548956  0.27360169  1  0  0.104151  0.703486  0  4.423252  0
N  N45  1  0.34052504  0.56450660  0.22639335  1  0  0.104151  0.703537  0  4.423023  0
O  O46  1  0.68329588  0.85807727  0.96222396  1  0  -0.427328  -0.545605  0  2.347787  0
O  O47  1  0.18329654  0.64192104  0.53777851  1  0  -0.427316  -0.545604  0  2.347814  0
O  O48  1  0.31670359  0.14192252  0.03777711  1  0  -0.42732  -0.545596  0  2.347856  0
O  O49  1  0.81670422  0.35807752  0.46222221  1  0  -0.427329  -0.545601  0  2.347863  0
O  O50  1  0.75027568  0.13066376  0.90499131  1  0  -0.440821  -0.561239  0  2.405696  0
O  O51  1  0.25027850  0.36933459  0.59500982  1  0  -0.440733  -0.561161  0  2.405657  0
O  O52  1  0.24972509  0.86933603  0.09500782  1  0  -0.440817  -0.561233  0  2.405691  0
O  O53  1  0.74972356  0.63066520  0.40499222  1  0  -0.440773  -0.561198  0  2.405653  0
O  O54  1  0.50745019  0.82622134  0.62301201  1  0  -0.436938  -0.520733  0  2.371035  0
O  O55  1  0.00745296  0.67377845  0.87698733  1  0  -0.436969  -0.520781  0  2.371103  0
O  O56  1  0.49254928  0.17377967  0.37698650  1  0  -0.436951  -0.520762  0  2.371089  0
O  O57  1  0.99254909  0.32622257  0.12301409  1  0  -0.436941  -0.52074  0  2.371046  0
O  O58  1  0.12864973  0.92854094  0.74718907  1  0  -0.21145  -0.486506  0  2.066112  0
O  O59  1  0.62865001  0.57145867  0.75281164  1  0  -0.21142  -0.486435  0  2.066069  0
O  O60  1  0.87135103  0.07145884  0.25281006  1  0  -0.211436  -0.48648  0  2.066199  0
O  O61  1  0.37135076  0.42854235  0.24718978  1  0  -0.211431  -0.486499  0  2.066119  0
O  O62  1  0.10265324  0.19646863  0.80814425  1  0  -0.138316  -0.391303  0  2.003208  0
O  O63  1  0.60265617  0.30353239  0.69185711  1  0  -0.138277  -0.391255  0  2.003343  0
O  O64  1  0.89734753  0.80353362  0.19185656  1  0  -0.138305  -0.391274  0  2.003342  0
O  O65  1  0.39734589  0.69646986  0.30814466  1  0  -0.138338  -0.391329  0  2.003199  0
O  O66  1  0.25018344  0.05921599  0.62161996  1  0  -0.164921  -0.42086  0  1.983584  0
O  O67  1  0.75018581  0.44078358  0.87838055  1  0  -0.16496  -0.420883  0  1.983522  0
O  O68  1  0.74980569  0.94078255  0.37837591  1  0  -0.164934  -0.420822  0  1.983476  0
O  O69  1  0.24981624  0.55921620  0.12161954  1  0  -0.164916  -0.420838  0  1.983552  0
