# generated using pymatgen
data_PrH13C9N4O9
_symmetry_space_group_name_H-M   'P 1'
_cell_length_a   7.90953956
_cell_length_b   9.77513795
_cell_length_c   10.44904798
_cell_angle_alpha   116.92656858
_cell_angle_beta   107.47843243
_cell_angle_gamma   95.19214767
_symmetry_Int_Tables_number   1
_chemical_formula_structural   PrH13C9N4O9
_chemical_formula_sum   'Pr2 H26 C18 N8 O18'
_cell_volume   662.22807732
_cell_formula_units_Z   2
loop_
 _symmetry_equiv_pos_site_id
 _symmetry_equiv_pos_as_xyz
  1  'x, y, z'
loop_
 _atom_site_type_symbol
 _atom_site_label
 _atom_site_symmetry_multiplicity
 _atom_site_fract_x
 _atom_site_fract_y
 _atom_site_fract_z
 _atom_site_occupancy
 _atom_site_pbe_bader_spin_density
 _atom_site_pbe_cm5_charge
 _atom_site_pbe_ddec_charge
 _atom_site_pbe_ddec_spin_density
 _atom_site_pbe_ddec_sum_bond_order
 _atom_site_pbe_magmom
Pr  Pr0  1  0.28356313  0.79536947  0.68853709  1  0  1.469719  2.247287  0  1.956793  0
Pr  Pr1  1  0.71643884  0.20463148  0.31146374  1  0  1.469693  2.247242  0  1.956845  0
H  H2  1  0.65527871  0.90823255  0.93672087  1  0  0.306551  0.382027  0  0.953668  0
H  H3  1  0.34472570  0.09177196  0.06328202  1  0  0.306546  0.382026  0  0.953665  0
H  H4  1  0.70925607  0.96359846  0.82851660  1  0  0.291743  0.342079  0  1.024245  0
H  H5  1  0.29074362  0.03640369  0.17148612  1  0  0.291748  0.342043  0  1.024292  0
H  H6  1  0.35161771  0.87568812  0.44519546  1  0  0.296021  0.363199  0  0.989798  0
H  H7  1  0.64838331  0.12431402  0.55480565  1  0  0.29602  0.363195  0  0.989808  0
H  H8  1  0.53616430  0.84153098  0.53171379  1  0  0.301911  0.393022  0  0.942016  0
H  H9  1  0.46384069  0.15847115  0.46829014  1  0  0.30193  0.39305  0  0.941984  0
H  H10  1  0.04722574  0.02766174  0.64324261  1  0  0.318468  0.400198  0  0.920608  0
H  H11  1  0.95278041  0.97233562  0.35675670  1  0  0.318452  0.400158  0  0.920637  0
H  H12  1  0.91523997  0.85578055  0.55780750  1  0  0.304064  0.393139  0  0.947283  0
H  H13  1  0.08476428  0.14421919  0.44218664  1  0  0.304062  0.393162  0  0.947253  0
H  H14  1  0.03460662  0.65074473  0.33829221  1  0  0.285721  0.348784  0  1.015916  0
H  H15  1  0.96539572  0.34925741  0.66170920  1  0  0.285712  0.348774  0  1.015935  0
H  H16  1  0.04797783  0.49939924  0.36210816  1  0  0.297419  0.391841  0  0.943473  0
H  H17  1  0.95202679  0.50060169  0.63789039  1  0  0.297421  0.391835  0  0.94348  0
H  H18  1  0.88121606  0.72427008  0.67305983  1  0  0.298118  0.387961  0  0.954421  0
H  H19  1  0.11878687  0.27572967  0.32693688  1  0  0.298118  0.387965  0  0.954413  0
H  H20  1  0.00138847  0.75104056  0.84400064  1  0  0.293523  0.363247  0  0.986739  0
H  H21  1  0.99861255  0.24896158  0.15599855  1  0  0.293522  0.363261  0  0.986715  0
H  H22  1  0.67296280  0.63407488  0.79615793  1  0  0.115866  0.125508  0  1.026455  0
H  H23  1  0.32703218  0.36592490  0.20384080  1  0  0.115867  0.125491  0  1.02647  0
H  H24  1  0.32257375  0.20221079  0.69021856  1  0  0.111938  0.111654  0  1.014391  0
H  H25  1  0.67742880  0.79778778  0.30978426  1  0  0.111949  0.111651  0  1.01433  0
H  H26  1  0.80586978  0.45091904  0.10980761  1  0  0.114595  0.115954  0  1.020478  0
H  H27  1  0.19413109  0.54907833  0.89018762  1  0  0.114602  0.115976  0  1.02043  0
C  C28  1  0.36093621  0.40642676  0.58411011  1  0  0.241369  0.633731  0  4.142991  0
C  C29  1  0.63905913  0.59357422  0.41589400  1  0  0.241404  0.633764  0  4.143122  0
C  C30  1  0.76341195  0.55598705  0.96339091  1  0  -0.004583  0.023414  0  4.020509  0
C  C31  1  0.23658032  0.44402108  0.03661360  1  0  -0.004603  0.023375  0  4.020491  0
C  C32  1  0.92945160  0.68718195  0.06762581  1  0  0.216182  0.235888  0  4.062086  0
C  C33  1  0.07054641  0.31281900  0.93237220  1  0  0.216209  0.236003  0  4.061967  0
C  C34  1  0.48698981  0.41704225  0.72891174  1  0  -0.013016  -0.052368  0  3.999281  0
C  C35  1  0.51300994  0.58295157  0.27109131  1  0  -0.013032  -0.052362  0  3.999269  0
C  C36  1  0.64516282  0.54399493  0.82660082  1  0  -0.065501  -0.102717  0  3.875595  0
C  C37  1  0.35483164  0.45599889  0.17339624  1  0  -0.06549  -0.102672  0  3.875392  0
C  C38  1  0.44510470  0.30172270  0.76685867  1  0  -0.070663  -0.097982  0  3.926605  0
C  C39  1  0.55488990  0.69827590  0.23315001  1  0  -0.07064  -0.09792  0  3.92651  0
C  C40  1  0.71789126  0.44247156  0.00280793  1  0  -0.068764  -0.101447  0  3.900135  0
C  C41  1  0.28210939  0.55752939  0.99719164  1  0  -0.068773  -0.10149  0  3.90005  0
C  C42  1  0.55938277  0.31600061  0.90579697  1  0  -0.01475  -0.045944  0  3.978402  0
C  C43  1  0.44062545  0.68399914  0.09420860  1  0  -0.014777  -0.046019  0  3.97839  0
C  C44  1  0.51645830  0.19899124  0.95438008  1  0  0.236391  0.64236  0  4.170627  0
C  C45  1  0.48353896  0.80100734  0.04561963  1  0  0.23646  0.642482  0  4.170499  0
N  N46  1  0.16866910  0.85067443  0.27085408  1  0  -0.089322  -0.086059  0  3.323618  0
N  N47  1  0.83132985  0.14932533  0.72914269  1  0  -0.089345  -0.086066  0  3.32366  0
N  N48  1  0.02671605  0.72603369  0.21549589  1  0  -0.208584  -0.272923  0  3.304782  0
N  N49  1  0.97328614  0.27396367  0.78449964  1  0  -0.208539  -0.272941  0  3.304692  0
N  N50  1  0.00879668  0.78640575  0.03224779  1  0  -0.200946  -0.253019  0  3.23213  0
N  N51  1  0.99120191  0.21359281  0.96774743  1  0  -0.200932  -0.253021  0  3.232096  0
N  N52  1  0.15662353  0.88650990  0.16128580  1  0  -0.076772  -0.040052  0  3.353624  0
N  N53  1  0.84337314  0.11349105  0.83871191  1  0  -0.076808  -0.040114  0  3.353622  0
O  O54  1  0.28060726  0.26589182  0.46560964  1  0  -0.295171  -0.566202  0  2.239268  0
O  O55  1  0.71939508  0.73411032  0.53439177  1  0  -0.295165  -0.566191  0  2.239287  0
O  O56  1  0.62741867  0.87665612  0.82737836  1  0  -0.641814  -0.846302  0  2.173518  0
O  O57  1  0.37257969  0.12334603  0.17262311  1  0  -0.641814  -0.846222  0  2.173455  0
O  O58  1  0.42406456  0.87518159  0.54130260  1  0  -0.648061  -0.855594  0  2.10286  0
O  O59  1  0.57593741  0.12481936  0.45869727  1  0  -0.648082  -0.855633  0  2.102868  0
O  O60  1  0.04267476  0.91511093  0.58833598  1  0  -0.636041  -0.835612  0  2.101277  0
O  O61  1  0.95732913  0.08488762  0.41165757  1  0  -0.636028  -0.835593  0  2.101194  0
O  O62  1  0.34056961  0.53311242  0.58372689  1  0  -0.395515  -0.659829  0  2.267726  0
O  O63  1  0.65942183  0.46688021  0.41626706  1  0  -0.395549  -0.659878  0  2.267665  0
O  O64  1  0.05206659  0.61380461  0.41589243  1  0  -0.650062  -0.857243  0  2.118494  0
O  O65  1  0.94793575  0.38619753  0.58410898  1  0  -0.650053  -0.857232  0  2.118482  0
O  O66  1  0.99965691  0.71622527  0.73711461  1  0  -0.620108  -0.850219  0  2.146466  0
O  O67  1  0.00034506  0.28377567  0.26288430  1  0  -0.620097  -0.850229  0  2.146456  0
O  O68  1  0.63448306  0.21803775  0.07833304  1  0  -0.409865  -0.68214  0  2.370052  0
O  O69  1  0.36551192  0.78196202  0.92166474  1  0  -0.409921  -0.68222  0  2.369878  0
O  O70  1  0.36583735  0.08802522  0.87201847  1  0  -0.390053  -0.69563  0  2.272119  0
O  O71  1  0.63415122  0.91197100  0.12797922  1  0  -0.390074  -0.695661  0  2.272194  0
