# generated using pymatgen
data_AgH7C4N2O3
_symmetry_space_group_name_H-M   'P 1'
_cell_length_a   5.42821538
_cell_length_b   5.42820156
_cell_length_c   21.39103637
_cell_angle_alpha   89.99978276
_cell_angle_beta   90.00055705
_cell_angle_gamma   93.60445991
_symmetry_Int_Tables_number   1
_chemical_formula_structural   AgH7C4N2O3
_chemical_formula_sum   'Ag4 H28 C16 N8 O12'
_cell_volume   629.04962418
_cell_formula_units_Z   4
loop_
 _symmetry_equiv_pos_site_id
 _symmetry_equiv_pos_as_xyz
  1  'x, y, z'
loop_
 _atom_site_type_symbol
 _atom_site_label
 _atom_site_symmetry_multiplicity
 _atom_site_fract_x
 _atom_site_fract_y
 _atom_site_fract_z
 _atom_site_occupancy
 _atom_site_hle17_bader_spin_density
 _atom_site_hle17_ddec_charge
 _atom_site_hle17_ddec_spin_density
 _atom_site_hle17_ddec_sum_bond_order
 _atom_site_hle17_magmom
 _atom_site_hse06_10hf_bader_spin_density
 _atom_site_hse06_10hf_ddec_charge
 _atom_site_hse06_10hf_ddec_spin_density
 _atom_site_hse06_10hf_ddec_sum_bond_order
 _atom_site_hse06_10hf_magmom
 _atom_site_hse06_bader_spin_density
 _atom_site_hse06_ddec_charge
 _atom_site_hse06_ddec_spin_density
 _atom_site_hse06_ddec_sum_bond_order
 _atom_site_hse06_magmom
 _atom_site_pbe_bader_spin_density
 _atom_site_pbe_cm5_charge
 _atom_site_pbe_ddec_charge
 _atom_site_pbe_ddec_spin_density
 _atom_site_pbe_ddec_sum_bond_order
 _atom_site_pbe_magmom
Ag  Ag0  1  0.32225921  0.44429244  0.42431670  1  0  0.570913  0  1.313579  0  0  0.434092  0  1.745521  0  0  0.470447  0  1.692995  0  0  0.439112  0.408274  0  1.782186  0
Ag  Ag1  1  0.44428579  0.32228624  0.57568358  1  0  0.570758  0  1.313703  0  0  0.434018  0  1.745544  0  0  0.470373  0  1.693021  0  0  0.439062  0.408192  0  1.782203  0
Ag  Ag2  1  0.67773655  0.55570578  0.92431483  1  0  0.570869  0  1.313656  0  0  0.434074  0  1.745581  0  0  0.470427  0  1.693053  0  0  0.439093  0.408254  0  1.782246  0
Ag  Ag3  1  0.55571539  0.67771805  0.07568299  1  0  0.570787  0  1.313679  0  0  0.433989  0  1.745597  0  0  0.470343  0  1.693068  0  0  0.439055  0.408158  0  1.782267  0
H  H4  1  0.87275228  0.69518184  0.44204056  1  0  0.061953  0  0.938201  0  0  0.074604  0  1.006635  0  0  0.076431  0  1.004297  0  0  0.109135  0.073195  0  1.008499  0
H  H5  1  0.69516461  0.87277111  0.55796124  1  0  0.061998  0  0.938204  0  0  0.074584  0  1.006656  0  0  0.076404  0  1.004337  0  0  0.109151  0.073176  0  1.008511  0
H  H6  1  0.12724414  0.30481616  0.94204039  1  0  0.061869  0  0.938221  0  0  0.074511  0  1.006703  0  0  0.076337  0  1.004366  0  0  0.109076  0.073101  0  1.008563  0
H  H7  1  0.30483553  0.12722786  0.05796057  1  0  0.062006  0  0.938224  0  0  0.074593  0  1.006681  0  0  0.076413  0  1.004363  0  0  0.10915  0.073185  0  1.008535  0
H  H8  1  0.48251825  0.85636407  0.47370888  1  0  0.295395  0  0.929584  0  0  0.283734  0  0.989091  0  0  0.29027  0  0.9846  0  0  0.285038  0.27904  0  0.992351  0
H  H9  1  0.85634856  0.48254812  0.52628808  1  0  0.295429  0  0.929771  0  0  0.283854  0  0.989103  0  0  0.2904  0  0.984602  0  0  0.285147  0.279159  0  0.992371  0
H  H10  1  0.51748159  0.14363906  0.97370982  1  0  0.2955  0  0.929616  0  0  0.283858  0  0.989048  0  0  0.290394  0  0.984556  0  0  0.28509  0.279164  0  0.992313  0
H  H11  1  0.14365406  0.51745122  0.02628711  1  0  0.295412  0  0.929812  0  0  0.283803  0  0.989159  0  0  0.290351  0  0.984652  0  0  0.285166  0.279109  0  0.992423  0
H  H12  1  0.41462127  0.91565195  0.40174825  1  0  0.296057  0  0.932001  0  0  0.281626  0  0.994599  0  0  0.288195  0  0.990659  0  0  0.285706  0.276921  0  0.997452  0
H  H13  1  0.91565320  0.41463916  0.59824777  1  0  0.296045  0  0.93205  0  0  0.28158  0  0.994734  0  0  0.288147  0  0.990793  0  0  0.285646  0.276871  0  0.997588  0
H  H14  1  0.58536995  0.08434658  0.90174848  1  0  0.296018  0  0.932158  0  0  0.281613  0  0.99473  0  0  0.288185  0  0.990782  0  0  0.285678  0.276907  0  0.997584  0
H  H15  1  0.08434845  0.58535931  0.09824658  1  0  0.296075  0  0.932008  0  0  0.281593  0  0.994697  0  0  0.28816  0  0.990756  0  0  0.285669  0.276885  0  0.997553  0
H  H16  1  0.01426243  0.73348543  0.33623536  1  0  0.109649  0  0.940054  0  0  0.120633  0  1.009346  0  0  0.124237  0  1.005942  0  0  0.102516  0.118033  0  1.011867  0
H  H17  1  0.73346919  0.01426699  0.66376724  1  0  0.109542  0  0.940031  0  0  0.120539  0  1.009362  0  0  0.124118  0  1.005953  0  0  0.102462  0.117943  0  1.011888  0
H  H18  1  0.98573489  0.26650463  0.83623219  1  0  0.10957  0  0.940053  0  0  0.120565  0  1.009349  0  0  0.12417  0  1.005944  0  0  0.102492  0.11797  0  1.011875  0
H  H19  1  0.26652953  0.98573254  0.16376611  1  0  0.109552  0  0.94002  0  0  0.120553  0  1.009339  0  0  0.124133  0  1.005926  0  0  0.102451  0.117957  0  1.011868  0
H  H20  1  0.73806891  0.54102047  0.33974015  1  0  0.116846  0  0.942154  0  0  0.129155  0  1.009348  0  0  0.132306  0  1.006831  0  0  0.102922  0.126913  0  1.011221  0
H  H21  1  0.54100544  0.73807359  0.66025771  1  0  0.116779  0  0.942076  0  0  0.129111  0  1.009296  0  0  0.13224  0  1.00677  0  0  0.102896  0.126872  0  1.011172  0
H  H22  1  0.26192221  0.45898436  0.83974155  1  0  0.116778  0  0.942208  0  0  0.12909  0  1.009391  0  0  0.132244  0  1.006869  0  0  0.102891  0.126854  0  1.011267  0
H  H23  1  0.45899104  0.26192231  0.16025962  1  0  0.116778  0  0.942097  0  0  0.129102  0  1.00932  0  0  0.132233  0  1.006787  0  0  0.102893  0.126866  0  1.011198  0
H  H24  1  0.67298059  0.92929945  0.20148103  1  0  0.328083  0  0.903231  0  0  0.308034  0  0.974343  0  0  0.314961  0  0.969317  0  0  0.303151  0.303084  0  0.978075  0
H  H25  1  0.92928374  0.67298282  0.79851659  1  0  0.328098  0  0.903336  0  0  0.308052  0  0.974435  0  0  0.314979  0  0.969404  0  0  0.303167  0.303103  0  0.978172  0
H  H26  1  0.32702653  0.07069403  0.70148344  1  0  0.328031  0  0.903276  0  0  0.307991  0  0.974388  0  0  0.314922  0  0.969344  0  0  0.303119  0.303046  0  0.978105  0
H  H27  1  0.07071281  0.32701694  0.29851562  1  0  0.328045  0  0.903356  0  0  0.307998  0  0.974471  0  0  0.314921  0  0.969453  0  0  0.30314  0.303053  0  0.978202  0
H  H28  1  0.78673522  0.64908255  0.22492197  1  0  0.345871  0  0.927032  0  0  0.321953  0  0.996672  0  0  0.331142  0  0.988952  0  0  0.292437  0.315503  0  1.002049  0
H  H29  1  0.64907100  0.78673488  0.77508161  1  0  0.345766  0  0.927174  0  0  0.3219  0  0.996757  0  0  0.331091  0  0.989036  0  0  0.292353  0.315447  0  1.002144  0
H  H30  1  0.21326712  0.35090883  0.72492056  1  0  0.345778  0  0.927281  0  0  0.321946  0  0.996797  0  0  0.33113  0  0.989083  0  0  0.2924  0.315494  0  1.002186  0
H  H31  1  0.35092848  0.21326698  0.27507957  1  0  0.345912  0  0.927077  0  0  0.322021  0  0.996671  0  0  0.331198  0  0.98896  0  0  0.292375  0.315576  0  1.002062  0
C  C32  1  0.89386375  0.07975719  0.42489679  1  0  0.633316  0  3.866209  0  0  0.58139  0  4.161166  0  0  0.6145  0  4.158022  0  0  0.201979  0.558785  0  4.162492  0
C  C33  1  0.07974068  0.89390781  0.57510504  1  0  0.632715  0  3.866868  0  0  0.58096  0  4.161543  0  0  0.61407  0  4.158405  0  0  0.201803  0.558348  0  4.162871  0
C  C34  1  0.10613387  0.92024101  0.92489550  1  0  0.633284  0  3.866326  0  0  0.581374  0  4.161281  0  0  0.614488  0  4.158127  0  0  0.201979  0.558767  0  4.162608  0
C  C35  1  0.92026246  0.10609832  0.07510310  1  0  0.632851  0  3.866734  0  0  0.581032  0  4.161506  0  0  0.614146  0  4.158359  0  0  0.201842  0.558424  0  4.162827  0
C  C36  1  0.77406515  0.82047276  0.41173563  1  0  0.089297  0  3.635569  0  0  0.070175  0  3.866275  0  0  0.069769  0  3.882648  0  0  -0.002884  0.07044  0  3.855006  0
C  C37  1  0.82046736  0.77408729  0.58826479  1  0  0.089204  0  3.635708  0  0  0.070337  0  3.865982  0  0  0.069897  0  3.882333  0  0  -0.002931  0.070605  0  3.854728  0
C  C38  1  0.22593026  0.17952747  0.91173535  1  0  0.089343  0  3.635476  0  0  0.070232  0  3.866167  0  0  0.069827  0  3.882531  0  0  -0.00284  0.070502  0  3.854906  0
C  C39  1  0.17953405  0.22591315  0.08826325  1  0  0.089215  0  3.635749  0  0  0.070327  0  3.86607  0  0  0.069887  0  3.882419  0  0  -0.002911  0.070594  0  3.854811  0
C  C40  1  0.81446687  0.73296891  0.34501712  1  0  -0.312438  0  3.672009  0  0  -0.353793  0  3.910632  0  0  -0.359737  0  3.919104  0  0  -0.163905  -0.349629  0  3.904834  0
C  C41  1  0.73295662  0.81447243  0.65498514  1  0  -0.312146  0  3.671526  0  0  -0.353666  0  3.910349  0  0  -0.359491  0  3.918683  0  0  -0.163855  -0.349556  0  3.904582  0
C  C42  1  0.18553181  0.26703579  0.84501573  1  0  -0.312215  0  3.671655  0  0  -0.353581  0  3.910356  0  0  -0.359517  0  3.918812  0  0  -0.163863  -0.349453  0  3.90459  0
C  C43  1  0.26704348  0.18552535  0.15498385  1  0  -0.312193  0  3.671543  0  0  -0.353665  0  3.910329  0  0  -0.359487  0  3.918654  0  0  -0.163871  -0.349547  0  3.90457  0
C  C44  1  0.70487272  0.89532331  0.29581125  1  0  0.673417  0  3.776248  0  0  0.632714  0  4.05725  0  0  0.661699  0  4.057018  0  0  0.240763  0.613106  0  4.056778  0
C  C45  1  0.89532428  0.70487191  0.70418590  1  0  0.673336  0  3.776412  0  0  0.632647  0  4.057536  0  0  0.661622  0  4.057284  0  0  0.240841  0.613071  0  4.057013  0
C  C46  1  0.29515032  0.10466151  0.79581589  1  0  0.673092  0  3.776941  0  0  0.632399  0  4.058015  0  0  0.661408  0  4.057766  0  0  0.240634  0.612793  0  4.057541  0
C  C47  1  0.10465583  0.29512911  0.20418177  1  0  0.67318  0  3.776745  0  0  0.632416  0  4.05797  0  0  0.661397  0  4.057709  0  0  0.240699  0.612822  0  4.057474  0
N  N48  1  0.51134072  0.79808506  0.42872328  1  0  -0.630343  0  3.235398  0  0  -0.555163  0  3.47888  0  0  -0.58014  0  3.482421  0  0  -0.652952  -0.537623  0  3.475978  0
N  N49  1  0.79808411  0.51136823  0.57127507  1  0  -0.630253  0  3.235356  0  0  -0.555188  0  3.478772  0  0  -0.580163  0  3.482312  0  0  -0.652952  -0.537649  0  3.475874  0
N  N50  1  0.48865545  0.20191679  0.92872362  1  0  -0.630477  0  3.235662  0  0  -0.555274  0  3.479047  0  0  -0.580244  0  3.482574  0  0  -0.652985  -0.537741  0  3.476156  0
N  N51  1  0.20191849  0.48863241  0.07127379  1  0  -0.63028  0  3.2353  0  0  -0.555151  0  3.478825  0  0  -0.580122  0  3.48236  0  0  -0.653022  -0.537619  0  3.475933  0
N  N52  1  0.71308628  0.81380227  0.23689737  1  0  -0.693674  0  3.108592  0  0  -0.656251  0  3.347309  0  0  -0.679799  0  3.342981  0  0  -0.573758  -0.639988  0  3.349951  0
N  N53  1  0.81379285  0.71308351  0.76310814  1  0  -0.69369  0  3.108484  0  0  -0.65624  0  3.347099  0  0  -0.679792  0  3.342776  0  0  -0.573721  -0.639991  0  3.349735  0
N  N54  1  0.28691952  0.18620556  0.73689677  1  0  -0.693676  0  3.108553  0  0  -0.656275  0  3.34716  0  0  -0.679822  0  3.342827  0  0  -0.573763  -0.640019  0  3.349818  0
N  N55  1  0.18621290  0.28690922  0.26310889  1  0  -0.693786  0  3.107989  0  0  -0.656341  0  3.346684  0  0  -0.679896  0  3.342374  0  0  -0.573766  -0.64009  0  3.34934  0
O  O56  1  0.11237304  0.11745186  0.40144861  1  0  -0.631862  0  2.150027  0  0  -0.535401  0  2.418815  0  0  -0.568826  0  2.409036  0  0  -0.340676  -0.51201  0  2.424771  0
O  O57  1  0.11743728  0.11241218  0.59855641  1  0  -0.631493  0  2.150268  0  0  -0.535148  0  2.418995  0  0  -0.568577  0  2.409222  0  0  -0.340514  -0.511753  0  2.424942  0
O  O58  1  0.88762540  0.88254478  0.90144741  1  0  -0.631735  0  2.150055  0  0  -0.535314  0  2.418866  0  0  -0.568739  0  2.409081  0  0  -0.340633  -0.511926  0  2.424823  0
O  O59  1  0.88256305  0.88759368  0.09855409  1  0  -0.63162  0  2.150277  0  0  -0.53523  0  2.419025  0  0  -0.568657  0  2.409248  0  0  -0.340572  -0.51184  0  2.424976  0
O  O60  1  0.78577216  0.22739303  0.45854900  1  0  -0.647381  0  2.031119  0  0  -0.593959  0  2.29481  0  0  -0.619311  0  2.282567  0  0  -0.32349  -0.576105  0  2.302661  0
O  O61  1  0.22737535  0.78582794  0.54144912  1  0  -0.647232  0  2.031196  0  0  -0.593858  0  2.294792  0  0  -0.619197  0  2.282521  0  0  -0.323472  -0.576025  0  2.302682  0
O  O62  1  0.21422685  0.77260660  0.95854812  1  0  -0.647468  0  2.031144  0  0  -0.594044  0  2.294822  0  0  -0.619394  0  2.282572  0  0  -0.323547  -0.576192  0  2.302675  0
O  O63  1  0.77262862  0.21418229  0.04144765  1  0  -0.647288  0  2.031152  0  0  -0.593891  0  2.294771  0  0  -0.61923  0  2.282501  0  0  -0.323466  -0.57604  0  2.302617  0
O  O64  1  0.61667289  0.09572743  0.31067056  1  0  -0.605102  0  1.935061  0  0  -0.543548  0  2.149715  0  0  -0.566134  0  2.141791  0  0  -0.305025  -0.527907  0  2.154853  0
O  O65  1  0.09571166  0.61667777  0.68933061  1  0  -0.604879  0  1.935299  0  0  -0.543487  0  2.150118  0  0  -0.566114  0  2.142222  0  0  -0.305094  -0.52783  0  2.155211  0
O  O66  1  0.38333697  0.90429794  0.81067417  1  0  -0.604542  0  1.935903  0  0  -0.543142  0  2.150675  0  0  -0.565806  0  2.142813  0  0  -0.304816  -0.527501  0  2.155841  0
O  O67  1  0.90430262  0.38331950  0.18932743  1  0  -0.604641  0  1.936048  0  0  -0.543163  0  2.150864  0  0  -0.56582  0  2.143002  0  0  -0.304893  -0.52753  0  2.156023  0
