# generated using pymatgen
data_HoCuH10C16N5O9
_symmetry_space_group_name_H-M   'P 1'
_cell_length_a   10.35863175
_cell_length_b   10.86321685
_cell_length_c   11.68781312
_cell_angle_alpha   72.71616420
_cell_angle_beta   82.01973299
_cell_angle_gamma   59.20464871
_symmetry_Int_Tables_number   1
_chemical_formula_structural   HoCuH10C16N5O9
_chemical_formula_sum   'Ho2 Cu2 H20 C32 N10 O18'
_cell_volume   1078.60840609
_cell_formula_units_Z   2
loop_
 _symmetry_equiv_pos_site_id
 _symmetry_equiv_pos_as_xyz
  1  'x, y, z'
loop_
 _atom_site_type_symbol
 _atom_site_label
 _atom_site_symmetry_multiplicity
 _atom_site_fract_x
 _atom_site_fract_y
 _atom_site_fract_z
 _atom_site_occupancy
 _atom_site_pbe_bader_charge
 _atom_site_pbe_bader_spin_density
 _atom_site_pbe_cm5_charge
 _atom_site_pbe_ddec_charge
 _atom_site_pbe_ddec_spin_density
 _atom_site_pbe_ddec_sum_bond_order
 _atom_site_pbe_magmom
Ho  Ho0  1  0.43325577  0.00615965  0.81716935  1  2.178128  0.000172  1.519917  2.063849  0.00017  2.10536  0.0
Ho  Ho1  1  0.56673664  0.99384333  0.18284188  1  2.177947  0.000172  1.51994  2.063777  0.00017  2.105548  0.0
Cu  Cu2  1  0.99999841  0.99999729  0.99999910  1  1.036857  -0.533256  0.811182  0.638671  -0.706779  2.43498  -0.531
Cu  Cu3  1  0.99999223  0.00000053  0.50000013  1  1.037378  0.532825  0.800718  0.620834  0.706276  2.430326  0.53
H  H4  1  0.91766030  0.77342027  0.49443260  1  0.144231  0.002447  0.127725  0.108992  0.001175  0.990522  0.002
H  H5  1  0.08235242  0.22658078  0.50555203  1  0.144173  0.002447  0.127757  0.109011  0.001175  0.990473  0.002
H  H6  1  0.01627093  0.49972764  0.58829959  1  0.102622  0.001307  0.114281  0.119855  0.000683  1.013023  0.001
H  H7  1  0.98377210  0.50026019  0.41165587  1  0.101919  0.001307  0.114155  0.119824  0.000683  1.013244  0.001
H  H8  1  0.36718086  0.48687533  0.75710844  1  0.101259  0.001254  0.118529  0.131578  0.00064  0.992304  0.001
H  H9  1  0.63283482  0.51312342  0.24287468  1  0.1013  0.001254  0.11851  0.131586  0.00064  0.992328  0.001
H  H10  1  0.25901766  0.76105294  0.65517643  1  0.113412  0.002378  0.120795  0.095849  0.001103  1.023913  0.002
H  H11  1  0.74098223  0.23895190  0.34482366  1  0.113444  0.002378  0.120795  0.095789  0.001103  1.023866  0.002
H  H12  1  0.01243289  0.25210487  0.81655670  1  0.116297  -0.002334  0.11972  0.096259  -0.001081  1.040315  -0.002
H  H13  1  0.98756457  0.74789899  0.18344492  1  0.157613  -0.002296  0.119734  0.096279  -0.001081  1.0404  -0.002
H  H14  1  0.86229277  0.53230649  0.76212847  1  0.101159  -0.001291  0.109267  0.118768  -0.000663  1.02611  -0.001
H  H15  1  0.13771179  0.46769814  0.23788636  1  0.100911  -0.001291  0.109282  0.118793  -0.000663  1.026073  -0.001
H  H16  1  0.58509380  0.50005476  0.06557196  1  0.108892  -0.00129  0.114709  0.122236  -0.000664  1.009977  -0.001
H  H17  1  0.41491392  0.49993885  0.93444388  1  0.1089  -0.00129  0.114746  0.122233  -0.000664  1.009836  -0.001
H  H18  1  0.74015636  0.22180072  0.10805705  1  0.119401  -0.002375  0.123297  0.093416  -0.001103  1.029119  -0.002
H  H19  1  0.25984584  0.77819314  0.89194759  1  0.11949  -0.002375  0.123315  0.09341  -0.001103  1.029151  -0.002
H  H20  1  0.20751345  0.98025670  0.71831490  1  0.631809  -8e-06  0.293659  0.343831  -2.1e-05  1.018757  0.0
H  H21  1  0.79248159  0.01972766  0.28169535  1  0.632103  -8e-06  0.293594  0.343693  -2.1e-05  1.018955  0.0
H  H22  1  0.32906223  0.94441718  0.61860393  1  0.64453  -3.9e-05  0.307214  0.42029  -1.1e-05  0.893828  0.0
H  H23  1  0.67093117  0.05558575  0.38140716  1  0.644806  -3.9e-05  0.30725  0.420364  -1.1e-05  0.893722  0.0
C  C24  1  0.80332202  0.02760739  0.70714981  1  0.425045  -0.00099  0.103966  0.000454  -0.000208  3.880165  0.0
C  C25  1  0.19665795  0.97240266  0.29285361  1  0.438825  -0.000989  0.103998  0.000498  -0.000209  3.879966  0.0
C  C26  1  0.81305366  0.01376626  0.82938872  1  0.463904  0.002424  0.102328  0.002359  0.001319  3.909158  0.001
C  C27  1  0.18693092  0.98624468  0.17061714  1  0.463615  0.002423  0.10231  0.002357  0.001318  3.908848  0.001
C  C28  1  0.69202049  0.04502186  0.62454836  1  1.672373  1.8e-05  0.234147  0.6416  -1e-05  4.18599  0.0
C  C29  1  0.30795616  0.95498287  0.37545798  1  1.658638  1.6e-05  0.234163  0.641535  -1e-05  4.186368  0.0
C  C30  1  0.72694692  0.98814314  0.93737316  1  1.618834  0.000171  0.236405  0.639953  0.000143  4.188204  0.0
C  C31  1  0.27304215  0.01186217  0.06263107  1  1.618927  0.000171  0.236407  0.639916  0.000143  4.188281  0.0
C  C32  1  0.01726412  0.70613708  0.55263699  1  0.461249  -0.001082  0.054748  0.094767  0.000119  3.904202  -0.001
C  C33  1  0.98275100  0.29386279  0.44734504  1  0.461662  -0.001081  0.054772  0.094864  0.000121  3.904293  -0.001
C  C34  1  0.07184768  0.55502404  0.60489758  1  -0.010361  0.006636  -0.070689  -0.134807  0.00456  3.92678  0.005
C  C35  1  0.92818360  0.44496536  0.39507469  1  -0.009798  0.006635  -0.070451  -0.134701  0.00456  3.927267  0.005
C  C36  1  0.19836561  0.47433684  0.68043581  1  -0.020095  -0.004131  0.014425  0.040485  -0.002772  3.912657  -0.003
C  C37  1  0.80166297  0.52566029  0.31953377  1  -0.020232  -0.004131  0.014236  0.040366  -0.002772  3.912939  -0.003
C  C38  1  0.26775986  0.54827567  0.69930494  1  0.077225  0.006304  -0.068903  -0.126877  0.004451  3.913721  0.005
C  C39  1  0.73225840  0.45172188  0.30067984  1  0.077286  0.006302  -0.068824  -0.126943  0.00445  3.913873  0.005
C  C40  1  0.20820919  0.69896921  0.64358609  1  0.418224  -0.001095  0.04725  0.086028  -2.7e-05  3.924699  -0.001
C  C41  1  0.79179691  0.30103429  0.35640743  1  0.417317  -0.001094  0.047286  0.086263  -2.8e-05  3.924585  -0.001
C  C42  1  0.26167756  0.31116861  0.74027319  1  1.562105  0.000115  0.188383  0.558734  9.8e-05  4.254504  0.0
C  C43  1  0.73833254  0.68883147  0.25970871  1  1.562549  0.000115  0.188368  0.558643  9.8e-05  4.254499  0.0
C  C44  1  0.91631487  0.31107035  0.86903788  1  0.396012  0.000723  0.046011  0.087954  -0.000249  3.912273  0.001
C  C45  1  0.08368228  0.68893243  0.13096753  1  0.354062  0.000683  0.045919  0.087805  -0.00025  3.912522  0.001
C  C46  1  0.83411060  0.46543922  0.83949099  1  0.084758  -0.006469  -0.073913  -0.131133  -0.004595  3.91768  -0.005
C  C47  1  0.16588843  0.53456673  0.16052347  1  0.085514  -0.006468  -0.073935  -0.131198  -0.004596  3.917533  -0.005
C  C48  1  0.71214235  0.53574495  0.90987105  1  0.016499  0.004082  0.011665  0.035698  0.002742  3.917152  0.003
C  C49  1  0.28786279  0.46425639  0.09014465  1  0.016219  0.004082  0.01162  0.03571  0.002742  3.916723  0.003
C  C50  1  0.67939516  0.44771130  0.00949968  1  -0.04589  -0.006712  -0.070942  -0.132834  -0.0046  3.932926  -0.005
C  C51  1  0.32061257  0.55228014  0.99051593  1  -0.045769  -0.006712  -0.070933  -0.132767  -0.0046  3.932594  -0.005
C  C52  1  0.76560451  0.29383723  0.03349795  1  0.498176  0.001117  0.052555  0.099237  -0.000109  3.91835  0.001
C  C53  1  0.23439781  0.70615662  0.96650924  1  0.498273  0.001118  0.052568  0.099207  -0.000109  3.91822  0.001
C  C54  1  0.61505377  0.70212731  0.87605639  1  1.568561  -0.00015  0.190087  0.567125  -0.000126  4.231462  0.0
C  C55  1  0.38493626  0.29787467  0.12395722  1  1.568749  -0.00015  0.190078  0.56715  -0.000126  4.23146  0.0
N  N56  1  0.92918139  0.03036264  0.65832023  1  -0.68093  0.071409  -0.255836  -0.180391  0.050181  3.667462  0.063
N  N57  1  0.07079911  0.96963759  0.34168168  1  -0.680937  0.071407  -0.255903  -0.180499  0.050179  3.667433  0.063
N  N58  1  0.01166175  0.02171895  0.74093345  1  -0.136477  -0.000211  -0.084961  -0.038714  -0.000284  3.285757  0.0
N  N59  1  0.98832980  0.97827427  0.25906792  1  -0.136888  -0.000209  -0.084897  -0.038635  -0.000282  3.285693  0.0
N  N60  1  0.94170000  0.01196915  0.84413413  1  -0.67752  -0.069138  -0.252819  -0.16902  -0.048763  3.671759  -0.062
N  N61  1  0.05829552  0.98802608  0.15586688  1  -0.677453  -0.069138  -0.252838  -0.168982  -0.048762  3.671546  -0.062
N  N62  1  0.08466770  0.77619781  0.57245675  1  -1.209243  0.101509  -0.334316  -0.210144  0.069291  3.604761  0.089
N  N63  1  0.91533557  0.22380580  0.42754060  1  -1.208769  0.101502  -0.334397  -0.210354  0.069288  3.604622  0.089
N  N64  1  0.88108456  0.22737015  0.96391531  1  -1.214853  -0.103908  -0.335337  -0.212232  -0.070759  3.591031  -0.091
N  N65  1  0.11891460  0.77262819  0.03608936  1  -1.214947  -0.10391  -0.335253  -0.212063  -0.07076  3.590993  -0.091
O  O66  1  0.73901530  0.03517284  0.51968088  1  -1.176422  -0.00427  -0.307941  -0.572979  -0.002767  2.210079  -0.003
O  O67  1  0.26095655  0.96484625  0.48032203  1  -1.175802  -0.004271  -0.307853  -0.572862  -0.002767  2.210178  -0.003
O  O68  1  0.56144057  0.07326770  0.66152418  1  -1.189385  -0.000175  -0.410798  -0.65867  -0.000108  2.294554  0.0
O  O69  1  0.43853995  0.92673470  0.33847881  1  -1.189621  -0.000175  -0.410907  -0.658744  -0.000108  2.294779  0.0
O  O70  1  0.61929510  0.96936058  0.92731481  1  -1.182557  0.000581  -0.390948  -0.662643  0.000361  2.427312  0.001
O  O71  1  0.38069057  0.03064595  0.07269216  1  -1.182359  0.000581  -0.390907  -0.662582  0.000361  2.427364  0.001
O  O72  1  0.76899075  0.98081131  0.03841556  1  -1.176456  0.003425  -0.359168  -0.648732  0.002274  2.266936  0.002
O  O73  1  0.23099667  0.01919732  0.96158624  1  -1.176465  0.003426  -0.359186  -0.648764  0.002274  2.267018  0.002
O  O74  1  0.21944924  0.23690239  0.70429159  1  -1.182829  -0.000333  -0.374526  -0.638078  -0.000214  2.183203  0.0
O  O75  1  0.78055924  0.76309557  0.29569803  1  -1.182788  -0.000333  -0.374528  -0.638022  -0.000214  2.183075  0.0
O  O76  1  0.35881502  0.25147104  0.82379926  1  -1.151666  -0.000341  -0.36952  -0.602575  -0.000219  2.206704  0.0
O  O77  1  0.64119475  0.74853014  0.17618665  1  -1.151909  -0.000341  -0.369488  -0.602466  -0.000219  2.206712  0.0
O  O78  1  0.50199395  0.76183883  0.94054178  1  -1.166393  0.000317  -0.376659  -0.612533  0.000194  2.216978  0.0
O  O79  1  0.49800248  0.23815199  0.05947836  1  -1.166476  0.000317  -0.376629  -0.612535  0.000194  2.216972  0.0
O  O80  1  0.64613023  0.77844799  0.78274752  1  -1.164948  0.000278  -0.37563  -0.613549  0.000172  2.160645  0.0
O  O81  1  0.35386349  0.22155274  0.21727015  1  -1.164816  0.000278  -0.375707  -0.613579  0.000172  2.160783  0.0
O  O82  1  0.31804286  0.93637230  0.70630582  1  -1.275769  -0.000103  -0.644118  -0.853176  -7e-05  2.110469  0.0
O  O83  1  0.68195072  0.06361756  0.29370648  1  -1.276357  -0.000103  -0.644122  -0.853112  -7.1e-05  2.110643  0.0
