# generated using pymatgen
data_AlH7(C2O)5
_symmetry_space_group_name_H-M   'P 1'
_cell_length_a   7.05200712
_cell_length_b   11.19100297
_cell_length_c   11.19073911
_cell_angle_alpha   77.79802826
_cell_angle_beta   71.58819049
_cell_angle_gamma   71.58384245
_symmetry_Int_Tables_number   1
_chemical_formula_structural   AlH7(C2O)5
_chemical_formula_sum   'Al2 H14 C20 O10'
_cell_volume   788.90937439
_cell_formula_units_Z   2
loop_
 _symmetry_equiv_pos_site_id
 _symmetry_equiv_pos_as_xyz
  1  'x, y, z'
loop_
 _atom_site_type_symbol
 _atom_site_label
 _atom_site_symmetry_multiplicity
 _atom_site_fract_x
 _atom_site_fract_y
 _atom_site_fract_z
 _atom_site_occupancy
 _atom_site_pbe_bader_charge
 _atom_site_pbe_bader_spin_density
 _atom_site_pbe_cm5_charge
 _atom_site_pbe_ddec_charge
 _atom_site_pbe_ddec_spin_density
 _atom_site_pbe_ddec_sum_bond_order
 _atom_site_pbe_magmom
Al  Al0  1  0.50029154  0.49996299  0.49950857  1  2.503035  0  0.41221  1.639545  0  2.542521  0
Al  Al1  1  0.99970200  0.50050037  0.50004660  1  2.503266  0  0.412355  1.639313  0  2.542544  0
H  H2  1  0.24996745  0.37350481  0.62656479  1  0.582494  0  0.337329  0.411727  0  0.881401  0
H  H3  1  0.74995827  0.62707845  0.37298766  1  0.579103  0  0.337606  0.413034  0  0.879711  0
H  H4  1  0.85677707  0.50064553  0.88159730  1  0.092881  0  0.100872  0.09779  0  1.079987  0
H  H5  1  0.74008540  0.49935989  0.11724190  1  0.09081  0  0.101167  0.098083  0  1.0809  0
H  H6  1  0.96069304  0.58332193  0.10986925  1  0.045519  0  0.100652  0.110249  0  0.980429  0
H  H7  1  0.03653544  0.41386432  0.12971255  1  0.061975  0  0.104428  0.119048  0  0.970022  0
H  H8  1  0.15360341  0.41595225  0.89093304  1  0.055613  0  0.100408  0.110189  0  0.979654  0
H  H9  1  0.07948592  0.58543099  0.87112055  1  0.075581  0  0.105099  0.119322  0  0.969938  0
H  H10  1  0.75988002  0.88279670  0.50062949  1  0.090244  0  0.1011  0.098061  0  1.08072  0
H  H11  1  0.64323815  0.11843776  0.49935158  1  0.092864  0  0.100891  0.097837  0  1.079856  0
H  H12  1  0.34643466  0.10902572  0.58405528  1  0.05526  0  0.100396  0.110148  0  0.979775  0
H  H13  1  0.42053514  0.12884588  0.41458556  1  0.074847  0  0.105163  0.119484  0  0.969773  0
H  H14  1  0.53928991  0.89010918  0.41667212  1  0.044378  0  0.100627  0.11016  0  0.980533  0
H  H15  1  0.46348533  0.87024492  0.58612827  1  0.062205  0  0.104402  0.118937  0  0.970162  0
C  C16  1  0.86284520  0.27603961  0.50020724  1  1.582388  0  0.26874  0.654224  0  4.087075  0
C  C17  1  0.63718345  0.49979003  0.72396876  1  1.582138  0  0.268775  0.65422  0  4.087162  0
C  C18  1  0.13841003  0.72436496  0.49963805  1  1.584562  0  0.269006  0.653012  0  4.082846  0
C  C19  1  0.36155994  0.50035397  0.27564724  1  1.584373  0  0.269097  0.653117  0  4.08299  0
C  C20  1  0.42984251  0.49931330  0.13588567  1  -0.045117  0  -0.013508  -0.087858  0  3.991796  0
C  C21  1  0.56492925  0.50036551  0.86378149  1  0.005301  0  -0.011558  -0.086118  0  3.994736  0
C  C22  1  0.29876716  0.49934353  0.06581935  1  -0.055394  0  -0.002749  0.067458  0  3.905967  0
C  C23  1  0.69898495  0.50024655  0.93400583  1  -0.079869  0  -0.090367  -0.106666  0  3.991462  0
C  C24  1  0.36399527  0.49995944  0.93427456  1  -0.041016  0  -0.004969  0.063657  0  3.907825  0
C  C25  1  0.63394202  0.49957843  0.06526059  1  0.049186  0  -0.089451  -0.106227  0  3.990512  0
C  C26  1  0.08154398  0.49901699  0.07502834  1  -0.048999  0  -0.149991  -0.203387  0  3.885563  0
C  C27  1  0.15534226  0.50024841  0.92563503  1  -0.025222  0  -0.149203  -0.201209  0  3.883297  0
C  C28  1  0.93509233  0.13622998  0.49963519  1  0.00514  0  -0.011369  -0.08575  0  3.99467  0
C  C29  1  0.07013552  0.86412808  0.50067927  1  -0.045119  0  -0.013534  -0.088047  0  3.99178  0
C  C30  1  0.13602721  0.06571790  0.50004326  1  -0.041004  0  -0.00501  0.063535  0  3.907775  0
C  C31  1  0.86603120  0.93477330  0.50040788  1  0.049921  0  -0.089389  -0.10616  0  3.989764  0
C  C32  1  0.20123112  0.93417491  0.50065269  1  -0.055352  0  -0.002668  0.067583  0  3.905534  0
C  C33  1  0.80102748  0.06602419  0.49975301  1  -0.079974  0  -0.090462  -0.106847  0  3.991322  0
C  C34  1  0.34468149  0.07433468  0.49976044  1  -0.024282  0  -0.149231  -0.201291  0  3.88349  0
C  C35  1  0.41847100  0.92495337  0.50097995  1  -0.048074  0  -0.150065  -0.203304  0  3.885771  0
O  O36  1  0.67333056  0.32932546  0.50117883  1  -1.261976  0  -0.23501  -0.595588  0  2.338439  0
O  O37  1  0.82667372  0.49882498  0.67068826  1  -1.261809  0  -0.235056  -0.595577  0  2.338889  0
O  O38  1  0.00305108  0.67118475  0.49888266  1  -1.258023  0  -0.235985  -0.595686  0  2.337176  0
O  O39  1  0.49692472  0.50111901  0.32883203  1  -1.257568  0  -0.23593  -0.595753  0  2.337102  0
O  O40  1  0.32808761  0.67076336  0.49813696  1  -1.263715  0  -0.231841  -0.590338  0  2.334139  0
O  O41  1  0.17188498  0.50186874  0.32923454  1  -1.264054  0  -0.232031  -0.590422  0  2.334326  0
O  O42  1  0.99766887  0.32958368  0.50116509  1  -1.254531  0  -0.232319  -0.591181  0  2.335606  0
O  O43  1  0.50232954  0.49884621  0.67042435  1  -1.254477  0  -0.232301  -0.591199  0  2.335234  0
O  O44  1  0.25003247  0.44238418  0.55762784  1  -1.395266  0  -0.453284  -0.979669  0  2.10625  0
O  O45  1  0.74995036  0.55813420  0.44186767  1  -1.392246  0  -0.453043  -0.981456  0  2.105476  0
