# generated using pymatgen
data_DyCuH8C14(NO4)2
_symmetry_space_group_name_H-M   'P 1'
_cell_length_a   9.14179417
_cell_length_b   9.51903249
_cell_length_c   21.51000000
_cell_angle_alpha   90.00000000
_cell_angle_beta   90.00000000
_cell_angle_gamma   116.30204894
_symmetry_Int_Tables_number   1
_chemical_formula_structural   DyCuH8C14(NO4)2
_chemical_formula_sum   'Dy4 Cu4 H32 C56 N8 O32'
_cell_volume   1678.03379146
_cell_formula_units_Z   4
loop_
 _symmetry_equiv_pos_site_id
 _symmetry_equiv_pos_as_xyz
  1  'x, y, z'
loop_
 _atom_site_type_symbol
 _atom_site_label
 _atom_site_symmetry_multiplicity
 _atom_site_fract_x
 _atom_site_fract_y
 _atom_site_fract_z
 _atom_site_occupancy
 _atom_site_hle17_bader_spin_density
 _atom_site_hle17_ddec_charge
 _atom_site_hle17_ddec_spin_density
 _atom_site_hle17_ddec_sum_bond_order
 _atom_site_hle17_magmom
 _atom_site_hse06_10hf_bader_spin_density
 _atom_site_hse06_10hf_ddec_charge
 _atom_site_hse06_10hf_ddec_spin_density
 _atom_site_hse06_10hf_ddec_sum_bond_order
 _atom_site_hse06_10hf_magmom
 _atom_site_hse06_bader_spin_density
 _atom_site_hse06_ddec_charge
 _atom_site_hse06_ddec_spin_density
 _atom_site_hse06_ddec_sum_bond_order
 _atom_site_hse06_magmom
 _atom_site_pbe_bader_charge
 _atom_site_pbe_bader_spin_density
 _atom_site_pbe_cm5_charge
 _atom_site_pbe_ddec_charge
 _atom_site_pbe_ddec_spin_density
 _atom_site_pbe_ddec_sum_bond_order
 _atom_site_pbe_magmom
Dy  Dy0  1  0.87641856  0.64689036  0.00863505  1  0  2.250015  0  1.654394  0  0  2.105398  0  2.131453  0  0  2.232501  0  1.941677  0  2.185759  0  1.503311  2.069251  0  2.163517  0
Dy  Dy1  1  0.62358437  0.35310816  0.50863459  1  0  2.249967  0  1.654375  0  0  2.10538  0  2.131353  0  0  2.232442  0  1.941668  0  2.185881  0  1.503233  2.069229  0  2.163427  0
Dy  Dy2  1  0.12359113  0.35311402  0.99136681  1  0  2.249997  0  1.654371  0  0  2.105339  0  2.131471  0  0  2.232475  0  1.941652  0  2.185947  0  1.503299  2.06919  0  2.163538  0
Dy  Dy3  1  0.37641063  0.64688099  0.49136588  1  0  2.249891  0  1.654474  0  0  2.105209  0  2.131617  0  0  2.232361  0  1.941767  0  2.185782  0  1.503242  2.069058  0  2.163688  0
Cu  Cu4  1  0.54487917  0.69601539  0.14664575  1  0  0.499614  0  1.614169  0  0  0.359063  0  2.052179  0  0  0.371492  0  2.004277  0  0.660245  0  0.530123  0.356568  0  2.081418  0
Cu  Cu5  1  0.95512864  0.30399134  0.64664528  1  0  0.499679  0  1.614101  0  0  0.359078  0  2.052101  0  0  0.371529  0  2.004227  0  0.660293  0  0.530118  0.356625  0  2.081325  0
Cu  Cu6  1  0.45511737  0.30399368  0.85335565  1  0  0.499624  0  1.614331  0  0  0.359107  0  2.052402  0  0  0.371534  0  2.004517  0  0.660302  0  0.530206  0.356671  0  2.081639  0
Cu  Cu7  1  0.04488053  0.69600718  0.35335425  1  0  0.499611  0  1.614224  0  0  0.359056  0  2.052266  0  0  0.371481  0  2.004366  0  0.660316  0  0.530163  0.356632  0  2.081487  0
H  H8  1  0.27369533  0.03036960  0.93002139  1  0  0.099481  0  0.950932  0  0  0.107321  0  1.016092  0  0  0.110531  0  1.012377  0  0.13827  0  0.124134  0.105093  0  1.018352  0
H  H9  1  0.22629110  0.96962775  0.43002278  1  0  0.099506  0  0.951019  0  0  0.107356  0  1.016159  0  0  0.11057  0  1.012442  0  0.137762  0  0.124161  0.105125  0  1.01842  0
H  H10  1  0.72629900  0.96964181  0.06997629  1  0  0.099507  0  0.950982  0  0  0.107365  0  1.016099  0  0  0.110577  0  1.012387  0  0.138124  0  0.124208  0.105136  0  1.01835  0
H  H11  1  0.77371750  0.03037429  0.56996932  1  0  0.099521  0  0.95103  0  0  0.107421  0  1.016108  0  0  0.110641  0  1.012397  0  0.138122  0  0.124161  0.105182  0  1.018379  0
H  H12  1  0.56803459  0.77989858  0.93240493  1  0  0.112925  0  0.945364  0  0  0.121479  0  1.009021  0  0  0.124652  0  1.006239  0  0.109997  0  0.115433  0.119057  0  1.011348  0
H  H13  1  0.93195079  0.22010697  0.43240214  1  0  0.112947  0  0.945222  0  0  0.12149  0  1.008896  0  0  0.124661  0  1.00612  0  0.109976  0  0.11544  0.119068  0  1.011223  0
H  H14  1  0.43196081  0.22011752  0.06759507  1  0  0.112864  0  0.945287  0  0  0.121415  0  1.00896  0  0  0.124585  0  1.006184  0  0.109875  0  0.115417  0.118991  0  1.011289  0
H  H15  1  0.06804310  0.77988452  0.56759693  1  0  0.11285  0  0.945311  0  0  0.121391  0  1.009002  0  0  0.12456  0  1.00623  0  0.109884  0  0.11541  0.118965  0  1.01133  0
H  H16  1  0.99571394  0.66953280  0.22172199  1  0  0.092189  0  0.931431  0  0  0.099861  0  0.996375  0  0  0.104369  0  0.990679  0  0.106802  0  0.122003  0.096691  0  1.00017  0
H  H17  1  0.50429334  0.33046806  0.72172385  1  0  0.092174  0  0.931403  0  0  0.099844  0  0.996356  0  0  0.104356  0  0.990657  0  0.106773  0  0.121997  0.096682  0  1.000131  0
H  H18  1  0.00430721  0.33047509  0.77827848  1  0  0.092206  0  0.931474  0  0  0.099886  0  0.996403  0  0  0.104395  0  0.990704  0  0.106721  0  0.122018  0.096691  0  1.000225  0
H  H19  1  0.49570272  0.66952577  0.27827848  1  0  0.092178  0  0.931501  0  0  0.099846  0  0.996451  0  0  0.104355  0  0.990757  0  0.106773  0  0.122015  0.096701  0  1.00021  0
H  H20  1  0.15323501  0.25387024  0.27513575  1  0  0.106111  0  0.935628  0  0  0.120395  0  0.984164  0  0  0.12296  0  0.985608  0  0.082496  0  0.11212  0.118771  0  0.982995  0
H  H21  1  0.34676509  0.74612828  0.77513668  1  0  0.106068  0  0.935688  0  0  0.120359  0  0.984217  0  0  0.122912  0  0.985674  0  0.082409  0  0.112116  0.11873  0  0.983052  0
H  H22  1  0.84676652  0.74612593  0.72486564  1  0  0.106157  0  0.935562  0  0  0.120389  0  0.984151  0  0  0.122953  0  0.985597  0  0.082593  0  0.112127  0.11876  0  0.982982  0
H  H23  1  0.65324022  0.25387610  0.22486099  1  0  0.106087  0  0.935686  0  0  0.120347  0  0.984245  0  0  0.122885  0  0.985722  0  0.082939  0  0.112108  0.118719  0  0.983077  0
H  H24  1  0.10568787  0.29616457  0.16167550  1  0  0.131924  0  0.920765  0  0  0.140428  0  0.979266  0  0  0.144874  0  0.974328  0  0.161101  0  0.124062  0.137051  0  0.98312  0
H  H25  1  0.39430026  0.70382223  0.66167782  1  0  0.131868  0  0.920982  0  0  0.140357  0  0.979502  0  0  0.14479  0  0.974567  0  0.160597  0  0.124038  0.136975  0  0.983353  0
H  H26  1  0.89430658  0.70382575  0.83832636  1  0  0.131921  0  0.920762  0  0  0.140409  0  0.979275  0  0  0.144854  0  0.974334  0  0.160574  0  0.124054  0.137029  0  0.98313  0
H  H27  1  0.60568547  0.29616105  0.33832171  1  0  0.131842  0  0.920834  0  0  0.140329  0  0.979373  0  0  0.144769  0  0.974437  0  0.161155  0  0.124028  0.136949  0  0.983224  0
H  H28  1  0.77961365  0.00138161  0.87137517  1  0  0.126066  0  0.934057  0  0  0.138389  0  0.985392  0  0  0.142289  0  0.983344  0  0.127638  0  0.117812  0.135636  0  0.986812  0
H  H29  1  0.72037562  0.99861340  0.37137146  1  0  0.126177  0  0.933963  0  0  0.13842  0  0.985377  0  0  0.142317  0  0.983338  0  0.127579  0  0.11782  0.135666  0  0.986794  0
H  H30  1  0.22038233  0.99862863  0.12862436  1  0  0.126041  0  0.934092  0  0  0.138391  0  0.985414  0  0  0.142288  0  0.983371  0  0.127632  0  0.117798  0.135623  0  0.986847  0
H  H31  1  0.27962213  0.00137223  0.62862622  1  0  0.126133  0  0.933993  0  0  0.138408  0  0.985384  0  0  0.142305  0  0.983342  0  0.127565  0  0.117811  0.135634  0  0.986819  0
H  H32  1  0.71736919  0.21930543  0.83685077  1  0  0.063899  0  0.972915  0  0  0.072933  0  1.041135  0  0  0.075142  0  1.038536  0  0.06445  0  0.110829  0.071195  0  1.043134  0
H  H33  1  0.78261954  0.78068841  0.33685309  1  0  0.063927  0  0.972985  0  0  0.072983  0  1.041159  0  0  0.075193  0  1.038559  0  0.064332  0  0.110889  0.071249  0  1.043159  0
H  H34  1  0.28262243  0.78070247  0.16314412  1  0  0.063906  0  0.972977  0  0  0.072931  0  1.041199  0  0  0.075138  0  1.0386  0  0.064563  0  0.110857  0.071193  0  1.043196  0
H  H35  1  0.21738801  0.21930660  0.66314226  1  0  0.063935  0  0.972999  0  0  0.07294  0  1.041225  0  0  0.075148  0  1.038627  0  0.064472  0  0.110842  0.071204  0  1.043222  0
H  H36  1  0.13026265  0.43285005  0.35539377  1  0  0.099398  0  0.943525  0  0  0.10416  0  1.010674  0  0  0.107344  0  1.007678  0  0.143902  0  0.125006  0.101419  0  1.013975  0
H  H37  1  0.36974616  0.56715550  0.85539702  1  0  0.099382  0  0.943508  0  0  0.104162  0  1.010634  0  0  0.107348  0  1.007633  0  0.143858  0  0.125003  0.101416  0  1.01394  0
H  H38  1  0.86974868  0.56715316  0.64460762  1  0  0.099505  0  0.943469  0  0  0.104234  0  1.010659  0  0  0.107422  0  1.007654  0  0.144004  0  0.125028  0.101492  0  1.013958  0
H  H39  1  0.63026403  0.43285708  0.14460530  1  0  0.099427  0  0.94352  0  0  0.104197  0  1.010659  0  0  0.107383  0  1.00766  0  0.143935  0  0.125016  0.101455  0  1.013962  0
C  C40  1  0.98952190  0.99257721  0.96410321  1  0  0.548937  0  3.959006  0  0  0.505806  0  4.261963  0  0  0.535159  0  4.260581  0  1.571931  0  0.206185  0.485437  0  4.268181  0
C  C41  1  0.51046467  0.00741194  0.46410367  1  0  0.549218  0  3.958605  0  0  0.50606  0  4.261601  0  0  0.535415  0  4.260212  0  1.571908  0  0.206343  0.485694  0  4.267813  0
C  C42  1  0.01048396  0.00742600  0.03589958  1  0  0.549188  0  3.958987  0  0  0.506003  0  4.26201  0  0  0.535361  0  4.260627  0  1.610299  0  0.206284  0.485634  0  4.268224  0
C  C43  1  0.48950688  0.99256432  0.53589772  1  0  0.548923  0  3.959211  0  0  0.505752  0  4.262224  0  0  0.535104  0  4.260846  0  1.609969  0  0.206152  0.485387  0  4.268428  0
C  C44  1  0.27111102  0.75623898  0.97125755  1  0  0.720124  0  3.871572  0  0  0.672505  0  4.162161  0  0  0.709508  0  4.155087  0  1.6106  0  0.228688  0.648262  0  4.168169  0
C  C45  1  0.22887594  0.24376189  0.47125616  1  0  0.720035  0  3.871338  0  0  0.672506  0  4.161793  0  0  0.709512  0  4.154716  0  1.610218  0  0.228725  0.648256  0  4.167793  0
C  C46  1  0.72889155  0.24376657  0.02874198  1  0  0.720238  0  3.871423  0  0  0.672624  0  4.162008  0  0  0.709627  0  4.154932  0  1.61046  0  0.228709  0.648372  0  4.168015  0
C  C47  1  0.77111407  0.75624015  0.52874152  1  0  0.720271  0  3.871404  0  0  0.672683  0  4.161957  0  0  0.709689  0  4.154877  0  1.610549  0  0.228678  0.64843  0  4.167958  0
C  C48  1  0.01344026  0.51823673  0.11890795  1  0  0.705224  0  3.904574  0  0  0.656366  0  4.196427  0  0  0.692026  0  4.192702  0  1.603419  0  0.228371  0.632583  0  4.201848  0
C  C49  1  0.48655657  0.48175945  0.61890934  1  0  0.705226  0  3.904566  0  0  0.656383  0  4.196382  0  0  0.692046  0  4.192654  0  1.603467  0  0.22843  0.632604  0  4.201799  0
C  C50  1  0.98657053  0.48176531  0.88109344  1  0  0.705252  0  3.904243  0  0  0.656397  0  4.196065  0  0  0.692057  0  4.192338  0  1.603333  0  0.2284  0.632611  0  4.201488  0
C  C51  1  0.51343406  0.51822735  0.38109066  1  0  0.705203  0  3.904522  0  0  0.65638  0  4.196331  0  0  0.692027  0  4.192632  0  1.603647  0  0.228362  0.632605  0  4.201746  0
C  C52  1  0.40342544  0.88742732  0.93532822  1  0  -0.115082  0  3.719843  0  0  -0.089066  0  3.953434  0  0  -0.101649  0  3.975528  0  0.012849  0  -0.010899  -0.080611  0  3.937699  0
C  C53  1  0.09656264  0.11256886  0.43533008  1  0  -0.115049  0  3.719782  0  0  -0.089081  0  3.953371  0  0  -0.101662  0  3.97546  0  0.012516  0  -0.010922  -0.080626  0  3.937626  0
C  C54  1  0.59656893  0.11257706  0.06466946  1  0  -0.115154  0  3.719888  0  0  -0.089151  0  3.953469  0  0  -0.101736  0  3.975564  0  0.011904  0  -0.010946  -0.080698  0  3.937734  0
C  C55  1  0.90343614  0.88742849  0.56466527  1  0  -0.115161  0  3.719958  0  0  -0.089192  0  3.953587  0  0  -0.101776  0  3.975681  0  0.012288  0  -0.010936  -0.080738  0  3.937838  0
C  C56  1  0.38213009  0.01771365  0.91683357  1  0  0.11889  0  3.631595  0  0  0.080065  0  3.869716  0  0  0.089136  0  3.885161  0  0.432257  0  0.049188  0.073686  0  3.859986  0
C  C57  1  0.11785311  0.98227433  0.41683450  1  0  0.118944  0  3.631911  0  0  0.080081  0  3.869969  0  0  0.089132  0  3.88545  0  0.432891  0  0.049189  0.073695  0  3.860234  0
C  C58  1  0.61786102  0.98228604  0.08316457  1  0  0.118907  0  3.631892  0  0  0.08006  0  3.86995  0  0  0.089122  0  3.885408  0  0.432604  0  0.049144  0.073668  0  3.860217  0
C  C59  1  0.88215386  0.01772654  0.58316086  1  0  0.118918  0  3.632109  0  0  0.080015  0  3.870107  0  0  0.089058  0  3.885591  0  0.432947  0  0.049161  0.073625  0  3.860367  0
C  C60  1  0.54715941  0.87921150  0.91813017  1  0  -0.00383  0  3.662374  0  0  -0.035429  0  3.914174  0  0  -0.02843  0  3.929488  0  0.004067  0  -0.0575  -0.040057  0  3.904409  0
C  C61  1  0.95283205  0.12078351  0.41812878  1  0  -0.003883  0  3.661999  0  0  -0.035461  0  3.913761  0  0  -0.02845  0  3.929057  0  0.004645  0  -0.057525  -0.040097  0  3.903994  0
C  C62  1  0.45283985  0.12079874  0.08186843  1  0  -0.003729  0  3.661934  0  0  -0.035293  0  3.913727  0  0  -0.028291  0  3.929041  0  0.005698  0  -0.057463  -0.039928  0  3.903964  0
C  C63  1  0.04716569  0.87920447  0.58186750  1  0  -0.003724  0  3.661872  0  0  -0.035302  0  3.91364  0  0  -0.028293  0  3.92894  0  0.005352  0  -0.057475  -0.039937  0  3.903867  0
C  C64  1  0.03253052  0.57792244  0.23235797  1  0  0.094246  0  3.70545  0  0  0.054688  0  3.950158  0  0  0.063161  0  3.966425  0  0.456478  0  0.04617  0.048673  0  3.940203  0
C  C65  1  0.46746957  0.42207842  0.73235844  1  0  0.094422  0  3.705186  0  0  0.054891  0  3.949824  0  0  0.063336  0  3.96614  0  0.456507  0  0.046231  0.048873  0  3.939851  0
C  C66  1  0.96748464  0.42208194  0.76764296  1  0  0.094326  0  3.705697  0  0  0.054749  0  3.950359  0  0  0.063212  0  3.966646  0  0.456584  0  0.046148  0.048751  0  3.940416  0
C  C67  1  0.53252319  0.57792010  0.26764156  1  0  0.094357  0  3.70551  0  0  0.05483  0  3.95021  0  0  0.063287  0  3.966508  0  0.456394  0  0.04619  0.048798  0  3.94023  0
C  C68  1  0.11952881  0.34567982  0.26119851  1  0  -0.123538  0  3.740483  0  0  -0.133215  0  3.988963  0  0  -0.143554  0  4.012827  0  -0.015419  0  -0.080288  -0.126595  0  3.973218  0
C  C69  1  0.38047017  0.65432339  0.76119572  1  0  -0.123435  0  3.740462  0  0  -0.133127  0  3.988956  0  0  -0.143458  0  4.012814  0  -0.015515  0  -0.080287  -0.126507  0  3.973218  0
C  C70  1  0.88047326  0.65431519  0.73880381  1  0  -0.123557  0  3.740351  0  0  -0.133209  0  3.988822  0  0  -0.143547  0  4.012678  0  -0.014842  0  -0.080307  -0.126591  0  3.973078  0
C  C71  1  0.61953130  0.34568450  0.23879870  1  0  -0.123455  0  3.740614  0  0  -0.133105  0  3.989074  0  0  -0.143421  0  4.012942  0  -0.016308  0  -0.08026  -0.126486  0  3.973335  0
C  C72  1  0.09263032  0.36779727  0.19891632  1  0  0.000593  0  3.645261  0  0  -0.027199  0  3.888975  0  0  -0.018794  0  3.902031  0  -0.030468  0  -0.050071  -0.032817  0  3.880039  0
C  C73  1  0.40736375  0.63220242  0.69891678  1  0  0.000595  0  3.645583  0  0  -0.027206  0  3.889321  0  0  -0.018779  0  3.902348  0  -0.029898  0  -0.050099  -0.032828  0  3.880379  0
C  C74  1  0.90737228  0.63220125  0.80108554  1  0  0.000728  0  3.645245  0  0  -0.027034  0  3.888896  0  0  -0.018625  0  3.901944  0  -0.0301  0  -0.050003  -0.032654  0  3.879967  0
C  C75  1  0.59262899  0.36779844  0.30108182  1  0  0.000713  0  3.645354  0  0  -0.027061  0  3.8891  0  0  -0.018644  0  3.902135  0  -0.030436  0  -0.050032  -0.032686  0  3.880163  0
C  C76  1  0.66352881  0.00053671  0.88334496  1  0  -0.096107  0  3.708841  0  0  -0.106922  0  3.955909  0  0  -0.114506  0  3.975914  0  -0.073505  0  -0.074004  -0.102209  0  3.942789  0
C  C77  1  0.83645506  0.99944658  0.38334077  1  0  -0.096221  0  3.708884  0  0  -0.106959  0  3.95593  0  0  -0.114546  0  3.975939  0  -0.073941  0  -0.074009  -0.102251  0  3.942814  0
C  C78  1  0.33646340  0.99946299  0.11665597  1  0  -0.096102  0  3.708688  0  0  -0.106978  0  3.955798  0  0  -0.114562  0  3.975804  0  -0.074158  0  -0.073993  -0.10226  0  3.942684  0
C  C79  1  0.16354159  0.00054139  0.61665551  1  0  -0.09621  0  3.708628  0  0  -0.106988  0  3.955701  0  0  -0.114571  0  3.975702  0  -0.074473  0  -0.074058  -0.102267  0  3.942586  0
C  C80  1  0.63115262  0.12379516  0.86509577  1  0  0.127314  0  3.685946  0  0  0.096285  0  3.928346  0  0  0.10498  0  3.944134  0  0.515024  0  0.044815  0.090561  0  3.917967  0
C  C81  1  0.86883010  0.87619751  0.36509437  1  0  0.127374  0  3.686341  0  0  0.096291  0  3.928669  0  0  0.104987  0  3.944448  0  0.515163  0  0.044732  0.090556  0  3.918299  0
C  C82  1  0.36883846  0.87621157  0.13490284  1  0  0.127388  0  3.686258  0  0  0.09634  0  3.928673  0  0  0.105034  0  3.944459  0  0.514896  0  0.044762  0.090609  0  3.918288  0
C  C83  1  0.13117197  0.12379984  0.63490098  1  0  0.12745  0  3.686302  0  0  0.096381  0  3.928635  0  0  0.10508  0  3.944415  0  0.515185  0  0.044842  0.090642  0  3.918261  0
C  C84  1  0.04687709  0.48624997  0.18443143  1  0  -0.114146  0  3.738144  0  0  -0.087734  0  3.971137  0  0  -0.100312  0  3.992836  0  -0.019446  0  -0.010281  -0.079358  0  3.955504  0
C  C85  1  0.45311753  0.51375089  0.68443189  1  0  -0.114235  0  3.738087  0  0  -0.087789  0  3.971009  0  0  -0.100364  0  3.992697  0  -0.019365  0  -0.010312  -0.07942  0  3.955376  0
C  C86  1  0.95312988  0.51375089  0.81556764  1  0  -0.114376  0  3.738384  0  0  -0.087932  0  3.971322  0  0  -0.100508  0  3.993015  0  -0.019392  0  -0.010382  -0.07956  0  3.955691  0
C  C87  1  0.54687360  0.48624646  0.31556718  1  0  -0.114266  0  3.738239  0  0  -0.087919  0  3.971305  0  0  -0.100491  0  3.992999  0  -0.019385  0  -0.010356  -0.079556  0  3.955687  0
C  C88  1  0.10553169  0.44360526  0.30653231  1  0  0.145803  0  3.630609  0  0  0.113291  0  3.876476  0  0  0.122258  0  3.892758  0  0.433985  0  0.054716  0.107247  0  3.866751  0
C  C89  1  0.39447494  0.55640029  0.80653231  1  0  0.145915  0  3.630248  0  0  0.113396  0  3.876115  0  0  0.122367  0  3.892388  0  0.434049  0  0.054755  0.107349  0  3.866403  0
C  C90  1  0.89447748  0.55639326  0.69347001  1  0  0.145743  0  3.630582  0  0  0.113265  0  3.876386  0  0  0.122234  0  3.892665  0  0.433482  0  0.054716  0.107221  0  3.866655  0
C  C91  1  0.60553417  0.44360995  0.19346676  1  0  0.145792  0  3.630663  0  0  0.113273  0  3.876506  0  0  0.122242  0  3.892779  0  0.434077  0  0.054738  0.107222  0  3.866789  0
C  C92  1  0.49557583  0.52101635  0.03424826  1  0  0.55241  0  3.941376  0  0  0.506566  0  4.234894  0  0  0.536413  0  4.232793  0  1.615886  0  0.20611  0.486265  0  4.240528  0
C  C93  1  0.00442916  0.47898803  0.53424593  1  0  0.552476  0  3.941196  0  0  0.506631  0  4.234719  0  0  0.536478  0  4.232618  0  1.588279  0  0.20613  0.486313  0  4.240369  0
C  C94  1  0.50443766  0.47899155  0.96575546  1  0  0.552484  0  3.94131  0  0  0.506657  0  4.234798  0  0  0.536506  0  4.232694  0  1.58836  0  0.206186  0.486324  0  4.240474  0
C  C95  1  0.99556958  0.52101869  0.46575407  1  0  0.552477  0  3.941254  0  0  0.506642  0  4.234748  0  0  0.536488  0  4.232645  0  1.615933  0  0.206156  0.486327  0  4.240397  0
N  N96  1  0.49259494  0.13363750  0.88127476  1  0  -0.307109  0  3.435609  0  0  -0.222131  0  3.740124  0  0  -0.235471  0  3.745353  0  -1.233139  0  -0.377377  -0.214356  0  3.736089  0
N  N97  1  0.00739312  0.86636336  0.38127801  1  0  -0.307231  0  3.436053  0  0  -0.222159  0  3.7405  0  0  -0.235491  0  3.745712  0  -1.233065  0  -0.377333  -0.214382  0  3.736464  0
N  N98  1  0.50739775  0.86637508  0.11872152  1  0  -0.307168  0  3.436024  0  0  -0.222107  0  3.740444  0  0  -0.235445  0  3.745665  0  -1.233152  0  -0.377326  -0.214319  0  3.736391  0
N  N99  1  0.99261659  0.13363633  0.61871734  1  0  -0.307316  0  3.436237  0  0  -0.222141  0  3.74053  0  0  -0.23549  0  3.745776  0  -1.233413  0  -0.377299  -0.214358  0  3.736482  0
N  N100  1  0.06350014  0.55964513  0.29247838  1  0  -0.299947  0  3.43118  0  0  -0.215413  0  3.732257  0  0  -0.229351  0  3.738619  0  -1.210678  0  -0.373572  -0.207017  0  3.727571  0
N  N101  1  0.43650435  0.44035104  0.79248210  1  0  -0.30015  0  3.430999  0  0  -0.215645  0  3.732138  0  0  -0.229578  0  3.73849  0  -1.210696  0  -0.373621  -0.207253  0  3.727461  0
N  N102  1  0.93651066  0.44035690  0.70752301  1  0  -0.30011  0  3.43125  0  0  -0.215576  0  3.732312  0  0  -0.229521  0  3.738688  0  -1.210837  0  -0.373584  -0.207176  0  3.727608  0
N  N103  1  0.56349716  0.55964748  0.20752208  1  0  -0.300053  0  3.431208  0  0  -0.215526  0  3.732299  0  0  -0.229461  0  3.738653  0  -1.210452  0  -0.373623  -0.207121  0  3.727612  0
O  O104  1  0.16321140  0.78481800  0.99773687  1  0  -0.733698  0  2.059492  0  0  -0.683893  0  2.315006  0  0  -0.722266  0  2.305681  0  -1.189383  0  -0.383405  -0.664512  0  2.319157  0
O  O105  1  0.33678428  0.21518990  0.49773361  1  0  -0.733612  0  2.059408  0  0  -0.683841  0  2.314863  0  0  -0.722207  0  2.305544  0  -1.189416  0  -0.383328  -0.664458  0  2.319005  0
O  O106  1  0.83679338  0.21518287  0.00226685  1  0  -0.733729  0  2.059476  0  0  -0.683914  0  2.314972  0  0  -0.722291  0  2.305644  0  -1.189873  0  -0.38339  -0.664538  0  2.319123  0
O  O107  1  0.66320949  0.78482503  0.50226778  1  0  -0.733794  0  2.059422  0  0  -0.683941  0  2.314819  0  0  -0.722319  0  2.305487  0  -1.189386  0  -0.38337  -0.664563  0  2.318967  0
O  O108  1  0.62908389  0.61941171  0.05891260  1  0  -0.666766  0  2.132028  0  0  -0.602702  0  2.405629  0  0  -0.637281  0  2.390841  0  -1.179551  0  -0.370003  -0.585376  0  2.413864  0
O  O109  1  0.87092175  0.38059033  0.55890934  1  0  -0.666813  0  2.132028  0  0  -0.60275  0  2.405637  0  0  -0.637331  0  2.390857  0  -1.179597  0  -0.370017  -0.585425  0  2.41388  0
O  O110  1  0.37092636  0.38058916  0.94109112  1  0  -0.666838  0  2.132019  0  0  -0.602763  0  2.405599  0  0  -0.637354  0  2.390815  0  -1.179514  0  -0.370083  -0.585433  0  2.413853  0
O  O111  1  0.12908081  0.61941757  0.44109019  1  0  -0.666778  0  2.131843  0  0  -0.60272  0  2.405462  0  0  -0.637308  0  2.390678  0  -1.179489  0  -0.370047  -0.585396  0  2.413702  0
O  O112  1  0.91096177  0.85533627  0.94219805  1  0  -0.671508  0  2.036698  0  0  -0.629126  0  2.287222  0  0  -0.662386  0  2.274544  0  -1.185389  0  -0.386138  -0.612481  0  2.29346  0
O  O113  1  0.58902589  0.14465287  0.44219758  1  0  -0.671653  0  2.036528  0  0  -0.629245  0  2.287009  0  0  -0.662495  0  2.27432  0  -1.18516  0  -0.386175  -0.612596  0  2.293243  0
O  O114  1  0.08904626  0.14466928  0.05780474  1  0  -0.671562  0  2.036659  0  0  -0.629166  0  2.287216  0  0  -0.662419  0  2.274509  0  -1.185462  0  -0.386156  -0.612517  0  2.293449  0
O  O115  1  0.41094840  0.85532221  0.55780567  1  0  -0.671465  0  2.036857  0  0  -0.629066  0  2.28739  0  0  -0.662328  0  2.274709  0  -1.185335  0  -0.386065  -0.612414  0  2.293614  0
O  O116  1  0.94710746  0.60915687  0.11115295  1  0  -0.69326  0  2.011492  0  0  -0.645896  0  2.262706  0  0  -0.681029  0  2.250529  0  -1.162104  0  -0.37574  -0.628066  0  2.26866  0
O  O117  1  0.55290036  0.39084751  0.61115249  1  0  -0.693268  0  2.011446  0  0  -0.645931  0  2.262671  0  0  -0.681059  0  2.250495  0  -1.162182  0  -0.375795  -0.6281  0  2.268624  0
O  O118  1  0.05290826  0.39084400  0.88884798  1  0  -0.693259  0  2.011358  0  0  -0.645906  0  2.26258  0  0  -0.681045  0  2.250399  0  -1.162146  0  -0.375724  -0.628076  0  2.268535  0
O  O119  1  0.44709844  0.60914749  0.38884705  1  0  -0.693252  0  2.011404  0  0  -0.645886  0  2.262607  0  0  -0.681023  0  2.250438  0  -1.162263  0  -0.375764  -0.628059  0  2.268564  0
O  O120  1  0.05319851  0.45259334  0.07542306  1  0  -0.759089  0  2.162303  0  0  -0.706095  0  2.430081  0  0  -0.74619  0  2.417655  0  -1.2022  0  -0.40416  -0.688481  0  2.438275  0
O  O121  1  0.44679559  0.54740167  0.57542399  1  0  -0.759048  0  2.162272  0  0  -0.706077  0  2.430075  0  0  -0.746173  0  2.417646  0  -1.202269  0  -0.404161  -0.688457  0  2.438251  0
O  O122  1  0.94680901  0.54740636  0.92457927  1  0  -0.75909  0  2.162184  0  0  -0.706113  0  2.429975  0  0  -0.746201  0  2.417549  0  -1.202221  0  -0.4042  -0.688511  0  2.438195  0
O  O123  1  0.55319012  0.45258631  0.42457601  1  0  -0.759092  0  2.162375  0  0  -0.706101  0  2.430095  0  0  -0.74618  0  2.417681  0  -1.202251  0  -0.40411  -0.688496  0  2.438303  0
O  O124  1  0.27806950  0.62598811  0.97064714  1  0  -0.737226  0  2.079273  0  0  -0.683898  0  2.333771  0  0  -0.721482  0  2.323097  0  -1.196451  0  -0.37829  -0.665178  0  2.338666  0
O  O125  1  0.22191362  0.37401392  0.47064482  1  0  -0.737252  0  2.079144  0  0  -0.683951  0  2.333607  0  0  -0.721537  0  2.322924  0  -1.19598  0  -0.378398  -0.665238  0  2.338506  0
O  O126  1  0.72193633  0.37401978  0.02935239  1  0  -0.737352  0  2.079167  0  0  -0.684046  0  2.333703  0  0  -0.721624  0  2.323024  0  -1.196086  0  -0.378367  -0.665333  0  2.338603  0
O  O127  1  0.77806546  0.62598577  0.52935100  1  0  -0.737277  0  2.079193  0  0  -0.683973  0  2.333675  0  0  -0.721546  0  2.322999  0  -1.196509  0  -0.37831  -0.665262  0  2.338573  0
O  O128  1  0.05272528  0.11834372  0.93323663  1  0  -0.643023  0  2.045545  0  0  -0.60146  0  2.2952  0  0  -0.63093  0  2.280741  0  -1.166745  0  -0.370575  -0.587101  0  2.303402  0
O  O129  1  0.44726612  0.88164543  0.43323617  1  0  -0.643057  0  2.045353  0  0  -0.601493  0  2.29505  0  0  -0.630966  0  2.280588  0  -1.166964  0  -0.37063  -0.587132  0  2.303247  0
O  O130  1  0.94728112  0.88166066  0.06676523  1  0  -0.643048  0  2.045535  0  0  -0.601494  0  2.295245  0  0  -0.63096  0  2.280784  0  -1.166814  0  -0.370561  -0.587131  0  2.30344  0
O  O131  1  0.55270598  0.11832966  0.56676383  1  0  -0.642948  0  2.045419  0  0  -0.601394  0  2.295104  0  0  -0.630855  0  2.280656  0  -1.166622  0  -0.370509  -0.587027  0  2.30329  0
O  O132  1  0.35959774  0.45753385  0.06116364  1  0  -0.630904  0  2.060764  0  0  -0.58487  0  2.314546  0  0  -0.61523  0  2.30247  0  -1.178094  0  -0.346829  -0.569257  0  2.320783  0
O  O133  1  0.14040614  0.54247288  0.56116318  1  0  -0.630887  0  2.060608  0  0  -0.584855  0  2.314431  0  0  -0.615217  0  2.302357  0  -1.177942  0  -0.346817  -0.569237  0  2.32067  0
O  O134  1  0.64040865  0.54247288  0.93883961  1  0  -0.630853  0  2.060702  0  0  -0.584846  0  2.314523  0  0  -0.615199  0  2.302446  0  -1.177967  0  -0.346793  -0.569227  0  2.320777  0
O  O135  1  0.85959968  0.45753736  0.43883821  1  0  -0.630875  0  2.060832  0  0  -0.584866  0  2.31464  0  0  -0.615213  0  2.302566  0  -1.178059  0  -0.346806  -0.569253  0  2.320884  0
