# generated using pymatgen
data_TbZnH12C15N2O13
_symmetry_space_group_name_H-M   'P 1'
_cell_length_a   9.69142686
_cell_length_b   10.55751045
_cell_length_c   10.88620912
_cell_angle_alpha   80.56331944
_cell_angle_beta   72.21652443
_cell_angle_gamma   75.66769647
_symmetry_Int_Tables_number   1
_chemical_formula_structural   TbZnH12C15N2O13
_chemical_formula_sum   'Tb2 Zn2 H24 C30 N4 O26'
_cell_volume   1022.89190546
_cell_formula_units_Z   2
loop_
 _symmetry_equiv_pos_site_id
 _symmetry_equiv_pos_as_xyz
  1  'x, y, z'
loop_
 _atom_site_type_symbol
 _atom_site_label
 _atom_site_symmetry_multiplicity
 _atom_site_fract_x
 _atom_site_fract_y
 _atom_site_fract_z
 _atom_site_occupancy
 _atom_site_pbe_bader_charge
 _atom_site_pbe_bader_spin_density
 _atom_site_pbe_cm5_charge
 _atom_site_pbe_ddec_charge
 _atom_site_pbe_ddec_spin_density
 _atom_site_pbe_ddec_sum_bond_order
 _atom_site_pbe_magmom
Tb  Tb0  1  0.17598196  0.19501056  0.03285544  1  2.173954  0  1.483916  2.034368  0  2.133944  0
Tb  Tb1  1  0.82402086  0.80498853  0.96714574  1  2.173902  0  1.48393  2.034367  0  2.133865  0
Zn  Zn2  1  0.30346037  0.36440978  0.61167593  1  1.325304  0  0.69732  0.854565  0  2.334566  0
Zn  Zn3  1  0.69653918  0.63558929  0.38832248  1  1.325054  0  0.697311  0.854554  0  2.334606  0
H  H4  1  0.53023956  0.22657019  0.36643952  1  0.155897  0  0.12409  0.100226  0  0.98178  0
H  H5  1  0.46976565  0.77342793  0.63355840  1  0.155749  0  0.124143  0.100295  0  0.98192  0
H  H6  1  0.75721759  0.04474288  0.33166610  1  0.125098  0  0.117385  0.136918  0  1.002134  0
H  H7  1  0.24278763  0.95525524  0.66833457  1  0.124942  0  0.117414  0.136963  0  1.002102  0
H  H8  1  0.83034789  0.92023372  0.52855858  1  0.106269  0  0.10981  0.106933  0  1.024937  0
H  H9  1  0.16966072  0.07976835  0.47144329  1  0.106322  0  0.109803  0.10695  0  1.024897  0
H  H10  1  0.78697856  0.26556615  0.49188541  1  0.080502  0  0.107229  0.106373  0  1.016138  0
H  H11  1  0.21302075  0.73443390  0.50811291  1  0.080535  0  0.107246  0.1064  0  1.016131  0
H  H12  1  0.83409656  0.17116388  0.70826169  1  0.15022  0  0.112246  0.133199  0  1.027929  0
H  H13  1  0.16590587  0.82883226  0.29173363  1  0.150183  0  0.112221  0.133151  0  1.028022  0
H  H14  1  0.06063127  0.20511143  0.75215935  1  0.16074  0  0.12677  0.101907  0  1.020537  0
H  H15  1  0.93937105  0.79488963  0.24783707  1  0.160675  0  0.126771  0.101875  0  1.020548  0
H  H16  1  0.04789127  0.41789240  0.86544148  1  0.632725  0  0.301968  0.400411  0  0.937366  0
H  H17  1  0.95210060  0.58211153  0.13456011  1  0.632694  0  0.301998  0.400494  0  0.937263  0
H  H18  1  0.91080437  0.40795873  0.98756908  1  0.638217  0  0.321964  0.421434  0  0.875902  0
H  H19  1  0.08919691  0.59203345  0.01243638  1  0.638204  0  0.321909  0.421408  0  0.875959  0
H  H20  1  0.25481812  0.42320129  0.10927724  1  0.66989  0  0.302678  0.410302  0  0.921362  0
H  H21  1  0.74518336  0.57679877  0.89072140  1  0.669847  0  0.302693  0.410303  0  0.92135  0
H  H22  1  0.36921287  0.39448207  0.97388200  1  0.630059  0  0.334899  0.416307  0  0.863268  0
H  H23  1  0.63078970  0.60551800  0.02611726  1  0.630065  0  0.334912  0.416347  0  0.863218  0
H  H24  1  0.35197860  0.53792521  0.72672169  1  0.620474  0  0.322037  0.403629  0  0.881847  0
H  H25  1  0.64801785  0.46207777  0.27328154  1  0.620568  0  0.322078  0.403733  0  0.881786  0
H  H26  1  0.51986391  0.50758182  0.63468451  1  0.649136  0  0.293765  0.401534  0  0.932072  0
H  H27  1  0.48012893  0.49241819  0.36531744  1  0.649036  0  0.293729  0.401503  0  0.932129  0
C  C28  1  0.69045643  0.95124524  0.77875390  1  1.645458  0  0.195275  0.592729  0  4.263931  0
C  C29  1  0.30954193  0.04874989  0.22124638  1  1.645314  0  0.19537  0.592917  0  4.263684  0
C  C30  1  0.64395801  0.02884495  0.66327655  1  -0.021105  0  0.016683  -0.030207  0  3.86172  0
C  C31  1  0.35604371  0.97115413  0.33672218  1  -0.021085  0  0.016614  -0.030285  0  3.861589  0
C  C32  1  0.52042255  0.13260903  0.67237518  1  0.48106  0  0.120679  0.086138  0  3.921488  0
C  C33  1  0.47958050  0.86738907  0.32762517  1  0.481102  0  0.120706  0.086195  0  3.921311  0
C  C34  1  0.56672778  0.16916690  0.44792287  1  0.420879  0  0.054305  0.093391  0  3.942632  0
C  C35  1  0.43327770  0.83083023  0.55207972  1  0.420902  0  0.054183  0.093316  0  3.942746  0
C  C36  1  0.69179614  0.06687705  0.42976761  1  0.001526  0  -0.068805  -0.103461  0  3.924065  0
C  C37  1  0.30821090  0.93311812  0.57023487  1  0.001922  0  -0.06879  -0.103433  0  3.92398  0
C  C38  1  0.73118626  0.99807923  0.53875468  1  -0.000275  0  -0.057356  -0.055042  0  3.908181  0
C  C39  1  0.26881692  0.00192280  0.46124685  1  -0.000438  0  -0.057349  -0.055123  0  3.908034  0
C  C40  1  0.41376194  0.17098700  0.79961827  1  1.573991  0  0.203819  0.5322  0  4.231822  0
C  C41  1  0.58624195  0.82901210  0.20037986  1  1.573879  0  0.20377  0.532122  0  4.23207  0
C  C42  1  0.22527325  0.42948146  0.36809203  1  1.605296  0  0.217639  0.560054  0  4.210987  0
C  C43  1  0.77472618  0.57052253  0.63190564  1  1.605886  0  0.21765  0.559901  0  4.211424  0
C  C44  1  0.11023759  0.35585524  0.45666034  1  0.477037  0  0.11045  0.058301  0  3.956286  0
C  C45  1  0.88976159  0.64414973  0.54333540  1  0.476915  0  0.110471  0.058343  0  3.956368  0
C  C46  1  0.98744387  0.34036425  0.42305055  1  -0.017144  0  0.005083  -0.072399  0  3.924879  0
C  C47  1  0.01255040  0.65963871  0.57694961  1  -0.017379  0  0.005018  -0.072522  0  3.924915  0
C  C48  1  0.96582326  0.38326031  0.29045532  1  1.648796  0  0.238405  0.650975  0  4.172573  0
C  C49  1  0.03416690  0.61675050  0.70954197  1  1.648942  0  0.238547  0.651248  0  4.172097  0
C  C50  1  0.88481525  0.27583568  0.51541644  1  -0.036211  0  -0.062148  -0.049571  0  3.92112  0
C  C51  1  0.11518502  0.72416930  0.48457992  1  -0.036059  0  -0.062168  -0.049588  0  3.921049  0
C  C52  1  0.90889493  0.22530968  0.63511025  1  0.049793  0  -0.068998  -0.095404  0  3.904951  0
C  C53  1  0.09110848  0.77469137  0.36488862  1  0.049802  0  -0.068981  -0.095344  0  3.904888  0
C  C54  1  0.03503727  0.24270482  0.66060798  1  0.449955  0  0.060183  0.11451  0  3.89302  0
C  C55  1  0.96495939  0.75729718  0.33938984  1  0.450576  0  0.060276  0.114615  0  3.892832  0
C  C56  1  0.93920655  0.01986967  0.06288917  1  1.583164  0  0.213886  0.505052  0  4.230108  0
C  C57  1  0.06079507  0.98012546  0.93711388  1  1.603622  0  0.213972  0.505207  0  4.230023  0
N  N58  1  0.48534761  0.20195617  0.56638792  1  -1.237229  0  -0.317681  -0.263144  0  3.569185  0
N  N59  1  0.51465761  0.79804194  0.43361276  1  -1.237281  0  -0.317652  -0.263197  0  3.569079  0
N  N60  1  0.13093857  0.30739605  0.57371825  1  -1.25973  0  -0.327611  -0.270276  0  3.616789  0
N  N61  1  0.86905845  0.69260890  0.42627900  1  -1.26034  0  -0.327639  -0.270318  0  3.616866  0
O  O62  1  0.43237223  0.11108739  0.90464568  1  -1.132398  0  -0.320194  -0.529456  0  2.215847  0
O  O63  1  0.56762723  0.88891659  0.09535657  1  -1.13242  0  -0.320184  -0.529447  0  2.21593  0
O  O64  1  0.29950822  0.26454473  0.79665931  1  -1.175303  0  -0.353434  -0.603987  0  2.404549  0
O  O65  1  0.70048964  0.73545236  0.20333804  1  -1.175103  0  -0.353378  -0.603929  0  2.404734  0
O  O66  1  0.66377876  0.83756999  0.81416830  1  -1.170105  0  -0.359794  -0.613628  0  2.160097  0
O  O67  1  0.33621563  0.16242806  0.18583170  1  -1.169976  0  -0.359796  -0.613648  0  2.159988  0
O  O68  1  0.76735289  0.99998653  0.82798562  1  -1.173485  0  -0.378159  -0.624075  0  2.194103  0
O  O69  1  0.23264704  0.00000664  0.17201454  1  -1.173471  0  -0.378242  -0.624196  0  2.194067  0
O  O70  1  0.32304550  0.44530057  0.41959775  1  -1.18374  0  -0.311856  -0.564493  0  2.381617  0
O  O71  1  0.67695033  0.55470044  0.58040230  1  -1.183825  0  -0.311898  -0.564484  0  2.381708  0
O  O72  1  0.21824492  0.47268953  0.25598442  1  -1.174966  0  -0.300157  -0.52018  0  2.206913  0
O  O73  1  0.78175823  0.52731251  0.74401160  1  -1.175354  0  -0.300142  -0.520097  0  2.207209  0
O  O74  1  0.03193614  0.30307226  0.20732015  1  -1.176966  0  -0.402342  -0.637381  0  2.380098  0
O  O75  1  0.96806365  0.69693468  0.79267695  1  -1.176799  0  -0.402351  -0.637437  0  2.380218  0
O  O76  1  0.87771460  0.49103048  0.27035192  1  -1.191255  0  -0.299165  -0.556309  0  2.318164  0
O  O77  1  0.12227594  0.50896558  0.72965037  1  -1.19147  0  -0.299264  -0.556461  0  2.317634  0
O  O78  1  0.95122035  0.11280673  0.11598375  1  -1.16975  0  -0.368592  -0.583493  0  2.261187  0
O  O79  1  0.04878250  0.88719235  0.88402294  1  -1.169184  0  -0.368636  -0.583524  0  2.261275  0
O  O80  1  0.83752490  0.95442388  0.10310583  1  -1.183429  0  -0.379255  -0.613569  0  2.301319  0
O  O81  1  0.16248118  0.04557522  0.89689720  1  -1.183433  0  -0.379286  -0.613676  0  2.301165  0
O  O82  1  0.00437020  0.35672286  0.93907188  1  -1.249182  0  -0.639345  -0.851295  0  2.077173  0
O  O83  1  0.99562723  0.64327618  0.06093538  1  -1.249097  0  -0.639319  -0.851376  0  2.077123  0
O  O84  1  0.26404829  0.40611673  0.01893501  1  -1.270845  0  -0.600713  -0.829549  0  2.031079  0
O  O85  1  0.73595451  0.59388236  0.98106250  1  -1.270833  0  -0.600736  -0.829587  0  2.030991  0
O  O86  1  0.41523038  0.49792248  0.64887866  1  -1.242732  0  -0.576902  -0.75449  0  2.120979  0
O  O87  1  0.58476296  0.50207556  0.35112806  1  -1.242681  0  -0.5769  -0.754579  0  2.120974  0
