# generated using pymatgen
data_Ba5H20C32(NO12)2
_symmetry_space_group_name_H-M   'P 1'
_cell_length_a   7.34324806
_cell_length_b   10.73962819
_cell_length_c   12.93859414
_cell_angle_alpha   90.30947052
_cell_angle_beta   90.76388751
_cell_angle_gamma   103.49361575
_symmetry_Int_Tables_number   1
_chemical_formula_structural   Ba5H20C32(NO12)2
_chemical_formula_sum   'Ba5 H20 C32 N2 O24'
_cell_volume   992.09308711
_cell_formula_units_Z   1
loop_
 _symmetry_equiv_pos_site_id
 _symmetry_equiv_pos_as_xyz
  1  'x, y, z'
loop_
 _atom_site_type_symbol
 _atom_site_label
 _atom_site_symmetry_multiplicity
 _atom_site_fract_x
 _atom_site_fract_y
 _atom_site_fract_z
 _atom_site_occupancy
 _atom_site_hle17_bader_spin_density
 _atom_site_hle17_ddec_charge
 _atom_site_hle17_ddec_spin_density
 _atom_site_hle17_ddec_sum_bond_order
 _atom_site_hle17_magmom
 _atom_site_hse06_10hf_bader_spin_density
 _atom_site_hse06_10hf_ddec_charge
 _atom_site_hse06_10hf_ddec_spin_density
 _atom_site_hse06_10hf_ddec_sum_bond_order
 _atom_site_hse06_10hf_magmom
 _atom_site_hse06_bader_spin_density
 _atom_site_hse06_ddec_charge
 _atom_site_hse06_ddec_spin_density
 _atom_site_hse06_ddec_sum_bond_order
 _atom_site_hse06_magmom
 _atom_site_pbe_bader_spin_density
 _atom_site_pbe_cm5_charge
 _atom_site_pbe_ddec_charge
 _atom_site_pbe_ddec_spin_density
 _atom_site_pbe_ddec_sum_bond_order
 _atom_site_pbe_magmom
Ba  Ba0  1  0.99999809  0.00000013  0.99999957  1  0  1.548868  0  1.324817  0  0  1.392751  0  1.724547  0  0  1.441164  0  1.680048  0  0  1.016248  1.357756  0  1.755551  0
Ba  Ba1  1  0.87996411  0.62731989  0.87658221  1  0  1.685577  0  1.163527  0  0  1.547991  0  1.5633  0  0  1.587127  0  1.520916  0  0  1.002621  1.519186  0  1.593516  0
Ba  Ba2  1  0.12003496  0.37268032  0.12341733  1  0  1.685562  0  1.163559  0  0  1.547963  0  1.56335  0  0  1.587099  0  1.520962  0  0  1.00261  1.519145  0  1.593557  0
Ba  Ba3  1  0.56530355  0.20785022  0.93697474  1  0  1.653999  0  1.17449  0  0  1.503579  0  1.575185  0  0  1.545678  0  1.532945  0  0  1.004653  1.472492  0  1.605273  0
Ba  Ba4  1  0.43469622  0.79214807  0.06302632  1  0  1.654015  0  1.174477  0  0  1.503609  0  1.575153  0  0  1.545708  0  1.532915  0  0  1.004641  1.472519  0  1.605233  0
H  H5  1  0.55325389  0.37078166  0.29868248  1  0  0.090933  0  0.986634  0  0  0.099093  0  1.052934  0  0  0.100923  0  1.054075  0  0  0.106616  0.097838  0  1.052112  0
H  H6  1  0.44674415  0.62921950  0.70132015  1  0  0.090931  0  0.986628  0  0  0.099077  0  1.052944  0  0  0.100908  0  1.054084  0  0  0.106609  0.097827  0  1.052111  0
H  H7  1  0.64176480  0.47199600  0.47050296  1  0  0.100223  0  0.972569  0  0  0.109101  0  1.036063  0  0  0.11202  0  1.034754  0  0  0.102478  0.107064  0  1.03694  0
H  H8  1  0.35823390  0.52800708  0.52949891  1  0  0.100231  0  0.972632  0  0  0.109102  0  1.036122  0  0  0.112021  0  1.034814  0  0  0.102512  0.107064  0  1.037004  0
H  H9  1  0.85831798  0.68786234  0.48341799  1  0  0.093379  0  0.957347  0  0  0.107107  0  1.012341  0  0  0.109881  0  1.011015  0  0  0.102984  0.105042  0  1.013471  0
H  H10  1  0.14168653  0.31213787  0.51658158  1  0  0.093354  0  0.957342  0  0  0.107081  0  1.012345  0  0  0.109856  0  1.011019  0  0  0.102981  0.105014  0  1.01348  0
H  H11  1  0.98274126  0.80225472  0.32129260  1  0  0.103452  0  0.927257  0  0  0.116491  0  0.981915  0  0  0.119714  0  0.980251  0  0  0.113604  0.114244  0  0.983002  0
H  H12  1  0.01726292  0.19774454  0.67870542  1  0  0.103435  0  0.927338  0  0  0.116445  0  0.982024  0  0  0.119666  0  0.980362  0  0  0.11358  0.1142  0  0.983107  0
H  H13  1  0.77449759  0.84343122  0.63605025  1  0  0.097712  0  0.959725  0  0  0.106175  0  1.024586  0  0  0.109943  0  1.021369  0  0  0.106726  0.103363  0  1.027076  0
H  H14  1  0.22550317  0.15656994  0.36395008  1  0  0.097698  0  0.959754  0  0  0.10616  0  1.024618  0  0  0.10993  0  1.021401  0  0  0.10671  0.103356  0  1.027099  0
H  H15  1  0.58254093  0.81870265  0.47117866  1  0  0.096467  0  0.962126  0  0  0.102791  0  1.028809  0  0  0.105974  0  1.027955  0  0  0.100392  0.100631  0  1.029259  0
H  H16  1  0.41745541  0.18129757  0.52882085  1  0  0.096416  0  0.962123  0  0  0.102743  0  1.028803  0  0  0.105926  0  1.027948  0  0  0.100386  0.100582  0  1.029253  0
H  H17  1  0.25752560  0.84203212  0.47484894  1  0  0.09264  0  0.950078  0  0  0.100861  0  1.014118  0  0  0.104167  0  1.011858  0  0  0.102522  0.09847  0  1.01579  0
H  H18  1  0.74247178  0.15796713  0.52515289  1  0  0.092599  0  0.950098  0  0  0.100865  0  1.014097  0  0  0.104171  0  1.011839  0  0  0.102524  0.098475  0  1.015766  0
H  H19  1  0.11752845  0.89047660  0.64173644  1  0  0.100948  0  0.940818  0  0  0.113598  0  0.995823  0  0  0.116833  0  0.9942  0  0  0.109862  0.111262  0  0.997038  0
H  H20  1  0.88246926  0.10952361  0.35826463  1  0  0.100899  0  0.940851  0  0  0.11356  0  0.995853  0  0  0.116796  0  0.994229  0  0  0.109843  0.111224  0  0.997067  0
H  H21  1  0.06877916  0.63376720  0.63861093  1  0  0.408794  0  0.868596  0  0  0.384141  0  0.937571  0  0  0.391003  0  0.928094  0  0  0.304156  0.379319  0  0.944228  0
H  H22  1  0.93122094  0.36623206  0.36138783  1  0  0.40882  0  0.868551  0  0  0.384165  0  0.937536  0  0  0.391027  0  0.928058  0  0  0.304172  0.379342  0  0.944195  0
H  H23  1  0.87274055  0.53526585  0.64410111  1  0  0.410654  0  0.899239  0  0  0.377973  0  0.966738  0  0  0.389435  0  0.950031  0  0  0.29233  0.369972  0  0.978351  0
H  H24  1  0.12726059  0.46473244  0.35589842  1  0  0.410553  0  0.899388  0  0  0.377851  0  0.966918  0  0  0.389315  0  0.950214  0  0  0.292283  0.369842  0  0.978519  0
C  C25  1  0.67049023  0.45508283  0.11242567  1  0  0.687592  0  3.902411  0  0  0.63665  0  4.202344  0  0  0.67216  0  4.190323  0  0  0.237642  0.612493  0  4.209773  0
C  C26  1  0.32950954  0.54491546  0.88757463  1  0  0.687665  0  3.902465  0  0  0.636716  0  4.202428  0  0  0.672227  0  4.190403  0  0  0.237658  0.612568  0  4.209844  0
C  C27  1  0.71741053  0.52785913  0.21308346  1  0  -0.089698  0  3.728082  0  0  -0.075365  0  3.96346  0  0  -0.079985  0  3.982519  0  0  0.001449  -0.072345  0  3.950767  0
C  C28  1  0.28258957  0.47214012  0.78691762  1  0  -0.089692  0  3.728  0  0  -0.075406  0  3.963462  0  0  -0.080026  0  3.982521  0  0  0.001449  -0.072389  0  3.95077  0
C  C29  1  0.64638737  0.46587608  0.30412627  1  0  -0.087299  0  3.756126  0  0  -0.107658  0  4.003491  0  0  -0.108509  0  4.023523  0  0  -0.0784  -0.107135  0  3.989959  0
C  C30  1  0.35361170  0.53412412  0.69587480  1  0  -0.087349  0  3.756132  0  0  -0.107686  0  4.003514  0  0  -0.108537  0  4.023543  0  0  -0.078422  -0.107156  0  3.989972  0
C  C31  1  0.69650585  0.52290947  0.40077441  1  0  -0.071216  0  3.748739  0  0  -0.084313  0  3.996456  0  0  -0.085449  0  4.015454  0  0  -0.088786  -0.083468  0  3.983574  0
C  C32  1  0.30349524  0.47709266  0.59922516  1  0  -0.071235  0  3.748827  0  0  -0.084311  0  3.996526  0  0  -0.085447  0  4.015525  0  0  -0.088824  -0.08347  0  3.983651  0
C  C33  1  0.81854589  0.64390273  0.40775607  1  0  -0.05776  0  3.744207  0  0  -0.071486  0  3.994451  0  0  -0.072833  0  4.014217  0  0  -0.085512  -0.070501  0  3.980996  0
C  C34  1  0.18145727  0.35609747  0.59224427  1  0  -0.05766  0  3.744145  0  0  -0.071385  0  3.994378  0  0  -0.072731  0  4.014145  0  0  -0.085458  -0.070396  0  3.980928  0
C  C35  1  0.88943949  0.70700671  0.31789915  1  0  -0.057239  0  3.709521  0  0  -0.084979  0  3.966031  0  0  -0.085348  0  3.984849  0  0  -0.072839  -0.084632  0  3.953006  0
C  C36  1  0.11056197  0.29299255  0.68209962  1  0  -0.057276  0  3.709573  0  0  -0.085001  0  3.966096  0  0  -0.085369  0  3.984914  0  0  -0.072833  -0.084653  0  3.953065  0
C  C37  1  0.83960799  0.65053550  0.22056990  1  0  -0.072432  0  3.709143  0  0  -0.058464  0  3.94699  0  0  -0.062952  0  3.966274  0  0  0.00531  -0.055604  0  3.934175  0
C  C38  1  0.16039315  0.34946281  0.77942886  1  0  -0.072333  0  3.709037  0  0  -0.058349  0  3.946861  0  0  -0.062839  0  3.966146  0  0  0.005318  -0.055495  0  3.934057  0
C  C39  1  0.90758592  0.72939466  0.12766042  1  0  0.686581  0  3.908821  0  0  0.636576  0  4.201417  0  0  0.67177  0  4.190259  0  0  0.231219  0.612539  0  4.208433  0
C  C40  1  0.09241183  0.27060173  0.87233830  1  0  0.686412  0  3.909029  0  0  0.636459  0  4.201537  0  0  0.671656  0  4.190377  0  0  0.231211  0.612429  0  4.208537  0
C  C41  1  0.67398909  0.89896518  0.82508057  1  0  0.686234  0  3.891799  0  0  0.636631  0  4.182312  0  0  0.671774  0  4.172806  0  0  0.231916  0.612759  0  4.188075  0
C  C42  1  0.32601167  0.10103599  0.17491898  1  0  0.68618  0  3.891753  0  0  0.636565  0  4.182286  0  0  0.671706  0  4.17278  0  0  0.231896  0.612682  0  4.18806  0
C  C43  1  0.55450762  0.88215435  0.72941047  1  0  -0.096348  0  3.734322  0  0  -0.082269  0  3.969178  0  0  -0.089367  0  3.989403  0  0  -0.006532  -0.077796  0  3.955771  0
C  C44  1  0.44549178  0.11784683  0.27058830  1  0  -0.096281  0  3.73419  0  0  -0.082199  0  3.969064  0  0  -0.089296  0  3.989289  0  0  -0.006517  -0.07773  0  3.955666  0
C  C45  1  0.63059183  0.85425016  0.63534095  1  0  -0.069217  0  3.733757  0  0  -0.090764  0  3.980223  0  0  -0.090241  0  3.999151  0  0  -0.077353  -0.090904  0  3.967599  0
C  C46  1  0.36940621  0.14575101  0.36465858  1  0  -0.069253  0  3.733678  0  0  -0.090802  0  3.980143  0  0  -0.090281  0  3.99907  0  0  -0.077351  -0.090946  0  3.967514  0
C  C47  1  0.52414740  0.83954686  0.54443406  1  0  -0.069902  0  3.759412  0  0  -0.084697  0  4.014144  0  0  -0.088108  0  4.035632  0  0  -0.088844  -0.082551  0  3.999678  0
C  C48  1  0.47585303  0.16045335  0.45556548  1  0  -0.069852  0  3.759402  0  0  -0.084639  0  4.014134  0  0  -0.088049  0  4.035625  0  0  -0.088827  -0.08249  0  3.999668  0
C  C49  1  0.33925956  0.85276269  0.54659644  1  0  -0.042402  0  3.754795  0  0  -0.059471  0  4.00889  0  0  -0.058786  0  4.028142  0  0  -0.079896  -0.059743  0  3.995806  0
C  C50  1  0.66073646  0.14723657  0.45340384  1  0  -0.042407  0  3.754909  0  0  -0.059527  0  4.009023  0  0  -0.058843  0  4.028276  0  0  -0.079945  -0.059806  0  3.995943  0
C  C51  1  0.26157824  0.87981613  0.63940519  1  0  -0.10137  0  3.733812  0  0  -0.117382  0  3.976776  0  0  -0.120616  0  3.996578  0  0  -0.082044  -0.115076  0  3.963035  0
C  C52  1  0.73841844  0.12018503  0.36059666  1  0  -0.101299  0  3.733905  0  0  -0.117311  0  3.976882  0  0  -0.120546  0  3.996686  0  0  -0.08201  -0.115006  0  3.963141  0
C  C53  1  0.36769043  0.89360591  0.73128434  1  0  -0.033226  0  3.693431  0  0  -0.020538  0  3.926187  0  0  -0.021894  0  3.943901  0  0  0.010695  -0.019768  0  3.914333  0
C  C54  1  0.63231066  0.10639621  0.26871677  1  0  -0.033173  0  3.693296  0  0  -0.020522  0  3.926083  0  0  -0.021874  0  3.943801  0  0  0.010737  -0.01974  0  3.91421  0
C  C55  1  0.27626864  0.92034568  0.82941682  1  0  0.704753  0  3.903677  0  0  0.6521  0  4.20049  0  0  0.687628  0  4.188132  0  0  0.232885  0.627803  0  4.208196  0
C  C56  1  0.72373245  0.07965645  0.17058352  1  0  0.704708  0  3.903664  0  0  0.652096  0  4.200422  0  0  0.687614  0  4.188078  0  0  0.232924  0.627806  0  4.208119  0
N  N57  1  0.66620548  0.33515037  0.70712872  1  0  0.715036  0  4.137413  0  0  0.74225  0  4.434853  0  0  0.770769  0  4.441253  0  0  0.102408  0.725399  0  4.429589  0
N  N58  1  0.33379767  0.66484983  0.29287161  1  0  0.715125  0  4.137251  0  0  0.742328  0  4.434709  0  0  0.770851  0  4.441099  0  0  0.102419  0.725471  0  4.429457  0
O  O59  1  0.80412965  0.45805322  0.04826094  1  0  -0.791409  0  1.981298  0  0  -0.724301  0  2.230202  0  0  -0.751866  0  2.219616  0  0  -0.390739  -0.704778  0  2.237099  0
O  O60  1  0.19586876  0.54194508  0.95173934  1  0  -0.791435  0  1.981362  0  0  -0.724319  0  2.230269  0  0  -0.751883  0  2.219682  0  0  -0.390728  -0.704797  0  2.23716  0
O  O61  1  0.94285436  0.62291237  0.66561378  1  0  -0.87134  0  1.82165  0  0  -0.823423  0  2.00046  0  0  -0.842664  0  1.973303  0  0  -0.626123  -0.809616  0  2.019272  0
O  O62  1  0.05714405  0.37708593  0.33438419  1  0  -0.871273  0  1.821721  0  0  -0.823337  0  2.000572  0  0  -0.842582  0  1.973399  0  0  -0.62609  -0.809511  0  2.019437  0
O  O63  1  0.50575248  0.38808083  0.09745825  1  0  -0.697595  0  1.956728  0  0  -0.63982  0  2.20362  0  0  -0.665825  0  2.193819  0  0  -0.353186  -0.621428  0  2.209811  0
O  O64  1  0.49424762  0.61191842  0.90254206  1  0  -0.697668  0  1.956774  0  0  -0.639894  0  2.203677  0  0  -0.665901  0  2.193881  0  0  -0.353212  -0.621511  0  2.209881  0
O  O65  1  0.78800915  0.73441844  0.05534747  1  0  -0.783874  0  2.062501  0  0  -0.714061  0  2.312211  0  0  -0.742303  0  2.302511  0  0  -0.417992  -0.694013  0  2.318435  0
O  O66  1  0.21199128  0.26558177  0.94465284  1  0  -0.783888  0  2.062486  0  0  -0.714091  0  2.312168  0  0  -0.742336  0  2.302465  0  0  -0.418041  -0.69404  0  2.318378  0
O  O67  1  0.07666044  0.79221417  0.12485215  1  0  -0.714652  0  1.982627  0  0  -0.656757  0  2.227701  0  0  -0.683402  0  2.218839  0  0  -0.370372  -0.637961  0  2.233302  0
O  O68  1  0.92334482  0.20778031  0.87514352  1  0  -0.714531  0  1.982837  0  0  -0.656643  0  2.227857  0  0  -0.683288  0  2.218999  0  0  -0.37031  -0.637851  0  2.233454  0
O  O69  1  0.82536047  0.86066691  0.82410738  1  0  -0.723061  0  1.995558  0  0  -0.660453  0  2.238837  0  0  -0.687246  0  2.229916  0  0  -0.39783  -0.641768  0  2.24452  0
O  O70  1  0.17464029  0.13933428  0.17588986  1  0  -0.723046  0  1.995596  0  0  -0.660422  0  2.238869  0  0  -0.687216  0  2.229951  0  0  -0.397809  -0.641729  0  2.244551  0
O  O71  1  0.62199295  0.95212895  0.90554188  1  0  -0.770783  0  2.011033  0  0  -0.698874  0  2.254549  0  0  -0.726963  0  2.245854  0  0  -0.393383  -0.679019  0  2.260001  0
O  O72  1  0.37800715  0.04787031  0.09445766  1  0  -0.770757  0  2.010924  0  0  -0.698861  0  2.254478  0  0  -0.726949  0  2.245782  0  0  -0.393399  -0.679003  0  2.25993  0
O  O73  1  0.26580967  0.03449141  0.84679059  1  0  -0.703132  0  2.006292  0  0  -0.643465  0  2.247672  0  0  -0.671283  0  2.239307  0  0  -0.391401  -0.623695  0  2.252622  0
O  O74  1  0.73419039  0.96551167  0.15321052  1  0  -0.70309  0  2.00629  0  0  -0.643445  0  2.247656  0  0  -0.671257  0  2.239295  0  0  -0.391404  -0.62368  0  2.252609  0
O  O75  1  0.20583391  0.82608703  0.88839732  1  0  -0.784503  0  1.998931  0  0  -0.719485  0  2.250336  0  0  -0.748008  0  2.240868  0  0  -0.398405  -0.699141  0  2.256224  0
O  O76  1  0.79416342  0.17391606  0.11160377  1  0  -0.784501  0  1.998931  0  0  -0.719489  0  2.250325  0  0  -0.748008  0  2.240862  0  0  -0.39844  -0.699151  0  2.256219  0
O  O77  1  0.69391895  0.40163199  0.79162947  1  0  -0.615623  0  1.851197  0  0  -0.596625  0  2.104523  0  0  -0.61658  0  2.098678  0  0  -0.29122  -0.583462  0  2.108319  0
O  O78  1  0.30608829  0.59836820  0.20837166  1  0  -0.615726  0  1.851283  0  0  -0.596716  0  2.104609  0  0  -0.616673  0  2.098759  0  0  -0.291219  -0.583526  0  2.108339  0
O  O79  1  0.72967411  0.38616695  0.62360357  1  0  -0.446131  0  1.814732  0  0  -0.423743  0  2.022802  0  0  -0.441285  0  2.019163  0  0  -0.151436  -0.412641  0  2.025193  0
O  O80  1  0.27032632  0.61383326  0.37639752  1  0  -0.446122  0  1.814596  0  0  -0.423702  0  2.022697  0  0  -0.441248  0  2.019061  0  0  -0.151438  -0.412604  0  2.025068  0
O  O81  1  0.57647510  0.22071478  0.71078788  1  0  -0.439181  0  1.745281  0  0  -0.431078  0  1.959534  0  0  -0.445857  0  1.955911  0  0  -0.168297  -0.421709  0  1.961716  0
O  O82  1  0.42352533  0.77928542  0.28921321  1  0  -0.439201  0  1.745272  0  0  -0.431114  0  1.959483  0  0  -0.445892  0  1.955856  0  0  -0.168311  -0.421747  0  1.961665  0
