# generated using pymatgen
data_H10PbC20Br4(N2O3)2
_symmetry_space_group_name_H-M   'P 1'
_cell_length_a   8.93426208
_cell_length_b   8.93432094
_cell_length_c   14.92546158
_cell_angle_alpha   78.49032971
_cell_angle_beta   78.49006186
_cell_angle_gamma   80.06591438
_symmetry_Int_Tables_number   1
_chemical_formula_structural   H10PbC20Br4(N2O3)2
_chemical_formula_sum   'H20 Pb2 C40 Br8 N8 O12'
_cell_volume   1132.96244087
_cell_formula_units_Z   2
loop_
 _symmetry_equiv_pos_site_id
 _symmetry_equiv_pos_as_xyz
  1  'x, y, z'
loop_
 _atom_site_type_symbol
 _atom_site_label
 _atom_site_symmetry_multiplicity
 _atom_site_fract_x
 _atom_site_fract_y
 _atom_site_fract_z
 _atom_site_occupancy
 _atom_site_hle17_bader_spin_density
 _atom_site_hle17_ddec_charge
 _atom_site_hle17_ddec_spin_density
 _atom_site_hle17_ddec_sum_bond_order
 _atom_site_hle17_magmom
 _atom_site_hse06_10hf_bader_spin_density
 _atom_site_hse06_10hf_ddec_charge
 _atom_site_hse06_10hf_ddec_spin_density
 _atom_site_hse06_10hf_ddec_sum_bond_order
 _atom_site_hse06_10hf_magmom
 _atom_site_hse06_bader_spin_density
 _atom_site_hse06_ddec_charge
 _atom_site_hse06_ddec_spin_density
 _atom_site_hse06_ddec_sum_bond_order
 _atom_site_hse06_magmom
 _atom_site_pbe_bader_spin_density
 _atom_site_pbe_cm5_charge
 _atom_site_pbe_ddec_charge
 _atom_site_pbe_ddec_spin_density
 _atom_site_pbe_ddec_sum_bond_order
 _atom_site_pbe_magmom
H  H0  1  0.83003091  0.54594023  0.02046644  1  0  0.313989  0  0.92546  0  0  0.286204  0  1.004258  0  0  0.295428  0  0.996717  0  0  0.312487  0.279623  0  1.009686  0
H  H1  1  0.45406130  0.16996248  0.47952910  1  0  0.314069  0  0.925312  0  0  0.286264  0  1.004127  0  0  0.295492  0  0.996578  0  0  0.312517  0.279685  0  1.00955  0
H  H2  1  0.16997363  0.45406732  0.97952651  1  0  0.31403  0  0.925429  0  0  0.286239  0  1.004268  0  0  0.29546  0  0.996728  0  0  0.312472  0.279661  0  1.009688  0
H  H3  1  0.54593481  0.83002316  0.52047348  1  0  0.314047  0  0.925427  0  0  0.286266  0  1.004256  0  0  0.295491  0  0.996712  0  0  0.312461  0.279685  0  1.009686  0
H  H4  1  0.49017052  0.97028452  0.75803083  1  0  0.076324  0  0.944635  0  0  0.084255  0  1.01157  0  0  0.086575  0  1.009356  0  0  0.109983  0.082552  0  1.013109  0
H  H5  1  0.02971966  0.50982523  0.74197258  1  0  0.076375  0  0.944647  0  0  0.084294  0  1.011593  0  0  0.086616  0  1.009382  0  0  0.110001  0.082592  0  1.013137  0
H  H6  1  0.50981948  0.02972073  0.24197148  1  0  0.076369  0  0.944684  0  0  0.084286  0  1.011617  0  0  0.086611  0  1.009404  0  0  0.110016  0.082583  0  1.01316  0
H  H7  1  0.97028566  0.49017655  0.25802699  1  0  0.076381  0  0.944639  0  0  0.084309  0  1.011558  0  0  0.086632  0  1.009345  0  0  0.11001  0.082605  0  1.013102  0
H  H8  1  0.70892686  0.10317757  0.76504522  1  0  0.114896  0  0.957212  0  0  0.12146  0  1.022554  0  0  0.125786  0  1.020179  0  0  0.102808  0.118351  0  1.024424  0
H  H9  1  0.89681940  0.29107409  0.73495534  1  0  0.114886  0  0.957171  0  0  0.121448  0  1.022519  0  0  0.125777  0  1.020144  0  0  0.102807  0.11834  0  1.024386  0
H  H10  1  0.29106721  0.89682308  0.23495180  1  0  0.114888  0  0.957096  0  0  0.121447  0  1.022464  0  0  0.12578  0  1.020079  0  0  0.10279  0.118338  0  1.024335  0
H  H11  1  0.10317600  0.70893347  0.26504406  1  0  0.114898  0  0.957224  0  0  0.121456  0  1.022582  0  0  0.125789  0  1.020194  0  0  0.102797  0.118346  0  1.024453  0
H  H12  1  0.94035165  0.94247783  0.83009982  1  0  0.101314  0  0.940584  0  0  0.11079  0  1.00516  0  0  0.11389  0  1.002475  0  0  0.103837  0.108539  0  1.007054  0
H  H13  1  0.05751789  0.05964719  0.66989705  1  0  0.101293  0  0.94048  0  0  0.110803  0  1.005017  0  0  0.113907  0  1.002332  0  0  0.103812  0.108547  0  1.006912  0
H  H14  1  0.05965173  0.05752168  0.16988417  1  0  0.101241  0  0.940616  0  0  0.110774  0  1.005088  0  0  0.113876  0  1.002407  0  0  0.103742  0.10852  0  1.006982  0
H  H15  1  0.94247861  0.94035228  0.33010786  1  0  0.101295  0  0.940467  0  0  0.110814  0  1.004981  0  0  0.113917  0  1.002297  0  0  0.103799  0.108556  0  1.006877  0
H  H16  1  0.69763211  0.54863468  0.87912961  1  0  0.0794  0  0.957953  0  0  0.083777  0  1.03252  0  0  0.08713  0  1.028425  0  0  0.107202  0.081275  0  1.035582  0
H  H17  1  0.45136771  0.30236602  0.62086909  1  0  0.079354  0  0.957962  0  0  0.083732  0  1.032539  0  0  0.087085  0  1.028444  0  0  0.107187  0.081227  0  1.035604  0
H  H18  1  0.30236818  0.45137057  0.12086613  1  0  0.079342  0  0.957922  0  0  0.083717  0  1.032503  0  0  0.08707  0  1.028408  0  0  0.10718  0.081211  0  1.035567  0
H  H19  1  0.54863353  0.69763231  0.37912870  1  0  0.079328  0  0.957993  0  0  0.083707  0  1.032555  0  0  0.087058  0  1.028464  0  0  0.107184  0.081203  0  1.03562  0
Pb  Pb20  1  0.40011540  0.59987576  0.75000228  1  0  1.346335  0  1.328287  0  0  1.15823  0  1.713454  0  0  1.222218  0  1.669007  0  0  0.658683  1.112384  0  1.744398  0
Pb  Pb21  1  0.59985668  0.40013528  0.24999947  1  0  1.34631  0  1.328368  0  0  1.158224  0  1.713541  0  0  1.22221  0  1.669093  0  0  0.658665  1.112374  0  1.74451  0
C  C22  1  0.69478597  0.56183584  0.61142918  1  0  0.641537  0  3.987135  0  0  0.589172  0  4.287409  0  0  0.623288  0  4.280702  0  0  0.195252  0.566054  0  4.290945  0
C  C23  1  0.43816755  0.30520594  0.88857953  1  0  0.641549  0  3.98699  0  0  0.589185  0  4.28729  0  0  0.62329  0  4.28058  0  0  0.19517  0.566068  0  4.290825  0
C  C24  1  0.30520697  0.43817287  0.38857707  1  0  0.641529  0  3.987286  0  0  0.589135  0  4.287594  0  0  0.623246  0  4.280881  0  0  0.195114  0.566021  0  4.291126  0
C  C25  1  0.56184049  0.69478430  0.11142310  1  0  0.641646  0  3.987095  0  0  0.589332  0  4.287331  0  0  0.62344  0  4.280623  0  0  0.195275  0.566229  0  4.290844  0
C  C26  1  0.85046045  0.53257557  0.55035782  1  0  -0.099235  0  3.736263  0  0  -0.09368  0  3.983571  0  0  -0.09617  0  4.000366  0  0  -0.023694  -0.092437  0  3.972753  0
C  C27  1  0.46743018  0.14953471  0.94964937  1  0  -0.099025  0  3.735905  0  0  -0.093608  0  3.98348  0  0  -0.096056  0  4.000218  0  0  -0.023666  -0.092356  0  3.972632  0
C  C28  1  0.14953213  0.46742736  0.44965586  1  0  -0.099147  0  3.736032  0  0  -0.093599  0  3.98347  0  0  -0.096122  0  4.000375  0  0  -0.023581  -0.092333  0  3.972587  0
C  C29  1  0.53258587  0.85045552  0.05034762  1  0  -0.099139  0  3.736213  0  0  -0.09375  0  3.983778  0  0  -0.096214  0  4.000553  0  0  -0.023692  -0.092504  0  3.972949  0
C  C30  1  0.95729635  0.63588305  0.53669613  1  0  0.026015  0  3.708239  0  0  0.02761  0  3.982092  0  0  0.030558  0  4.00229  0  0  -0.02467  0.025513  0  3.968657  0
C  C31  1  0.36412787  0.04269410  0.96331033  1  0  0.025955  0  3.708298  0  0  0.02752  0  3.982216  0  0  0.030452  0  4.002412  0  0  -0.024698  0.025432  0  3.968771  0
C  C32  1  0.04269800  0.36411526  0.46331654  1  0  0.026002  0  3.70822  0  0  0.027512  0  3.982171  0  0  0.03045  0  4.002366  0  0  -0.024729  0.025424  0  3.968725  0
C  C33  1  0.63590023  0.95729150  0.03668779  1  0  0.025919  0  3.707951  0  0  0.027525  0  3.981822  0  0  0.030458  0  4.002025  0  0  -0.02473  0.025429  0  3.968387  0
C  C34  1  0.10579637  0.60361793  0.48674159  1  0  0.032361  0  3.705999  0  0  0.032958  0  3.979433  0  0  0.035881  0  3.999716  0  0  -0.021357  0.030865  0  3.965947  0
C  C35  1  0.39639709  0.89419694  0.01326185  1  0  0.032349  0  3.706142  0  0  0.033024  0  3.979568  0  0  0.035941  0  3.999862  0  0  -0.021311  0.030932  0  3.966062  0
C  C36  1  0.89420649  0.39638499  0.51326953  1  0  0.032558  0  3.705742  0  0  0.033212  0  3.979124  0  0  0.036142  0  3.999413  0  0  -0.021225  0.031128  0  3.965607  0
C  C37  1  0.60362728  0.10579098  0.98673308  1  0  0.032366  0  3.705704  0  0  0.033089  0  3.979002  0  0  0.036004  0  3.99929  0  0  -0.021281  0.031  0  3.965506  0
C  C38  1  0.59060465  0.90575417  0.78616172  1  0  0.139772  0  3.704766  0  0  0.104796  0  3.968004  0  0  0.113694  0  3.984813  0  0  0.045633  0.099112  0  3.956458  0
C  C39  1  0.09424716  0.40939319  0.71383961  1  0  0.139744  0  3.704776  0  0  0.104778  0  3.968001  0  0  0.11367  0  3.984817  0  0  0.045637  0.099097  0  3.956459  0
C  C40  1  0.40939300  0.09424532  0.21383635  1  0  0.139681  0  3.704905  0  0  0.104741  0  3.968122  0  0  0.11363  0  3.98494  0  0  0.045566  0.099054  0  3.956582  0
C  C41  1  0.90575474  0.59060859  0.28616171  1  0  0.139719  0  3.704993  0  0  0.104766  0  3.968211  0  0  0.11366  0  3.985021  0  0  0.045606  0.099086  0  3.956664  0
C  C42  1  0.71474232  0.97930550  0.78943485  1  0  -0.12637  0  3.735228  0  0  -0.138695  0  3.99338  0  0  -0.147021  0  4.014434  0  0  -0.091616  -0.133482  0  3.979376  0
C  C43  1  0.02069465  0.28526041  0.71056465  1  0  -0.126367  0  3.735136  0  0  -0.138706  0  3.993319  0  0  -0.147034  0  4.014377  0  0  -0.091628  -0.133491  0  3.97931  0
C  C44  1  0.28525912  0.02069975  0.21055807  1  0  -0.126326  0  3.735079  0  0  -0.138689  0  3.993277  0  0  -0.147021  0  4.01433  0  0  -0.091606  -0.133475  0  3.97927  0
C  C45  1  0.97930449  0.71474483  0.28943592  1  0  -0.126361  0  3.735333  0  0  -0.138723  0  3.993537  0  0  -0.14705  0  4.01458  0  0  -0.091603  -0.133508  0  3.979531  0
C  C46  1  0.83967118  0.89177432  0.82632870  1  0  -0.022175  0  3.705681  0  0  -0.052467  0  3.956671  0  0  -0.047823  0  3.974386  0  0  -0.069072  -0.055106  0  3.944602  0
C  C47  1  0.10822983  0.16033288  0.67366861  1  0  -0.022106  0  3.705601  0  0  -0.052417  0  3.956589  0  0  -0.047776  0  3.974305  0  0  -0.069021  -0.055053  0  3.944513  0
C  C48  1  0.16033109  0.10823325  0.17365848  1  0  -0.021997  0  3.705664  0  0  -0.052301  0  3.956641  0  0  -0.047665  0  3.974362  0  0  -0.068903  -0.054932  0  3.944564  0
C  C49  1  0.89176864  0.83966890  0.32633446  1  0  -0.022024  0  3.705527  0  0  -0.052316  0  3.956498  0  0  -0.047676  0  3.974217  0  0  -0.068959  -0.054951  0  3.94442  0
C  C50  1  0.83419114  0.73490426  0.86155006  1  0  -0.107921  0  3.764927  0  0  -0.082505  0  4.004868  0  0  -0.094103  0  4.027752  0  0  -0.013491  -0.075295  0  3.989762  0
C  C51  1  0.26509776  0.16580731  0.63844601  1  0  -0.10811  0  3.765074  0  0  -0.082648  0  4.005064  0  0  -0.094244  0  4.02794  0  0  -0.013543  -0.075436  0  3.989954  0
C  C52  1  0.16580460  0.26510101  0.13843818  1  0  -0.1083  0  3.765219  0  0  -0.082825  0  4.005206  0  0  -0.094413  0  4.028079  0  0  -0.013641  -0.075615  0  3.990102  0
C  C53  1  0.73489937  0.83418756  0.36155535  1  0  -0.108238  0  3.765242  0  0  -0.082788  0  4.005231  0  0  -0.094387  0  4.028111  0  0  -0.013558  -0.075568  0  3.990112  0
C  C54  1  0.70527854  0.67095425  0.85492384  1  0  0.140546  0  3.672181  0  0  0.097762  0  3.931928  0  0  0.108029  0  3.946496  0  0  0.053272  0.091018  0  3.922154  0
C  C55  1  0.32904697  0.29471721  0.64507472  1  0  0.140757  0  3.671935  0  0  0.097958  0  3.931685  0  0  0.108226  0  3.946248  0  0  0.053349  0.091214  0  3.921914  0
C  C56  1  0.29471911  0.32904524  0.14507156  1  0  0.140789  0  3.671822  0  0  0.098007  0  3.93154  0  0  0.10827  0  3.946106  0  0  0.053391  0.091269  0  3.921759  0
C  C57  1  0.67095099  0.70527997  0.35492493  1  0  0.140784  0  3.672155  0  0  0.098011  0  3.931865  0  0  0.108277  0  3.946435  0  0  0.053355  0.091264  0  3.922092  0
C  C58  1  0.97036330  0.64205643  0.89909198  1  0  0.516927  0  3.864317  0  0  0.46505  0  4.159194  0  0  0.495994  0  4.157405  0  0  0.23606  0.444287  0  4.15979  0
C  C59  1  0.35794931  0.02964268  0.60090185  1  0  0.517015  0  3.864315  0  0  0.464997  0  4.159385  0  0  0.495943  0  4.157591  0  0  0.236003  0.444227  0  4.159992  0
C  C60  1  0.02964046  0.35795690  0.10089836  1  0  0.516939  0  3.864412  0  0  0.464911  0  4.159566  0  0  0.495849  0  4.157777  0  0  0.235999  0.444136  0  4.160186  0
C  C61  1  0.64204242  0.97034989  0.39910177  1  0  0.516911  0  3.864027  0  0  0.464945  0  4.159128  0  0  0.495888  0  4.157334  0  0  0.236044  0.444174  0  4.159735  0
Br  Br62  1  0.89682393  0.81969459  0.58794403  1  0  -0.028542  0  1.403462  0  0  -0.026366  0  1.685944  0  0  -0.029404  0  1.680595  0  0  0.062219  -0.0243  0  1.689886  0
Br  Br63  1  0.18031280  0.10316827  0.91206423  1  0  -0.028515  0  1.40347  0  0  -0.026314  0  1.685957  0  0  -0.029353  0  1.680611  0  0  0.062214  -0.024255  0  1.68989  0
Br  Br64  1  0.10318283  0.18030486  0.41206637  1  0  -0.028582  0  1.403457  0  0  -0.026383  0  1.685959  0  0  -0.029415  0  1.68061  0  0  0.062181  -0.024327  0  1.689888  0
Br  Br65  1  0.81970339  0.89682080  0.08794092  1  0  -0.02848  0  1.403395  0  0  -0.026312  0  1.685907  0  0  -0.02935  0  1.68056  0  0  0.062248  -0.024247  0  1.689848  0
Br  Br66  1  0.24887512  0.74511463  0.46727449  1  0  0.014138  0  1.4089  0  0  0.018006  0  1.697356  0  0  0.016648  0  1.688756  0  0  0.083135  0.019019  0  1.703435  0
Br  Br67  1  0.25489551  0.75111727  0.03273031  1  0  0.014067  0  1.40894  0  0  0.017947  0  1.697362  0  0  0.016579  0  1.68877  0  0  0.08311  0.018956  0  1.703433  0
Br  Br68  1  0.75112657  0.25488023  0.53273237  1  0  0.014042  0  1.408809  0  0  0.017912  0  1.697217  0  0  0.016538  0  1.688639  0  0  0.083088  0.01892  0  1.703289  0
Br  Br69  1  0.74512526  0.24887181  0.96726559  1  0  0.014094  0  1.408902  0  0  0.017951  0  1.697295  0  0  0.016586  0  1.688698  0  0  0.083098  0.018963  0  1.703382  0
N  N70  1  0.58662646  0.75440267  0.81677442  1  0  -0.352326  0  3.183148  0  0  -0.285524  0  3.448103  0  0  -0.305428  0  3.467146  0  0  -0.30365  -0.271945  0  3.434896  0
N  N71  1  0.24559896  0.41337289  0.68322454  1  0  -0.352464  0  3.183036  0  0  -0.285651  0  3.447981  0  0  -0.305555  0  3.467022  0  0  -0.303699  -0.272077  0  3.434789  0
N  N72  1  0.41337430  0.24559913  0.18322167  1  0  -0.35241  0  3.18291  0  0  -0.285607  0  3.447847  0  0  -0.305511  0  3.466889  0  0  -0.303695  -0.272037  0  3.434667  0
N  N73  1  0.75440408  0.58662890  0.31677464  1  0  -0.352434  0  3.18309  0  0  -0.285639  0  3.44804  0  0  -0.305541  0  3.467079  0  0  -0.303738  -0.272073  0  3.434863  0
N  N74  1  0.93944178  0.54203847  0.97952363  1  0  -0.285389  0  3.335397  0  0  -0.239788  0  3.58566  0  0  -0.25813  0  3.596147  0  0  -0.299701  -0.227335  0  3.578343  0
N  N75  1  0.45795859  0.06055684  0.52047607  1  0  -0.285377  0  3.33534  0  0  -0.239703  0  3.585684  0  0  -0.25804  0  3.596155  0  0  -0.299702  -0.227258  0  3.578378  0
N  N76  1  0.06056603  0.45797023  0.02047014  1  0  -0.28508  0  3.335182  0  0  -0.239544  0  3.585538  0  0  -0.257879  0  3.596031  0  0  -0.299571  -0.227093  0  3.578216  0
N  N77  1  0.54203378  0.93943112  0.47952602  1  0  -0.285133  0  3.335235  0  0  -0.239668  0  3.585643  0  0  -0.257997  0  3.596118  0  0  -0.299634  -0.227224  0  3.578334  0
O  O78  1  0.58023420  0.63392170  0.57496849  1  0  -0.650233  0  2.007638  0  0  -0.592871  0  2.245102  0  0  -0.621884  0  2.23847  0  0  -0.309155  -0.572159  0  2.248807  0
O  O79  1  0.36608222  0.41975579  0.92503924  1  0  -0.650239  0  2.007699  0  0  -0.592863  0  2.245173  0  0  -0.621876  0  2.238545  0  0  -0.309102  -0.572157  0  2.248885  0
O  O80  1  0.41976020  0.36608470  0.42503719  1  0  -0.65027  0  2.007691  0  0  -0.592901  0  2.245191  0  0  -0.621908  0  2.238558  0  0  -0.309122  -0.572198  0  2.248902  0
O  O81  1  0.63392319  0.58022870  0.07496305  1  0  -0.650363  0  2.007608  0  0  -0.592999  0  2.245071  0  0  -0.622013  0  2.238442  0  0  -0.309254  -0.572295  0  2.248776  0
O  O82  1  0.69071991  0.50960997  0.69686904  1  0  -0.602352  0  1.986689  0  0  -0.542055  0  2.2189  0  0  -0.572474  0  2.215184  0  0  -0.289231  -0.520554  0  2.220586  0
O  O83  1  0.49038239  0.30926931  0.80313589  1  0  -0.602391  0  1.986554  0  0  -0.542081  0  2.218762  0  0  -0.572504  0  2.215051  0  0  -0.289188  -0.520579  0  2.220443  0
O  O84  1  0.30926288  0.49038953  0.30313750  1  0  -0.602361  0  1.986835  0  0  -0.542034  0  2.219041  0  0  -0.572448  0  2.215325  0  0  -0.289152  -0.520533  0  2.220721  0
O  O85  1  0.50961262  0.69072442  0.19686184  1  0  -0.602297  0  1.986812  0  0  -0.542039  0  2.219066  0  0  -0.572458  0  2.215354  0  0  -0.289117  -0.520539  0  2.220744  0
O  O86  1  0.10442557  0.65694384  0.85803777  1  0  -0.595968  0  1.99195  0  0  -0.547068  0  2.233693  0  0  -0.571623  0  2.226628  0  0  -0.295641  -0.529857  0  2.238073  0
O  O87  1  0.34306266  0.89556846  0.64196363  1  0  -0.596038  0  1.991646  0  0  -0.547082  0  2.233433  0  0  -0.571644  0  2.226375  0  0  -0.295584  -0.529853  0  2.237787  0
O  O88  1  0.89557464  0.34307871  0.14195391  1  0  -0.595963  0  1.991868  0  0  -0.547019  0  2.233686  0  0  -0.571574  0  2.226625  0  0  -0.295606  -0.5298  0  2.238069  0
O  O89  1  0.65692355  0.10443103  0.35804250  1  0  -0.596022  0  1.991426  0  0  -0.54708  0  2.233216  0  0  -0.571645  0  2.226167  0  0  -0.295641  -0.529846  0  2.237559  0
