# generated using pymatgen
data_CuH4C3NCl
_symmetry_space_group_name_H-M   'P 1'
_cell_length_a   3.68550887
_cell_length_b   8.19205810
_cell_length_c   28.45927247
_cell_angle_alpha   90.00055244
_cell_angle_beta   92.04892065
_cell_angle_gamma   90.00141376
_symmetry_Int_Tables_number   1
_chemical_formula_structural   CuH4C3NCl
_chemical_formula_sum   'Cu8 H32 C24 N8 Cl8'
_cell_volume   858.69024597
_cell_formula_units_Z   8
loop_
 _symmetry_equiv_pos_site_id
 _symmetry_equiv_pos_as_xyz
  1  'x, y, z'
loop_
 _atom_site_type_symbol
 _atom_site_label
 _atom_site_symmetry_multiplicity
 _atom_site_fract_x
 _atom_site_fract_y
 _atom_site_fract_z
 _atom_site_occupancy
 _atom_site_hle17_bader_spin_density
 _atom_site_hle17_ddec_charge
 _atom_site_hle17_ddec_spin_density
 _atom_site_hle17_ddec_sum_bond_order
 _atom_site_hle17_magmom
 _atom_site_hse06_10hf_bader_spin_density
 _atom_site_hse06_10hf_ddec_charge
 _atom_site_hse06_10hf_ddec_spin_density
 _atom_site_hse06_10hf_ddec_sum_bond_order
 _atom_site_hse06_10hf_magmom
 _atom_site_hse06_bader_spin_density
 _atom_site_hse06_ddec_charge
 _atom_site_hse06_ddec_spin_density
 _atom_site_hse06_ddec_sum_bond_order
 _atom_site_hse06_magmom
 _atom_site_pbe_bader_spin_density
 _atom_site_pbe_cm5_charge
 _atom_site_pbe_ddec_charge
 _atom_site_pbe_ddec_spin_density
 _atom_site_pbe_ddec_sum_bond_order
 _atom_site_pbe_magmom
Cu  Cu0  1  0.32502332  0.59736808  0.13210172  1  0  0.43658  0  1.944547  0  0  0.342195  0  2.432065  0  0  0.346177  0  2.381105  0  0  0.374419  0.340753  0  2.465744  0
Cu  Cu1  1  0.32504348  0.90263582  0.63210338  1  0  0.436568  0  1.944466  0  0  0.342196  0  2.431989  0  0  0.346186  0  2.381023  0  0  0.374423  0.340735  0  2.465653  0
Cu  Cu2  1  0.67500713  0.40263203  0.86789853  1  0  0.4366  0  1.944532  0  0  0.342193  0  2.432069  0  0  0.346166  0  2.381103  0  0  0.3744  0.340738  0  2.465736  0
Cu  Cu3  1  0.67493262  0.09737040  0.36789598  1  0  0.436608  0  1.944238  0  0  0.342297  0  2.431734  0  0  0.346292  0  2.380782  0  0  0.374458  0.340845  0  2.465399  0
Cu  Cu4  1  0.00784746  0.82160435  0.07194946  1  0  0.418649  0  1.969621  0  0  0.326436  0  2.452574  0  0  0.330216  0  2.402349  0  0  0.368001  0.325491  0  2.48543  0
Cu  Cu5  1  0.00784251  0.67839382  0.57195815  1  0  0.418686  0  1.969335  0  0  0.32649  0  2.452277  0  0  0.330214  0  2.402007  0  0  0.36791  0.325506  0  2.485121  0
Cu  Cu6  1  0.99216660  0.17839576  0.92804932  1  0  0.41868  0  1.969542  0  0  0.326487  0  2.452486  0  0  0.330252  0  2.402253  0  0  0.367986  0.325529  0  2.485333  0
Cu  Cu7  1  0.99212847  0.32161728  0.42804576  1  0  0.418822  0  1.96945  0  0  0.326635  0  2.452407  0  0  0.330368  0  2.402156  0  0  0.368035  0.325663  0  2.485249  0
H  H8  1  0.30623279  0.98550894  0.15564151  1  0  0.09825  0  0.974264  0  0  0.105047  0  1.041188  0  0  0.108885  0  1.038493  0  0  0.107119  0.102  0  1.043796  0
H  H9  1  0.30622711  0.51446870  0.65564904  1  0  0.0982  0  0.974545  0  0  0.105023  0  1.041381  0  0  0.10885  0  1.038701  0  0  0.107166  0.101982  0  1.044002  0
H  H10  1  0.69377878  0.01447897  0.84436043  1  0  0.098221  0  0.974314  0  0  0.105037  0  1.041227  0  0  0.108868  0  1.03853  0  0  0.107204  0.101989  0  1.043841  0
H  H11  1  0.69375699  0.48551066  0.34434824  1  0  0.098153  0  0.974204  0  0  0.105012  0  1.04108  0  0  0.108838  0  1.038399  0  0  0.107133  0.101975  0  1.043702  0
H  H12  1  0.87565884  0.14386188  0.02625078  1  0  0.086559  0  0.96724  0  0  0.090732  0  1.042275  0  0  0.096005  0  1.036498  0  0  0.102564  0.086668  0  1.046903  0
H  H13  1  0.87564942  0.35615054  0.52625326  1  0  0.086631  0  0.9669  0  0  0.090762  0  1.041995  0  0  0.096056  0  1.036194  0  0  0.102604  0.086667  0  1.04665  0
H  H14  1  0.12436899  0.85614312  0.97375087  1  0  0.08656  0  0.967159  0  0  0.090719  0  1.04221  0  0  0.095998  0  1.036421  0  0  0.102529  0.08663  0  1.046862  0
H  H15  1  0.12429669  0.64387033  0.47374424  1  0  0.086664  0  0.96705  0  0  0.09076  0  1.042157  0  0  0.096031  0  1.036386  0  0  0.10261  0.086732  0  1.046754  0
H  H16  1  0.03310973  0.43082804  0.04748022  1  0  0.10248  0  0.947556  0  0  0.108745  0  1.011921  0  0  0.112479  0  1.009398  0  0  0.106394  0.105774  0  1.014387  0
H  H17  1  0.03315819  0.06918522  0.54748247  1  0  0.102537  0  0.947559  0  0  0.108852  0  1.011927  0  0  0.112588  0  1.009396  0  0  0.106392  0.105877  0  1.014396  0
H  H18  1  0.96689905  0.56917696  0.95252066  1  0  0.102481  0  0.947488  0  0  0.108741  0  1.01187  0  0  0.112476  0  1.009341  0  0  0.106387  0.10577  0  1.014337  0
H  H19  1  0.96681784  0.93082954  0.45251584  1  0  0.102571  0  0.947431  0  0  0.10887  0  1.01184  0  0  0.112605  0  1.009309  0  0  0.106416  0.105894  0  1.014307  0
H  H20  1  0.29086589  0.37101708  0.20970576  1  0  0.090104  0  0.924309  0  0  0.113286  0  0.978708  0  0  0.115149  0  0.977397  0  0  0.100711  0.11175  0  0.979868  0
H  H21  1  0.29087750  0.12893762  0.70971753  1  0  0.090211  0  0.923554  0  0  0.113339  0  0.978054  0  0  0.115215  0  0.976747  0  0  0.100716  0.111797  0  0.979227  0
H  H22  1  0.70914807  0.62895374  0.79029162  1  0  0.090189  0  0.923821  0  0  0.113419  0  0.978207  0  0  0.115292  0  0.976895  0  0  0.100706  0.111825  0  0.979446  0
H  H23  1  0.70910175  0.87102709  0.29028816  1  0  0.090144  0  0.924262  0  0  0.1133  0  0.978664  0  0  0.115165  0  0.977352  0  0  0.100697  0.111752  0  0.979846  0
H  H24  1  0.71899832  0.37159529  0.18597944  1  0  0.077049  0  0.9626  0  0  0.090621  0  1.03523  0  0  0.0926  0  1.033588  0  0  0.091009  0.08905  0  1.036496  0
H  H25  1  0.71910943  0.12837082  0.68597820  1  0  0.076806  0  0.962294  0  0  0.090343  0  1.034998  0  0  0.092329  0  1.033357  0  0  0.090876  0.088775  0  1.036251  0
H  H26  1  0.28094006  0.62838529  0.81402401  1  0  0.076893  0  0.962465  0  0  0.090479  0  1.03514  0  0  0.092464  0  1.033497  0  0  0.090931  0.088914  0  1.03638  0
H  H27  1  0.28096671  0.87159633  0.31401553  1  0  0.077015  0  0.962648  0  0  0.090536  0  1.03529  0  0  0.092513  0  1.03365  0  0  0.090971  0.088977  0  1.036534  0
H  H28  1  0.73500125  0.19445552  0.25618096  1  0  0.108718  0  0.967812  0  0  0.127376  0  1.032341  0  0  0.129562  0  1.032383  0  0  0.078129  0.125632  0  1.032565  0
H  H29  1  0.73507300  0.30554983  0.75617972  1  0  0.109105  0  0.967847  0  0  0.127696  0  1.03244  0  0  0.129882  0  1.032472  0  0  0.078228  0.125952  0  1.032669  0
H  H30  1  0.26501041  0.80554337  0.74382239  1  0  0.108957  0  0.96787  0  0  0.127476  0  1.03252  0  0  0.12966  0  1.032558  0  0  0.078152  0.125736  0  1.032747  0
H  H31  1  0.26495148  0.69445517  0.24381278  1  0  0.108805  0  0.967745  0  0  0.127396  0  1.032369  0  0  0.129586  0  1.032399  0  0  0.078135  0.125651  0  1.032595  0
H  H32  1  0.77225448  0.06267359  0.20681777  1  0  0.089933  0  0.980777  0  0  0.109519  0  1.048041  0  0  0.109941  0  1.049759  0  0  0.078269  0.109161  0  1.046881  0
H  H33  1  0.77227142  0.43729386  0.70682443  1  0  0.090047  0  0.981178  0  0  0.109659  0  1.048356  0  0  0.110081  0  1.050065  0  0  0.078272  0.109305  0  1.047187  0
H  H34  1  0.22776763  0.93730944  0.79317964  1  0  0.090025  0  0.981058  0  0  0.109595  0  1.048281  0  0  0.110019  0  1.049991  0  0  0.07828  0.109243  0  1.047114  0
H  H35  1  0.22771013  0.56267208  0.29317529  1  0  0.089815  0  0.980862  0  0  0.10937  0  1.048172  0  0  0.109793  0  1.049886  0  0  0.078234  0.109013  0  1.047012  0
H  H36  1  0.35447441  0.08134099  0.23540645  1  0  0.098687  0  0.961486  0  0  0.121563  0  1.021131  0  0  0.122759  0  1.021884  0  0  0.084444  0.120602  0  1.020729  0
H  H37  1  0.35462042  0.41862144  0.73541000  1  0  0.098905  0  0.961968  0  0  0.121891  0  1.021384  0  0  0.123067  0  1.022154  0  0  0.084575  0.12093  0  1.020986  0
H  H38  1  0.64549374  0.91863593  0.76459569  1  0  0.098723  0  0.962134  0  0  0.121686  0  1.021599  0  0  0.122865  0  1.022369  0  0  0.084496  0.120723  0  1.021204  0
H  H39  1  0.64548028  0.58135426  0.26458558  1  0  0.098668  0  0.961552  0  0  0.12159  0  1.021137  0  0  0.122769  0  1.021908  0  0  0.084456  0.120645  0  1.02072  0
C  C40  1  0.32209228  0.24659074  0.14485051  1  0  0.208304  0  3.675866  0  0  0.214244  0  3.917642  0  0  0.219326  0  3.93593  0  0  0.112858  0.210591  0  3.905576  0
C  C41  1  0.32208240  0.25342676  0.64484744  1  0  0.208142  0  3.676778  0  0  0.214094  0  3.918358  0  0  0.219193  0  3.936651  0  0  0.112698  0.210441  0  3.906293  0
C  C42  1  0.67792238  0.75342402  0.85515707  1  0  0.207914  0  3.676697  0  0  0.213917  0  3.918363  0  0  0.219002  0  3.936653  0  0  0.112702  0.21027  0  3.906284  0
C  C43  1  0.67786315  0.74659655  0.35514198  1  0  0.208536  0  3.67565  0  0  0.214489  0  3.917451  0  0  0.219573  0  3.935741  0  0  0.112911  0.210838  0  3.905386  0
C  C44  1  0.24249212  0.08651796  0.13198524  1  0  0.024067  0  3.629351  0  0  -0.01248  0  3.883918  0  0  -0.009383  0  3.895847  0  0  0.032496  -0.015214  0  3.876874  0
C  C45  1  0.24250000  0.41348476  0.63199708  1  0  0.024359  0  3.631242  0  0  -0.012191  0  3.885689  0  0  -0.009112  0  3.897608  0  0  0.032576  -0.014938  0  3.878662  0
C  C46  1  0.75752470  0.91348338  0.86801426  1  0  0.024381  0  3.630032  0  0  -0.012256  0  3.88461  0  0  -0.009149  0  3.896515  0  0  0.032474  -0.014994  0  3.87758  0
C  C47  1  0.75749273  0.58652390  0.36800726  1  0  0.024149  0  3.628925  0  0  -0.012501  0  3.8836  0  0  -0.009404  0  3.895508  0  0  0.032454  -0.015254  0  3.876569  0
C  C48  1  0.00831872  0.17170519  0.06009068  1  0  0.062223  0  3.66963  0  0  0.031034  0  3.928336  0  0  0.033761  0  3.939944  0  0  0.03048  0.028878  0  3.921414  0
C  C49  1  0.00836000  0.32829479  0.56010205  1  0  0.062364  0  3.669098  0  0  0.031306  0  3.927741  0  0  0.034002  0  3.93934  0  0  0.030618  0.02918  0  3.920823  0
C  C50  1  0.99167081  0.82829980  0.93990661  1  0  0.062215  0  3.669541  0  0  0.031063  0  3.928183  0  0  0.033783  0  3.939794  0  0  0.030614  0.028927  0  3.921273  0
C  C51  1  0.99162456  0.67171387  0.43990191  1  0  0.062208  0  3.669692  0  0  0.031207  0  3.928353  0  0  0.033915  0  3.939968  0  0  0.030586  0.029023  0  3.921398  0
C  C52  1  0.09246752  0.33149235  0.07196640  1  0  0.096703  0  3.655485  0  0  0.064521  0  3.914084  0  0  0.070687  0  3.924951  0  0  0.038751  0.059482  0  3.90842  0
C  C53  1  0.09249990  0.16849680  0.57197309  1  0  0.096637  0  3.655532  0  0  0.064202  0  3.914336  0  0  0.070367  0  3.92521  0  0  0.03869  0.059167  0  3.908664  0
C  C54  1  0.90755745  0.66850410  0.92803313  1  0  0.096815  0  3.655389  0  0  0.064578  0  3.914011  0  0  0.070742  0  3.924891  0  0  0.038765  0.059543  0  3.908344  0
C  C55  1  0.90747089  0.83150209  0.42802801  1  0  0.096651  0  3.655404  0  0  0.064242  0  3.914229  0  0  0.070427  0  3.925072  0  0  0.03863  0.059211  0  3.908569  0
C  C56  1  0.48544971  0.29125649  0.19211337  1  0  -0.142043  0  3.729952  0  0  -0.181686  0  3.980278  0  0  -0.183239  0  3.99166  0  0  -0.162383  -0.180305  0  3.972421  0
C  C57  1  0.48548103  0.20877551  0.69211278  1  0  -0.142254  0  3.728426  0  0  -0.181716  0  3.97866  0  0  -0.183316  0  3.9901  0  0  -0.162201  -0.180322  0  3.970789  0
C  C58  1  0.51455116  0.70876071  0.80789099  1  0  -0.142131  0  3.729148  0  0  -0.18177  0  3.979344  0  0  -0.183351  0  3.990761  0  0  -0.162237  -0.180346  0  3.971474  0
C  C59  1  0.51451366  0.79125756  0.30788067  1  0  -0.142313  0  3.730321  0  0  -0.181849  0  3.980602  0  0  -0.183399  0  3.991975  0  0  -0.162421  -0.180463  0  3.972747  0
C  C60  1  0.59312174  0.14919446  0.22422944  1  0  -0.286651  0  3.696571  0  0  -0.359203  0  3.937421  0  0  -0.362783  0  3.948564  0  0  -0.255044  -0.356385  0  3.929727  0
C  C61  1  0.59323235  0.35084843  0.72424462  1  0  -0.287167  0  3.697336  0  0  -0.359919  0  3.938153  0  0  -0.363465  0  3.94929  0  0  -0.255328  -0.357106  0  3.930469  0
C  C62  1  0.40685673  0.85083006  0.77576501  1  0  -0.286846  0  3.697399  0  0  -0.359405  0  3.938233  0  0  -0.362968  0  3.949391  0  0  -0.255135  -0.356593  0  3.930533  0
C  C63  1  0.40683390  0.64919685  0.27576313  1  0  -0.286511  0  3.696781  0  0  -0.359066  0  3.937618  0  0  -0.362638  0  3.948769  0  0  -0.254993  -0.356266  0  3.929907  0
N  N64  1  0.24853201  0.37117875  0.11413157  1  0  -0.304908  0  3.347667  0  0  -0.242682  0  3.650044  0  0  -0.246654  0  3.651352  0  0  -0.363271  -0.240197  0  3.648616  0
N  N65  1  0.24856483  0.12881975  0.61413604  1  0  -0.304719  0  3.348046  0  0  -0.242405  0  3.650392  0  0  -0.246373  0  3.651707  0  0  -0.363165  -0.239914  0  3.648953  0
N  N66  1  0.75147417  0.62882014  0.88587105  1  0  -0.304877  0  3.347841  0  0  -0.242626  0  3.650142  0  0  -0.246593  0  3.651444  0  0  -0.363296  -0.240142  0  3.648712  0
N  N67  1  0.75141665  0.87118402  0.38586263  1  0  -0.304916  0  3.34795  0  0  -0.242665  0  3.650421  0  0  -0.246649  0  3.651754  0  0  -0.363225  -0.240182  0  3.648989  0
N  N68  1  0.08363460  0.04678760  0.08989857  1  0  -0.239749  0  3.407035  0  0  -0.172474  0  3.711179  0  0  -0.174097  0  3.713436  0  0  -0.366971  -0.171609  0  3.70922  0
N  N69  1  0.08367771  0.45319719  0.58991802  1  0  -0.240069  0  3.408044  0  0  -0.172773  0  3.712066  0  0  -0.174333  0  3.714239  0  0  -0.367073  -0.171895  0  3.710084  0
N  N70  1  0.91636283  0.95321008  0.91009524  1  0  -0.23986  0  3.407399  0  0  -0.172555  0  3.711498  0  0  -0.174161  0  3.713727  0  0  -0.367029  -0.171685  0  3.709531  0
N  N71  1  0.91633994  0.54679804  0.41009343  1  0  -0.24003  0  3.407506  0  0  -0.172714  0  3.711601  0  0  -0.174292  0  3.713786  0  0  -0.367076  -0.171844  0  3.709646  0
Cl  Cl72  1  0.83299667  0.72710082  0.16239911  1  0  -0.514481  0  1.434591  0  0  -0.440657  0  1.824622  0  0  -0.456934  0  1.786792  0  0  -0.276229  -0.429188  0  1.850489  0
Cl  Cl73  1  0.83300719  0.77290385  0.66240108  1  0  -0.514466  0  1.434486  0  0  -0.440663  0  1.824527  0  0  -0.456934  0  1.786686  0  0  -0.276237  -0.429182  0  1.850376  0
Cl  Cl74  1  0.16702294  0.27289929  0.83760146  1  0  -0.514454  0  1.434596  0  0  -0.440616  0  1.824627  0  0  -0.456888  0  1.786786  0  0  -0.276183  -0.429127  0  1.850451  0
Cl  Cl75  1  0.16696891  0.22710603  0.33759828  1  0  -0.51446  0  1.434386  0  0  -0.440688  0  1.824429  0  0  -0.456963  0  1.786594  0  0  -0.276252  -0.42921  0  1.850287  0
Cl  Cl76  1  0.50437652  0.69297844  0.04213009  1  0  -0.51048  0  1.464959  0  0  -0.436121  0  1.859556  0  0  -0.454443  0  1.823567  0  0  -0.281742  -0.422916  0  1.88376  0
Cl  Cl77  1  0.50438065  0.80700364  0.54213108  1  0  -0.510509  0  1.464828  0  0  -0.436187  0  1.859471  0  0  -0.45449  0  1.823458  0  0  -0.281752  -0.422963  0  1.88366  0
Cl  Cl78  1  0.49563769  0.30701801  0.95787081  1  0  -0.510495  0  1.464911  0  0  -0.43616  0  1.859531  0  0  -0.454474  0  1.823532  0  0  -0.281739  -0.422947  0  1.883731  0
Cl  Cl79  1  0.49558466  0.19300258  0.45786930  1  0  -0.510582  0  1.464896  0  0  -0.436243  0  1.859513  0  0  -0.454553  0  1.823512  0  0  -0.281754  -0.423019  0  1.883693  0
