# generated using pymatgen
data_CdH8C19NO7
_symmetry_space_group_name_H-M   'P 1'
_cell_length_a   5.10085986
_cell_length_b   15.17690753
_cell_length_c   21.23367543
_cell_angle_alpha   109.33771468
_cell_angle_beta   89.99990752
_cell_angle_gamma   90.00013199
_symmetry_Int_Tables_number   1
_chemical_formula_structural   CdH8C19NO7
_chemical_formula_sum   'Cd4 H32 C76 N4 O28'
_cell_volume   1551.07232197
_cell_formula_units_Z   4
loop_
 _symmetry_equiv_pos_site_id
 _symmetry_equiv_pos_as_xyz
  1  'x, y, z'
loop_
 _atom_site_type_symbol
 _atom_site_label
 _atom_site_symmetry_multiplicity
 _atom_site_fract_x
 _atom_site_fract_y
 _atom_site_fract_z
 _atom_site_occupancy
 _atom_site_hle17_bader_spin_density
 _atom_site_hle17_ddec_charge
 _atom_site_hle17_ddec_spin_density
 _atom_site_hle17_ddec_sum_bond_order
 _atom_site_hle17_magmom
 _atom_site_hse06_10hf_bader_spin_density
 _atom_site_hse06_10hf_ddec_charge
 _atom_site_hse06_10hf_ddec_spin_density
 _atom_site_hse06_10hf_ddec_sum_bond_order
 _atom_site_hse06_10hf_magmom
 _atom_site_hse06_bader_spin_density
 _atom_site_hse06_ddec_charge
 _atom_site_hse06_ddec_spin_density
 _atom_site_hse06_ddec_sum_bond_order
 _atom_site_hse06_magmom
 _atom_site_pbe_bader_spin_density
 _atom_site_pbe_cm5_charge
 _atom_site_pbe_ddec_charge
 _atom_site_pbe_ddec_spin_density
 _atom_site_pbe_ddec_sum_bond_order
 _atom_site_pbe_magmom
Cd  Cd0  1  0.36512690  0.82252371  0.19232530  1  0  1.217543  0  1.55703  0  0  1.033863  0  1.993582  0  0  1.095582  0  1.936442  0  0  0.792579  0.989706  0  2.032658  0
Cd  Cd1  1  0.86512995  0.67747733  0.30767490  1  0  1.217568  0  1.557  0  0  1.033907  0  1.993524  0  0  1.095628  0  1.936383  0  0  0.792601  0.989752  0  2.032601  0
Cd  Cd2  1  0.63487125  0.17747631  0.80767517  1  0  1.217571  0  1.55701  0  0  1.033907  0  1.993532  0  0  1.095625  0  1.936394  0  0  0.792607  0.989748  0  2.032609  0
Cd  Cd3  1  0.13487212  0.32252269  0.69232510  1  0  1.217581  0  1.556999  0  0  1.03392  0  1.993534  0  0  1.095639  0  1.936392  0  0  0.792606  0.98976  0  2.032611  0
H  H4  1  0.85851398  0.59354669  0.05364465  1  0  0.114903  0  0.936174  0  0  0.123806  0  0.996999  0  0  0.127333  0  0.995422  0  0  0.111944  0.121232  0  0.998392  0
H  H5  1  0.35851372  0.90645295  0.44635569  1  0  0.114921  0  0.936068  0  0  0.123845  0  0.996894  0  0  0.127372  0  0.995317  0  0  0.111967  0.121269  0  0.998287  0
H  H6  1  0.14148809  0.40645333  0.94635535  1  0  0.114911  0  0.936155  0  0  0.123818  0  0.99698  0  0  0.127345  0  0.995403  0  0  0.111953  0.121243  0  0.998373  0
H  H7  1  0.64148834  0.09354637  0.55364414  1  0  0.114929  0  0.936114  0  0  0.123832  0  0.996947  0  0  0.127358  0  0.99537  0  0  0.111953  0.121257  0  0.99834  0
H  H8  1  0.59510707  0.44759254  0.00493101  1  0  0.10503  0  0.965119  0  0  0.11259  0  1.031235  0  0  0.115793  0  1.028253  0  0  0.112563  0.11023  0  1.033493  0
H  H9  1  0.09510601  0.05240684  0.49506928  1  0  0.105025  0  0.965152  0  0  0.112568  0  1.031283  0  0  0.115771  0  1.028301  0  0  0.112579  0.110209  0  1.033542  0
H  H10  1  0.40489303  0.55240749  0.99506899  1  0  0.105029  0  0.965155  0  0  0.112587  0  1.031268  0  0  0.115789  0  1.028287  0  0  0.112574  0.110228  0  1.033527  0
H  H11  1  0.90489410  0.94759178  0.50493087  1  0  0.104997  0  0.965201  0  0  0.112576  0  1.031292  0  0  0.115779  0  1.02831  0  0  0.112561  0.110216  0  1.033551  0
H  H12  1  0.36625048  0.40481524  0.27696782  1  0  0.115982  0  0.946609  0  0  0.125234  0  1.006872  0  0  0.129346  0  1.00462  0  0  0.108885  0.122247  0  1.008691  0
H  H13  1  0.86624961  0.09518502  0.22303303  1  0  0.115972  0  0.946591  0  0  0.125221  0  1.006862  0  0  0.129334  0  1.004607  0  0  0.108883  0.122231  0  1.008691  0
H  H14  1  0.63374963  0.59518548  0.72303281  1  0  0.115929  0  0.946589  0  0  0.125179  0  1.006868  0  0  0.129293  0  1.004614  0  0  0.108866  0.122187  0  1.008701  0
H  H15  1  0.13375050  0.90481431  0.77696727  1  0  0.115947  0  0.946606  0  0  0.125201  0  1.006878  0  0  0.129315  0  1.00462  0  0  0.10886  0.122206  0  1.008722  0
H  H16  1  0.10692330  0.26144348  0.22360099  1  0  0.102407  0  0.938689  0  0  0.113042  0  0.999221  0  0  0.116063  0  0.997007  0  0  0.110705  0.110886  0  1.000792  0
H  H17  1  0.60692502  0.23855590  0.27639929  1  0  0.102408  0  0.938654  0  0  0.113046  0  0.999187  0  0  0.116069  0  0.996971  0  0  0.110696  0.110891  0  1.000759  0
H  H18  1  0.89307485  0.73855654  0.77639901  1  0  0.102385  0  0.938681  0  0  0.113022  0  0.999213  0  0  0.116045  0  0.996996  0  0  0.110683  0.110866  0  1.000783  0
H  H19  1  0.39307509  0.76144343  0.72360149  1  0  0.102371  0  0.938686  0  0  0.113005  0  0.999223  0  0  0.116027  0  0.99701  0  0  0.110686  0.11085  0  1.000792  0
H  H20  1  0.52684550  0.99383912  0.13987963  1  0  0.079384  0  0.955615  0  0  0.086318  0  1.023845  0  0  0.08837  0  1.022622  0  0  0.112228  0.084763  0  1.024828  0
H  H21  1  0.02684502  0.50616240  0.36012081  1  0  0.079314  0  0.955638  0  0  0.086278  0  1.023841  0  0  0.088334  0  1.022612  0  0  0.112196  0.084724  0  1.024824  0
H  H22  1  0.47315461  0.00616230  0.86012070  1  0  0.079349  0  0.955691  0  0  0.08631  0  1.023879  0  0  0.088366  0  1.022651  0  0  0.112223  0.084757  0  1.02486  0
H  H23  1  0.97315312  0.49383832  0.63987935  1  0  0.079342  0  0.955669  0  0  0.086292  0  1.023869  0  0  0.088355  0  1.022634  0  0  0.112217  0.084737  0  1.02485  0
H  H24  1  0.35953354  0.07904103  0.06837653  1  0  0.11103  0  0.97734  0  0  0.115721  0  1.047007  0  0  0.119683  0  1.04474  0  0  0.105137  0.112952  0  1.048627  0
H  H25  1  0.85953351  0.42095992  0.43162355  1  0  0.111055  0  0.977298  0  0  0.115738  0  1.04697  0  0  0.119704  0  1.04469  0  0  0.105137  0.112969  0  1.048592  0
H  H26  1  0.64046656  0.92095969  0.93162316  1  0  0.111041  0  0.97731  0  0  0.115729  0  1.046976  0  0  0.119691  0  1.044708  0  0  0.105132  0.112961  0  1.048596  0
H  H27  1  0.14046659  0.57904080  0.56837662  1  0  0.111049  0  0.977331  0  0  0.115735  0  1.047001  0  0  0.119697  0  1.044732  0  0  0.105144  0.112966  0  1.048622  0
H  H28  1  0.79456957  0.85484173  0.99092616  1  0  0.109562  0  0.984268  0  0  0.113353  0  1.0563  0  0  0.11712  0  1.054398  0  0  0.10471  0.110677  0  1.057757  0
H  H29  1  0.29456849  0.64515817  0.50907388  1  0  0.109543  0  0.984314  0  0  0.113375  0  1.056295  0  0  0.117141  0  1.054394  0  0  0.104714  0.110699  0  1.057751  0
H  H30  1  0.20543054  0.14515899  0.00907400  1  0  0.109563  0  0.98426  0  0  0.113355  0  1.056287  0  0  0.11712  0  1.054388  0  0  0.104712  0.110681  0  1.05774  0
H  H31  1  0.70543162  0.35484185  0.49092612  1  0  0.109563  0  0.9843  0  0  0.113389  0  1.056278  0  0  0.117156  0  1.054375  0  0  0.104719  0.110713  0  1.057736  0
H  H32  1  0.98333275  0.78097018  0.06640486  1  0  0.086444  0  0.935156  0  0  0.096442  0  0.997358  0  0  0.098858  0  0.994697  0  0  0.1181  0.094638  0  0.999399  0
H  H33  1  0.48333129  0.71903024  0.43359562  1  0  0.086461  0  0.935143  0  0  0.09646  0  0.997348  0  0  0.098875  0  0.994688  0  0  0.118111  0.094654  0  0.999393  0
H  H34  1  0.01666931  0.21903054  0.93359530  1  0  0.086475  0  0.935096  0  0  0.096471  0  0.997297  0  0  0.098887  0  0.994638  0  0  0.118112  0.094667  0  0.99934  0
H  H35  1  0.51666685  0.28096979  0.56640486  1  0  0.086442  0  0.935134  0  0  0.096439  0  0.997338  0  0  0.098855  0  0.994678  0  0  0.118102  0.094637  0  0.999376  0
C  C36  1  0.16011390  0.64272681  0.15738879  1  0  0.651015  0  3.903217  0  0  0.598572  0  4.196239  0  0  0.633318  0  4.190202  0  0  0.206752  0.574902  0  4.199407  0
C  C37  1  0.66011403  0.85727339  0.34261130  1  0  0.651009  0  3.903134  0  0  0.598571  0  4.196184  0  0  0.633316  0  4.190149  0  0  0.206748  0.574901  0  4.19935  0
C  C38  1  0.83988620  0.35727321  0.84261122  1  0  0.650992  0  3.903108  0  0  0.598556  0  4.196136  0  0  0.633302  0  4.190103  0  0  0.206746  0.574886  0  4.1993  0
C  C39  1  0.33988803  0.14272593  0.65738854  1  0  0.651094  0  3.903116  0  0  0.598657  0  4.196146  0  0  0.633402  0  4.190109  0  0  0.206792  0.574986  0  4.199315  0
C  C40  1  0.03576209  0.54792597  0.12927208  1  0  -0.027223  0  3.626139  0  0  -0.014618  0  3.865285  0  0  -0.0158  0  3.882103  0  0  0.015064  -0.014106  0  3.854293  0
C  C41  1  0.53576464  0.95207485  0.37072820  1  0  -0.027239  0  3.626192  0  0  -0.014679  0  3.865431  0  0  -0.015858  0  3.882248  0  0  0.015049  -0.014168  0  3.854441  0
C  C42  1  0.96423802  0.45207544  0.87072825  1  0  -0.027201  0  3.625959  0  0  -0.014632  0  3.865144  0  0  -0.015812  0  3.881962  0  0  0.01504  -0.014119  0  3.85415  0
C  C43  1  0.46423939  0.04792448  0.62927164  1  0  -0.027203  0  3.626296  0  0  -0.014632  0  3.865466  0  0  -0.015812  0  3.882284  0  0  0.015059  -0.014118  0  3.854474  0
C  C44  1  0.87359745  0.53726187  0.07464471  1  0  -0.069997  0  3.687998  0  0  -0.094793  0  3.945208  0  0  -0.098638  0  3.963143  0  0  -0.073572  -0.092463  0  3.933454  0
C  C45  1  0.37360164  0.96273846  0.42535155  1  0  -0.069938  0  3.688023  0  0  -0.094781  0  3.945294  0  0  -0.098627  0  3.963227  0  0  -0.07355  -0.09245  0  3.93354  0
C  C46  1  0.12640266  0.46273815  0.92535482  1  0  -0.069976  0  3.687938  0  0  -0.094781  0  3.945172  0  0  -0.098627  0  3.963108  0  0  -0.073567  -0.092453  0  3.933419  0
C  C47  1  0.62640043  0.03726086  0.57464688  1  0  -0.070093  0  3.688213  0  0  -0.094873  0  3.945408  0  0  -0.098718  0  3.963343  0  0  -0.073618  -0.092545  0  3.933654  0
C  C48  1  0.72083282  0.45706945  0.04798996  1  0  0.001479  0  3.684917  0  0  -0.030187  0  3.9451  0  0  -0.023734  0  3.959889  0  0  -0.055959  -0.034345  0  3.935113  0
C  C49  1  0.22083198  0.04292931  0.45201013  1  0  0.00144  0  3.684908  0  0  -0.030168  0  3.945062  0  0  -0.02371  0  3.959847  0  0  -0.056037  -0.034326  0  3.935074  0
C  C50  1  0.27916925  0.54292987  0.95200988  1  0  0.001485  0  3.684913  0  0  -0.030158  0  3.945067  0  0  -0.023704  0  3.959854  0  0  -0.055973  -0.034322  0  3.935089  0
C  C51  1  0.77916812  0.95706932  0.54798954  1  0  0.001494  0  3.685  0  0  -0.030171  0  3.94515  0  0  -0.023721  0  3.95994  0  0  -0.055982  -0.034331  0  3.935167  0
C  C52  1  0.72960356  0.38644095  0.07569999  1  0  -0.137059  0  3.818528  0  0  -0.126778  0  4.065909  0  0  -0.139273  0  4.089802  0  0  -0.020662  -0.118656  0  4.049897  0
C  C53  1  0.22960143  0.11355712  0.42429994  1  0  -0.137033  0  3.818627  0  0  -0.126804  0  4.065987  0  0  -0.139302  0  4.08988  0  0  -0.020649  -0.118681  0  4.049977  0
C  C54  1  0.27039851  0.61355907  0.92430001  1  0  -0.137077  0  3.818563  0  0  -0.126802  0  4.065928  0  0  -0.139298  0  4.08982  0  0  -0.020656  -0.118681  0  4.049915  0
C  C55  1  0.77039476  0.88644081  0.57570004  1  0  -0.137107  0  3.818513  0  0  -0.126843  0  4.065898  0  0  -0.139335  0  4.089789  0  0  -0.020667  -0.118723  0  4.049887  0
C  C56  1  0.90493266  0.39194612  0.12857837  1  0  0.073159  0  3.756636  0  0  0.070145  0  3.990576  0  0  0.074926  0  4.014339  0  0  0.010811  0.067121  0  3.97457  0
C  C57  1  0.40493085  0.10805277  0.37142168  1  0  0.073143  0  3.756695  0  0  0.070193  0  3.990567  0  0  0.074974  0  4.014329  0  0  0.01082  0.067168  0  3.974561  0
C  C58  1  0.09506745  0.60805390  0.87142163  1  0  0.073127  0  3.756786  0  0  0.070135  0  3.990701  0  0  0.074916  0  4.014462  0  0  0.010782  0.067111  0  3.974691  0
C  C59  1  0.59506729  0.89194586  0.62857847  1  0  0.073203  0  3.756655  0  0  0.070197  0  3.990581  0  0  0.074975  0  4.014342  0  0  0.010806  0.067171  0  3.974575  0
C  C60  1  0.06094965  0.47440669  0.15710773  1  0  0.029849  0  3.69497  0  0  0.030929  0  3.928762  0  0  0.029182  0  3.950089  0  0  0.007646  0.03185  0  3.914707  0
C  C61  1  0.56095142  0.02559475  0.34289070  1  0  0.02983  0  3.694966  0  0  0.030917  0  3.928746  0  0  0.029167  0  3.950073  0  0  0.007683  0.03184  0  3.91469  0
C  C62  1  0.93905045  0.52559612  0.84289104  1  0  0.029758  0  3.695052  0  0  0.03087  0  3.9288  0  0  0.02912  0  3.950129  0  0  0.007682  0.031793  0  3.914741  0
C  C63  1  0.43904869  0.97440456  0.65710772  1  0  0.029886  0  3.694921  0  0  0.030984  0  3.928697  0  0  0.029236  0  3.950023  0  0  0.007717  0.031905  0  3.914643  0
C  C64  1  0.22388867  0.47752499  0.21235680  1  0  -0.040536  0  3.649434  0  0  -0.029922  0  3.896132  0  0  -0.029934  0  3.912372  0  0  0.007748  -0.03021  0  3.885513  0
C  C65  1  0.72388687  0.02247586  0.28764332  1  0  -0.040565  0  3.649544  0  0  -0.029976  0  3.896246  0  0  -0.029988  0  3.912485  0  0  0.007687  -0.030263  0  3.885625  0
C  C66  1  0.77611143  0.52247503  0.78764320  1  0  -0.040549  0  3.649498  0  0  -0.029952  0  3.896194  0  0  -0.029965  0  3.912435  0  0  0.007726  -0.030239  0  3.88557  0
C  C67  1  0.27611128  0.97752486  0.71235732  1  0  -0.040561  0  3.649507  0  0  -0.029969  0  3.896206  0  0  -0.029982  0  3.912444  0  0  0.007736  -0.030258  0  3.885586  0
C  C68  1  0.24075216  0.40105036  0.23463549  1  0  -0.100602  0  3.723221  0  0  -0.127699  0  3.987657  0  0  -0.132927  0  4.006305  0  0  -0.088906  -0.124316  0  3.975306  0
C  C69  1  0.74075299  0.09894982  0.26536493  1  0  -0.100546  0  3.723236  0  0  -0.127635  0  3.987663  0  0  -0.132862  0  4.006312  0  0  -0.088886  -0.124252  0  3.975309  0
C  C70  1  0.75924991  0.59894967  0.76536451  1  0  -0.100485  0  3.723146  0  0  -0.127584  0  3.987589  0  0  -0.13281  0  4.006239  0  0  -0.088885  -0.124202  0  3.975231  0
C  C71  1  0.25924908  0.90105091  0.73463618  1  0  -0.100552  0  3.723149  0  0  -0.127665  0  3.987616  0  0  -0.132889  0  4.006261  0  0  -0.088896  -0.124284  0  3.975259  0
C  C72  1  0.09275928  0.32045072  0.20537030  1  0  -0.009231  0  3.707515  0  0  -0.040949  0  3.967084  0  0  -0.035276  0  3.983148  0  0  -0.067216  -0.044532  0  3.956129  0
C  C73  1  0.59275851  0.17954865  0.29462952  1  0  -0.00926  0  3.70744  0  0  -0.040979  0  3.967018  0  0  -0.035307  0  3.98308  0  0  -0.067216  -0.044561  0  3.956062  0
C  C74  1  0.90723886  0.67954930  0.79462970  1  0  -0.009304  0  3.707382  0  0  -0.041011  0  3.966967  0  0  -0.035339  0  3.983029  0  0  -0.067241  -0.044592  0  3.956006  0
C  C75  1  0.40723963  0.82045067  0.70537079  1  0  -0.009175  0  3.707399  0  0  -0.040886  0  3.966978  0  0  -0.035215  0  3.983041  0  0  -0.067221  -0.044468  0  3.956017  0
C  C76  1  0.92188632  0.31619324  0.15345276  1  0  -0.145408  0  3.822148  0  0  -0.135245  0  4.070122  0  0  -0.147443  0  4.094107  0  0  -0.025998  -0.127353  0  4.054071  0
C  C77  1  0.42188324  0.18380566  0.34654682  1  0  -0.145385  0  3.8221  0  0  -0.135264  0  4.070079  0  0  -0.14746  0  4.09406  0  0  -0.026  -0.127372  0  4.05403  0
C  C78  1  0.07811379  0.68380679  0.84654771  1  0  -0.145326  0  3.821997  0  0  -0.135206  0  4.070004  0  0  -0.147403  0  4.093986  0  0  -0.025969  -0.127317  0  4.05395  0
C  C79  1  0.57811491  0.81619297  0.65345286  1  0  -0.145475  0  3.822182  0  0  -0.135316  0  4.070154  0  0  -0.14751  0  4.094137  0  0  -0.025999  -0.127424  0  4.0541  0
C  C80  1  0.38141128  0.56100129  0.25311897  1  0  0.662752  0  3.929256  0  0  0.608304  0  4.229189  0  0  0.6437  0  4.221024  0  0  0.208948  0.584128  0  4.233785  0
C  C81  1  0.88141066  0.93899906  0.24688153  1  0  0.662674  0  3.92935  0  0  0.60827  0  4.229218  0  0  0.643668  0  4.221049  0  0  0.208955  0.584093  0  4.233811  0
C  C82  1  0.61859078  0.43899943  0.74688119  1  0  0.662764  0  3.929285  0  0  0.608335  0  4.229184  0  0  0.643733  0  4.221017  0  0  0.208991  0.584157  0  4.233777  0
C  C83  1  0.11858945  0.06100096  0.75311847  1  0  0.662693  0  3.929394  0  0  0.608304  0  4.229235  0  0  0.643701  0  4.221065  0  0  0.20898  0.584128  0  4.23383  0
C  C84  1  0.75876461  0.23328069  0.12516181  1  0  0.595487  0  3.794678  0  0  0.548163  0  4.092096  0  0  0.581621  0  4.084205  0  0  0.235879  0.525357  0  4.097265  0
C  C85  1  0.25876191  0.26671670  0.37483889  1  0  0.595392  0  3.794704  0  0  0.548112  0  4.092114  0  0  0.581575  0  4.084217  0  0  0.23584  0.525305  0  4.097284  0
C  C86  1  0.24123549  0.76671863  0.87483850  1  0  0.595551  0  3.794555  0  0  0.548251  0  4.091957  0  0  0.581712  0  4.084059  0  0  0.235886  0.525446  0  4.097123  0
C  C87  1  0.74123623  0.73328054  0.62516281  1  0  0.595559  0  3.794866  0  0  0.548231  0  4.092285  0  0  0.581689  0  4.084395  0  0  0.235901  0.525422  0  4.097454  0
C  C88  1  0.54754975  0.30836890  0.05118026  1  0  0.599486  0  3.778185  0  0  0.549229  0  4.079577  0  0  0.582345  0  4.072283  0  0  0.239088  0.526687  0  4.084291  0
C  C89  1  0.04755584  0.19162904  0.44881782  1  0  0.599422  0  3.778037  0  0  0.549239  0  4.079365  0  0  0.582361  0  4.072068  0  0  0.239121  0.526694  0  4.08408  0
C  C90  1  0.45245232  0.69163182  0.94881990  1  0  0.599523  0  3.778236  0  0  0.54927  0  4.079622  0  0  0.582388  0  4.072327  0  0  0.239099  0.526728  0  4.084335  0
C  C91  1  0.95245995  0.80836678  0.55117790  1  0  0.599534  0  3.778405  0  0  0.549298  0  4.079767  0  0  0.582415  0  4.072471  0  0  0.239115  0.526756  0  4.084483  0
C  C92  1  0.36333190  0.96563110  0.10621889  1  0  0.132227  0  3.710041  0  0  0.104941  0  3.956751  0  0  0.111923  0  3.976497  0  0  0.044509  0.100461  0  3.943158  0
C  C93  1  0.86333143  0.53437064  0.39378100  1  0  0.132235  0  3.709987  0  0  0.104917  0  3.956694  0  0  0.111897  0  3.976438  0  0  0.044505  0.100438  0  3.943107  0
C  C94  1  0.63666820  0.03436962  0.89378033  1  0  0.132236  0  3.709958  0  0  0.104937  0  3.956645  0  0  0.111917  0  3.976387  0  0  0.044513  0.100457  0  3.943053  0
C  C95  1  0.13666672  0.46563008  0.60621916  1  0  0.132215  0  3.710011  0  0  0.104929  0  3.956696  0  0  0.111902  0  3.976438  0  0  0.044496  0.100451  0  3.943101  0
C  C96  1  0.26703324  0.01316467  0.06523998  1  0  -0.147157  0  3.676181  0  0  -0.164778  0  3.920923  0  0  -0.172788  0  3.941922  0  0  -0.079748  -0.159455  0  3.906636  0
C  C97  1  0.76703364  0.48683621  0.43475965  1  0  -0.147239  0  3.675991  0  0  -0.164851  0  3.920728  0  0  -0.172857  0  3.941723  0  0  -0.079769  -0.159523  0  3.906432  0
C  C98  1  0.73296687  0.98683604  0.93475924  1  0  -0.147239  0  3.676011  0  0  -0.16486  0  3.920761  0  0  -0.172871  0  3.941758  0  0  -0.079789  -0.159535  0  3.906468  0
C  C99  1  0.23296647  0.51316451  0.56524051  1  0  -0.147193  0  3.676025  0  0  -0.164795  0  3.920788  0  0  -0.172806  0  3.94179  0  0  -0.07979  -0.15947  0  3.906492  0
C  C100  1  0.05610167  0.97579191  0.02201050  1  0  0.102197  0  3.726406  0  0  0.11436  0  3.953278  0  0  0.118464  0  3.974914  0  0  0.015478  0.111819  0  3.938389  0
C  C101  1  0.55610056  0.52420893  0.47798977  1  0  0.102281  0  3.726329  0  0  0.11447  0  3.953187  0  0  0.118574  0  3.974824  0  0  0.01551  0.11193  0  3.9383  0
C  C102  1  0.94390040  0.02420881  0.97798919  1  0  0.102274  0  3.726294  0  0  0.114438  0  3.953154  0  0  0.118542  0  3.974788  0  0  0.015509  0.111896  0  3.938265  0
C  C103  1  0.44389955  0.47579179  0.52201040  1  0  0.102266  0  3.726295  0  0  0.114365  0  3.953226  0  0  0.118468  0  3.974864  0  0  0.015544  0.111822  0  3.938338  0
C  C104  1  0.95657308  0.88985645  0.02262918  1  0  -0.154566  0  3.684506  0  0  -0.175432  0  3.938035  0  0  -0.183727  0  3.959152  0  0  -0.08475  -0.169914  0  3.923681  0
C  C105  1  0.45657254  0.61014395  0.47737083  1  0  -0.154593  0  3.684599  0  0  -0.17549  0  3.93811  0  0  -0.183788  0  3.959229  0  0  -0.084771  -0.169973  0  3.923759  0
C  C106  1  0.04342899  0.11014426  0.97737004  1  0  -0.1546  0  3.684527  0  0  -0.17546  0  3.938054  0  0  -0.183757  0  3.959173  0  0  -0.084774  -0.169943  0  3.923703  0
C  C107  1  0.54342757  0.38985607  0.52262964  1  0  -0.154662  0  3.684604  0  0  -0.175524  0  3.938123  0  0  -0.183821  0  3.959243  0  0  -0.084796  -0.170008  0  3.923772  0
C  C108  1  0.06309990  0.84694771  0.06526885  1  0  0.145275  0  3.711335  0  0  0.111712  0  3.969872  0  0  0.119924  0  3.987154  0  0  0.044637  0.106285  0  3.958044  0
C  C109  1  0.56309996  0.65305313  0.43473141  1  0  0.145244  0  3.71137  0  0  0.111665  0  3.969934  0  0  0.119879  0  3.987215  0  0  0.044626  0.106239  0  3.958107  0
C  C110  1  0.93690217  0.15305300  0.93473084  1  0  0.145233  0  3.711323  0  0  0.111662  0  3.969872  0  0  0.119875  0  3.987153  0  0  0.044628  0.106236  0  3.958044  0
C  C111  1  0.43690014  0.34694759  0.56526875  1  0  0.145338  0  3.711302  0  0  0.111758  0  3.96986  0  0  0.119972  0  3.987139  0  0  0.04463  0.106332  0  3.958032  0
N  N112  1  0.26298971  0.88396078  0.10697716  1  0  -0.349854  0  3.254222  0  0  -0.271964  0  3.517477  0  0  -0.292682  0  3.535477  0  0  -0.328253  -0.257753  0  3.504859  0
N  N113  1  0.76298981  0.61604019  0.39302306  1  0  -0.349767  0  3.25422  0  0  -0.271876  0  3.517488  0  0  -0.292596  0  3.535489  0  0  -0.328221  -0.257667  0  3.504873  0
N  N114  1  0.73701235  0.11603994  0.89302301  1  0  -0.349781  0  3.254163  0  0  -0.271899  0  3.517428  0  0  -0.292617  0  3.535428  0  0  -0.328227  -0.257689  0  3.50481  0
N  N115  1  0.23701030  0.38395983  0.60697694  1  0  -0.349823  0  3.254141  0  0  -0.271946  0  3.517413  0  0  -0.292666  0  3.535415  0  0  -0.32823  -0.257736  0  3.504793  0
O  O116  1  0.32049492  0.66839926  0.12107767  1  0  -0.607619  0  1.925737  0  0  -0.544363  0  2.16163  0  0  -0.575915  0  2.154037  0  0  -0.309015  -0.521781  0  2.165826  0
O  O117  1  0.82049659  0.83160105  0.37892237  1  0  -0.607631  0  1.925711  0  0  -0.544369  0  2.161603  0  0  -0.575924  0  2.154014  0  0  -0.309011  -0.521788  0  2.165798  0
O  O118  1  0.67950519  0.33160146  0.87892296  1  0  -0.607622  0  1.925692  0  0  -0.544367  0  2.16158  0  0  -0.575921  0  2.153992  0  0  -0.309019  -0.521786  0  2.165776  0
O  O119  1  0.17950744  0.16839827  0.62107652  1  0  -0.607652  0  1.925722  0  0  -0.544406  0  2.161629  0  0  -0.575955  0  2.154031  0  0  -0.309019  -0.521825  0  2.165825  0
O  O120  1  0.08504420  0.69744340  0.21411877  1  0  -0.641434  0  2.042573  0  0  -0.566935  0  2.295824  0  0  -0.599276  0  2.284263  0  0  -0.311017  -0.544007  0  2.302876  0
O  O121  1  0.58504434  0.80255605  0.28588070  1  0  -0.641402  0  2.042501  0  0  -0.566906  0  2.295763  0  0  -0.599242  0  2.284197  0  0  -0.311005  -0.543978  0  2.302812  0
O  O122  1  0.91495394  0.30255592  0.78588107  1  0  -0.6414  0  2.042529  0  0  -0.566903  0  2.295781  0  0  -0.599227  0  2.28419  0  0  -0.310999  -0.543976  0  2.302831  0
O  O123  1  0.41495577  0.19744327  0.71411867  1  0  -0.64146  0  2.042506  0  0  -0.566971  0  2.295777  0  0  -0.59932  0  2.284237  0  0  -0.311042  -0.544043  0  2.30283  0
O  O124  1  0.61352910  0.56645635  0.23370667  1  0  -0.613004  0  2.030304  0  0  -0.547686  0  2.282091  0  0  -0.58033  0  2.275897  0  0  -0.303171  -0.524358  0  2.28529  0
O  O125  1  0.11352827  0.93354452  0.26629311  1  0  -0.612936  0  2.030347  0  0  -0.547625  0  2.282111  0  0  -0.58027  0  2.275918  0  0  -0.303144  -0.524296  0  2.285309  0
O  O126  1  0.38647101  0.43354436  0.76629302  1  0  -0.612993  0  2.030265  0  0  -0.547684  0  2.282042  0  0  -0.58033  0  2.275849  0  0  -0.30317  -0.524354  0  2.285238  0
O  O127  1  0.88647183  0.06645550  0.73370642  1  0  -0.612955  0  2.030362  0  0  -0.54764  0  2.2821  0  0  -0.580291  0  2.275917  0  0  -0.303161  -0.524301  0  2.285271  0
O  O128  1  0.27976568  0.61505811  0.30645588  1  0  -0.646508  0  2.03096  0  0  -0.584155  0  2.288234  0  0  -0.615836  0  2.278515  0  0  -0.317908  -0.561321  0  2.293844  0
O  O129  1  0.77976504  0.88494148  0.19354401  1  0  -0.64649  0  2.030999  0  0  -0.584145  0  2.288242  0  0  -0.615826  0  2.278522  0  0  -0.317923  -0.561311  0  2.293852  0
O  O130  1  0.72023638  0.38494191  0.69354459  1  0  -0.646517  0  2.031031  0  0  -0.584165  0  2.288281  0  0  -0.615847  0  2.278562  0  0  -0.317947  -0.561332  0  2.293891  0
O  O131  1  0.22023506  0.11505785  0.80645536  1  0  -0.646515  0  2.031048  0  0  -0.584183  0  2.288289  0  0  -0.615863  0  2.278568  0  0  -0.317949  -0.56135  0  2.293899  0
O  O132  1  0.76449276  0.16268794  0.14062558  1  0  -0.489819  0  1.950469  0  0  -0.451593  0  2.168096  0  0  -0.470451  0  2.162291  0  0  -0.257732  -0.438845  0  2.171935  0
O  O133  1  0.26449653  0.33731295  0.35937499  1  0  -0.489856  0  1.950422  0  0  -0.451609  0  2.167995  0  0  -0.470479  0  2.162202  0  0  -0.257723  -0.438864  0  2.171836  0
O  O134  1  0.23550538  0.83731348  0.85937474  1  0  -0.489866  0  1.950363  0  0  -0.451635  0  2.167966  0  0  -0.470506  0  2.162176  0  0  -0.257723  -0.438887  0  2.171803  0
O  O135  1  0.73550749  0.66268778  0.64062659  1  0  -0.489884  0  1.950504  0  0  -0.451658  0  2.168134  0  0  -0.470519  0  2.162334  0  0  -0.257748  -0.438909  0  2.171974  0
O  O136  1  0.57433117  0.23494799  0.07699883  1  0  -0.384033  0  2.258688  0  0  -0.317132  0  2.494903  0  0  -0.33882  0  2.487581  0  0  -0.139801  -0.302237  0  2.499607  0
O  O137  1  0.07433009  0.26505138  0.42300099  1  0  -0.383802  0  2.258693  0  0  -0.317003  0  2.494935  0  0  -0.338698  0  2.487618  0  0  -0.139737  -0.3021  0  2.499631  0
O  O138  1  0.42566894  0.76505204  0.92300117  1  0  -0.384036  0  2.258734  0  0  -0.317135  0  2.494933  0  0  -0.338824  0  2.487611  0  0  -0.139785  -0.302239  0  2.499635  0
O  O139  1  0.92566609  0.73494795  0.57699932  1  0  -0.384047  0  2.258863  0  0  -0.317137  0  2.495055  0  0  -0.338833  0  2.487741  0  0  -0.139802  -0.30224  0  2.499759  0
O  O140  1  0.37046403  0.30153358  0.01138318  1  0  -0.471178  0  1.936286  0  0  -0.432524  0  2.152516  0  0  -0.450731  0  2.146498  0  0  -0.249704  -0.420317  0  2.156579  0
O  O141  1  0.87045424  0.19846459  0.48861813  1  0  -0.471256  0  1.935985  0  0  -0.43259  0  2.152157  0  0  -0.450795  0  2.146128  0  0  -0.249773  -0.420384  0  2.156222  0
O  O142  1  0.62953412  0.69846644  0.98861729  1  0  -0.471212  0  1.936269  0  0  -0.432578  0  2.152516  0  0  -0.450786  0  2.146497  0  0  -0.249745  -0.420372  0  2.156579  0
O  O143  1  0.12952626  0.80153335  0.51138516  1  0  -0.471144  0  1.936543  0  0  -0.432525  0  2.152797  0  0  -0.450725  0  2.14677  0  0  -0.249713  -0.42032  0  2.156861  0
