# generated using pymatgen
data_CdH21C16N7O5
_symmetry_space_group_name_H-M   'P 1'
_cell_length_a   8.85868384
_cell_length_b   9.58432071
_cell_length_c   12.65499723
_cell_angle_alpha   103.52134982
_cell_angle_beta   89.99999820
_cell_angle_gamma   90.00001747
_symmetry_Int_Tables_number   1
_chemical_formula_structural   CdH21C16N7O5
_chemical_formula_sum   'Cd2 H42 C32 N14 O10'
_cell_volume   1044.68468058
_cell_formula_units_Z   2
loop_
 _symmetry_equiv_pos_site_id
 _symmetry_equiv_pos_as_xyz
  1  'x, y, z'
loop_
 _atom_site_type_symbol
 _atom_site_label
 _atom_site_symmetry_multiplicity
 _atom_site_fract_x
 _atom_site_fract_y
 _atom_site_fract_z
 _atom_site_occupancy
 _atom_site_hle17_bader_spin_density
 _atom_site_hle17_ddec_charge
 _atom_site_hle17_ddec_spin_density
 _atom_site_hle17_ddec_sum_bond_order
 _atom_site_hle17_magmom
 _atom_site_hse06_10hf_bader_spin_density
 _atom_site_hse06_10hf_ddec_charge
 _atom_site_hse06_10hf_ddec_spin_density
 _atom_site_hse06_10hf_ddec_sum_bond_order
 _atom_site_hse06_10hf_magmom
 _atom_site_hse06_bader_spin_density
 _atom_site_hse06_ddec_charge
 _atom_site_hse06_ddec_spin_density
 _atom_site_hse06_ddec_sum_bond_order
 _atom_site_hse06_magmom
 _atom_site_pbe_bader_spin_density
 _atom_site_pbe_cm5_charge
 _atom_site_pbe_ddec_charge
 _atom_site_pbe_ddec_spin_density
 _atom_site_pbe_ddec_sum_bond_order
 _atom_site_pbe_magmom
Cd  Cd0  1  0.26177596  0.35154358  0.21421265  1  0  1.063785  0  1.767804  0  0  0.856996  0  2.218821  0  0  0.912423  0  2.171787  0  0  0.771104  0.817356  0  2.249895  0
Cd  Cd1  1  0.76177465  0.64845791  0.78578648  1  0  1.063784  0  1.767779  0  0  0.857004  0  2.218799  0  0  0.912432  0  2.171762  0  0  0.771105  0.817366  0  2.249875  0
H  H2  1  0.01026239  0.94721748  0.43995402  1  0  0.298535  0  0.942529  0  0  0.278731  0  1.009787  0  0  0.286397  0  1.004705  0  0  0.299817  0.272146  0  1.014884  0
H  H3  1  0.51026316  0.05278287  0.56004491  1  0  0.298538  0  0.942486  0  0  0.278751  0  1.009704  0  0  0.286417  0  1.004618  0  0  0.299819  0.272165  0  1.014803  0
H  H4  1  0.47413145  0.51164650  0.62352449  1  0  0.301818  0  0.941292  0  0  0.281871  0  1.002586  0  0  0.290282  0  0.996449  0  0  0.307315  0.275942  0  1.00694  0
H  H5  1  0.97413124  0.48835290  0.37647664  1  0  0.301827  0  0.941216  0  0  0.281881  0  1.002503  0  0  0.290291  0  0.996365  0  0  0.307307  0.275953  0  1.006856  0
H  H6  1  0.86483734  0.41357769  0.19395853  1  0  0.30928  0  0.938925  0  0  0.288104  0  1.001193  0  0  0.29706  0  0.994238  0  0  0.306946  0.282225  0  1.005381  0
H  H7  1  0.36483870  0.58642060  0.80604161  1  0  0.309279  0  0.938929  0  0  0.287994  0  1.001348  0  0  0.296952  0  0.994404  0  0  0.306918  0.282118  0  1.005525  0
H  H8  1  0.96601370  0.05646041  0.85648149  1  0  0.320263  0  0.929668  0  0  0.300107  0  0.991052  0  0  0.309649  0  0.983122  0  0  0.305794  0.293139  0  0.997126  0
H  H9  1  0.46601520  0.94353792  0.14351786  1  0  0.320257  0  0.929739  0  0  0.300113  0  0.991119  0  0  0.309655  0  0.983189  0  0  0.30581  0.293144  0  0.997192  0
H  H10  1  0.93056951  0.75051623  0.33008787  1  0  0.103788  0  0.941391  0  0  0.11725  0  1.004582  0  0  0.119948  0  1.002969  0  0  0.101008  0.115004  0  1.0063  0
H  H11  1  0.43056963  0.24948423  0.66991265  1  0  0.103787  0  0.941406  0  0  0.117222  0  1.004646  0  0  0.119922  0  1.003033  0  0  0.100981  0.114974  0  1.006364  0
H  H12  1  0.87690803  0.70828558  0.19346693  1  0  0.103485  0  0.928651  0  0  0.118733  0  0.989832  0  0  0.120308  0  0.990672  0  0  0.100665  0.117446  0  0.989482  0
H  H13  1  0.37690704  0.29171702  0.80653397  1  0  0.103454  0  0.92869  0  0  0.118715  0  0.989865  0  0  0.120292  0  0.990708  0  0  0.10066  0.117428  0  0.989513  0
H  H14  1  0.95366552  0.95729829  0.23443800  1  0  0.075379  0  0.927401  0  0  0.092621  0  0.986681  0  0  0.09439  0  0.985622  0  0  0.09465  0.091906  0  0.986506  0
H  H15  1  0.45366671  0.04270325  0.76556193  1  0  0.075344  0  0.927509  0  0  0.092612  0  0.98675  0  0  0.094383  0  0.985689  0  0  0.094633  0.091897  0  0.986574  0
H  H16  1  0.09280738  0.85660601  0.14860429  1  0  0.076395  0  0.951666  0  0  0.094579  0  1.014488  0  0  0.095439  0  1.014901  0  0  0.097078  0.09387  0  1.014466  0
H  H17  1  0.59280703  0.14339542  0.85139484  1  0  0.076406  0  0.951675  0  0  0.094585  0  1.014494  0  0  0.095446  0  1.014906  0  0  0.09708  0.093876  0  1.014471  0
H  H18  1  0.26524270  0.86900802  0.30080336  1  0  0.062076  0  0.935184  0  0  0.071281  0  1.000055  0  0  0.072758  0  0.998697  0  0  0.108901  0.070261  0  1.00103  0
H  H19  1  0.76524122  0.13099453  0.69919675  1  0  0.062141  0  0.935164  0  0  0.071386  0  0.999988  0  0  0.072866  0  0.998629  0  0  0.108931  0.070367  0  1.000962  0
H  H20  1  0.22259739  0.02087838  0.66813124  1  0  0.135487  0  0.935489  0  0  0.156402  0  0.991465  0  0  0.1591  0  0.990165  0  0  0.099582  0.154865  0  0.991791  0
H  H21  1  0.72259734  0.97912095  0.33186829  1  0  0.135503  0  0.935446  0  0  0.156412  0  0.991429  0  0  0.159108  0  0.990128  0  0  0.099592  0.154875  0  0.991752  0
H  H22  1  0.03242806  0.01007233  0.61887574  1  0  0.150249  0  0.966142  0  0  0.163437  0  1.030594  0  0  0.167383  0  1.02792  0  0  0.098337  0.160398  0  1.032809  0
H  H23  1  0.53242688  0.98992801  0.38112477  1  0  0.150244  0  0.966133  0  0  0.163427  0  1.030592  0  0  0.167374  0  1.027917  0  0  0.09833  0.160387  0  1.032809  0
H  H24  1  0.12970664  0.17823516  0.65266387  1  0  0.12692  0  0.950193  0  0  0.143141  0  1.018119  0  0  0.14535  0  1.018017  0  0  0.095985  0.141561  0  1.018304  0
H  H25  1  0.62970654  0.82176307  0.34733784  1  0  0.126917  0  0.950193  0  0  0.143128  0  1.018128  0  0  0.145332  0  1.018032  0  0  0.095975  0.141548  0  1.018313  0
H  H26  1  0.34475561  0.69832763  0.36519678  1  0  0.094601  0  0.988453  0  0  0.103365  0  1.052753  0  0  0.105672  0  1.052118  0  0  0.107382  0.101507  0  1.053663  0
H  H27  1  0.84475419  0.30167388  0.63480314  1  0  0.09458  0  0.988508  0  0  0.103359  0  1.05279  0  0  0.105665  0  1.052156  0  0  0.107391  0.101501  0  1.0537  0
H  H28  1  0.47746156  0.75139270  0.57297635  1  0  0.121463  0  0.98976  0  0  0.125241  0  1.05736  0  0  0.129514  0  1.054151  0  0  0.114597  0.122182  0  1.05978  0
H  H29  1  0.97746126  0.24860563  0.42702380  1  0  0.121453  0  0.989802  0  0  0.125227  0  1.057397  0  0  0.129499  0  1.054189  0  0  0.114607  0.122167  0  1.059817  0
H  H30  1  0.36055247  0.31216593  0.47015283  1  0  0.096247  0  0.968581  0  0  0.101728  0  1.037438  0  0  0.104663  0  1.033919  0  0  0.12732  0.099003  0  1.041073  0
H  H31  1  0.86055570  0.68783558  0.52984788  1  0  0.096256  0  0.968597  0  0  0.101694  0  1.037491  0  0  0.104627  0  1.033972  0  0  0.127326  0.098978  0  1.041125  0
H  H32  1  0.62459399  0.47636682  0.30696475  1  0  0.085129  0  0.948931  0  0  0.092901  0  1.014989  0  0  0.094974  0  1.013166  0  0  0.130955  0.091238  0  1.016391  0
H  H33  1  0.12459307  0.52363140  0.69303301  1  0  0.085114  0  0.94892  0  0  0.092882  0  1.014987  0  0  0.094955  0  1.013162  0  0  0.130975  0.091219  0  1.016389  0
H  H34  1  0.80477873  0.25083131  0.00564199  1  0  0.104537  0  0.994364  0  0  0.111  0  1.061329  0  0  0.113408  0  1.060893  0  0  0.116834  0.109742  0  1.060937  0
H  H35  1  0.30477901  0.74916482  0.99435856  1  0  0.104467  0  0.994371  0  0  0.111006  0  1.061251  0  0  0.113418  0  1.060806  0  0  0.116819  0.109749  0  1.060861  0
H  H36  1  0.49040246  0.21780768  0.00543844  1  0  0.096683  0  0.968121  0  0  0.106122  0  1.030056  0  0  0.108124  0  1.029778  0  0  0.113027  0.104867  0  1.030125  0
H  H37  1  0.99040231  0.78219066  0.99456091  1  0  0.096669  0  0.968106  0  0  0.10611  0  1.030042  0  0  0.108112  0  1.029762  0  0  0.113016  0.104855  0  1.03011  0
H  H38  1  0.15298892  0.46709310  0.99345267  1  0  0.101253  0  0.987284  0  0  0.109069  0  1.051709  0  0  0.111068  0  1.052221  0  0  0.109741  0.106831  0  1.052747  0
H  H39  1  0.65298987  0.53290513  0.00654667  1  0  0.101262  0  0.987275  0  0  0.109082  0  1.051696  0  0  0.11108  0  1.052208  0  0  0.109741  0.106843  0  1.052735  0
H  H40  1  0.97312992  0.30964240  0.82686371  1  0  0.115963  0  0.968268  0  0  0.124297  0  1.032757  0  0  0.12729  0  1.030946  0  0  0.120756  0.122203  0  1.034013  0
H  H41  1  0.47313134  0.69035700  0.17313583  1  0  0.115952  0  0.968305  0  0  0.124282  0  1.032798  0  0  0.127274  0  1.030987  0  0  0.120749  0.122187  0  1.034053  0
H  H42  1  0.13111881  0.03863400  0.02336677  1  0  0.08126  0  0.96109  0  0  0.089279  0  1.030036  0  0  0.091174  0  1.028092  0  0  0.127841  0.087482  0  1.03224  0
H  H43  1  0.63111759  0.96136315  0.97663317  1  0  0.081284  0  0.961122  0  0  0.089299  0  1.03006  0  0  0.091194  0  1.028115  0  0  0.127844  0.087494  0  1.032274  0
C  C44  1  0.08143319  0.60922153  0.22425223  1  0  0.696132  0  3.82688  0  0  0.64697  0  4.126351  0  0  0.679356  0  4.120399  0  0  0.205777  0.62489  0  4.129599  0
C  C45  1  0.58143292  0.39077991  0.77574768  1  0  0.696119  0  3.826911  0  0  0.646936  0  4.126416  0  0  0.679326  0  4.120463  0  0  0.205773  0.624854  0  4.129664  0
C  C46  1  0.97571504  0.73746498  0.24722899  1  0  -0.264787  0  3.679974  0  0  -0.301868  0  3.933886  0  0  -0.307342  0  3.941821  0  0  -0.168326  -0.298037  0  3.928476  0
C  C47  1  0.47571404  0.26253549  0.75277153  1  0  -0.264735  0  3.68004  0  0  -0.301835  0  3.933984  0  0  -0.307322  0  3.941938  0  0  -0.168306  -0.297997  0  3.928565  0
C  C48  1  0.04354950  0.87678036  0.23034134  1  0  -0.118538  0  3.679464  0  0  -0.165434  0  3.939157  0  0  -0.165308  0  3.950495  0  0  -0.159504  -0.165289  0  3.930324  0
C  C49  1  0.54354915  0.12322106  0.76965936  1  0  -0.118562  0  3.679576  0  0  -0.165442  0  3.939279  0  0  -0.165314  0  3.950624  0  0  -0.159503  -0.1653  0  3.930446  0
C  C50  1  0.16984028  0.94400767  0.30921111  1  0  0.04637  0  3.631508  0  0  0.022821  0  3.880745  0  0  0.023651  0  3.892325  0  0  0.00869  0.022484  0  3.872089  0
C  C51  1  0.66983991  0.05599593  0.69078918  1  0  0.04641  0  3.631495  0  0  0.022756  0  3.880827  0  0  0.02358  0  3.892411  0  0  0.008743  0.022419  0  3.872168  0
C  C52  1  0.22485395  0.07614190  0.27057066  1  0  0.633048  0  3.894504  0  0  0.58088  0  4.206418  0  0  0.613435  0  4.200038  0  0  0.199398  0.558829  0  4.209796  0
C  C53  1  0.72485274  0.92385957  0.72943163  1  0  0.632993  0  3.894501  0  0  0.580878  0  4.206363  0  0  0.61343  0  4.199987  0  0  0.199425  0.558828  0  4.209737  0
C  C54  1  0.20617735  0.04134382  0.50455283  1  0  0.638028  0  3.791409  0  0  0.599957  0  4.079492  0  0  0.629014  0  4.078819  0  0  0.241225  0.579637  0  4.080575  0
C  C55  1  0.70617277  0.95865765  0.49544788  1  0  0.638043  0  3.791546  0  0  0.599961  0  4.079613  0  0  0.629014  0  4.078945  0  0  0.241257  0.579643  0  4.080695  0
C  C56  1  0.14183484  0.06262879  0.61738578  1  0  -0.449983  0  3.666863  0  0  -0.527086  0  3.90282  0  0  -0.533682  0  3.904855  0  0  -0.245209  -0.522433  0  3.90119  0
C  C57  1  0.64183477  0.93737052  0.38261454  1  0  -0.450003  0  3.666862  0  0  -0.527087  0  3.902826  0  0  -0.533678  0  3.904867  0  0  -0.245216  -0.522433  0  3.901194  0
C  C58  1  0.36739101  0.62672680  0.41802934  1  0  -0.039951  0  3.794108  0  0  -0.070617  0  4.057823  0  0  -0.070949  0  4.081295  0  0  -0.024602  -0.069954  0  4.042089  0
C  C59  1  0.86739075  0.37327364  0.58197118  1  0  -0.039989  0  3.794194  0  0  -0.070675  0  4.057918  0  0  -0.071007  0  4.081391  0  0  -0.024628  -0.070011  0  4.042183  0
C  C60  1  0.43069613  0.65553016  0.52008650  1  0  -0.020968  0  3.6997  0  0  -0.05568  0  3.956841  0  0  -0.054297  0  3.975537  0  0  -0.009479  -0.056573  0  3.944861  0
C  C61  1  0.93069586  0.34446922  0.47991384  1  0  -0.020908  0  3.699783  0  0  -0.055615  0  3.956912  0  0  -0.054233  0  3.975607  0  0  -0.009457  -0.056507  0  3.944929  0
C  C62  1  0.37255653  0.42454164  0.46846864  1  0  0.197121  0  3.681874  0  0  0.141831  0  3.946451  0  0  0.155358  0  3.959228  0  0  0.129943  0.133104  0  3.938056  0
C  C63  1  0.87255860  0.57545880  0.53153188  1  0  0.197143  0  3.681835  0  0  0.141888  0  3.946422  0  0  0.155415  0  3.959198  0  0  0.129964  0.133149  0  3.938037  0
C  C64  1  0.62883275  0.40967905  0.22496449  1  0  0.207355  0  3.693624  0  0  0.149469  0  3.961235  0  0  0.162979  0  3.974948  0  0  0.136764  0.140765  0  3.951164  0
C  C65  1  0.12883186  0.59031810  0.77503466  1  0  0.207383  0  3.69356  0  0  0.149497  0  3.961169  0  0  0.163019  0  3.974882  0  0  0.136698  0.140793  0  3.9511  0
C  C66  1  0.72068498  0.28955546  0.06756610  1  0  -0.016998  0  3.703647  0  0  -0.052624  0  3.964082  0  0  -0.050448  0  3.982307  0  0  -0.003434  -0.054195  0  3.952447  0
C  C67  1  0.22068074  0.71044279  0.93243167  1  0  -0.016919  0  3.703735  0  0  -0.052611  0  3.964126  0  0  -0.050428  0  3.982353  0  0  -0.0034  -0.054185  0  3.952492  0
C  C68  1  0.56609204  0.27535673  0.06788457  1  0  -0.018202  0  3.770467  0  0  -0.050515  0  4.034279  0  0  -0.049538  0  4.055627  0  0  -0.011343  -0.051705  0  4.021147  0
C  C69  1  0.06609231  0.72464148  0.93211398  1  0  -0.018157  0  3.770455  0  0  -0.050475  0  4.034284  0  0  -0.049498  0  4.05563  0  0  -0.011321  -0.051665  0  4.021152  0
C  C70  1  0.12384123  0.35406695  0.97369764  1  0  -0.018965  0  3.756362  0  0  -0.052166  0  4.020316  0  0  -0.050609  0  4.041262  0  0  -0.016839  -0.052899  0  4.006168  0
C  C71  1  0.62384109  0.64593235  0.02630269  1  0  -0.019019  0  3.756305  0  0  -0.052214  0  4.020266  0  0  -0.050657  0  4.041212  0  0  -0.016855  -0.052949  0  4.006122  0
C  C72  1  0.03726628  0.27694096  0.88986406  1  0  -0.024858  0  3.704163  0  0  -0.061273  0  3.967119  0  0  -0.059936  0  3.985687  0  0  -0.004809  -0.062265  0  3.954598  0
C  C73  1  0.53726955  0.72306046  0.11013822  1  0  -0.024823  0  3.704096  0  0  -0.061218  0  3.967055  0  0  -0.059881  0  3.985624  0  0  -0.004794  -0.062209  0  3.954531  0
C  C74  1  0.11469424  0.13441525  0.99317204  1  0  0.20167  0  3.701325  0  0  0.144209  0  3.966364  0  0  0.157992  0  3.979958  0  0  0.131969  0.135232  0  3.957156  0
C  C75  1  0.61469417  0.86558512  0.00682768  1  0  0.201577  0  3.701334  0  0  0.144149  0  3.966383  0  0  0.157933  0  3.979977  0  0  0.131931  0.13518  0  3.957178  0
N  N76  1  0.11696448  0.97746432  0.42129653  1  0  -0.444792  0  3.285472  0  0  -0.389654  0  3.526912  0  0  -0.411696  0  3.536802  0  0  -0.413915  -0.37369  0  3.520384  0
N  N77  1  0.61696636  0.02253605  0.57870478  1  0  -0.444768  0  3.285687  0  0  -0.389587  0  3.527092  0  0  -0.411617  0  3.536974  0  0  -0.413902  -0.373626  0  3.520566  0
N  N78  1  0.33145337  0.48244506  0.38677222  1  0  -0.400713  0  3.267818  0  0  -0.32619  0  3.547342  0  0  -0.346952  0  3.566658  0  0  -0.365744  -0.311455  0  3.533024  0
N  N79  1  0.83145429  0.51755430  0.61322811  1  0  -0.400636  0  3.267786  0  0  -0.326113  0  3.547303  0  0  -0.346875  0  3.566619  0  0  -0.365716  -0.311379  0  3.532988  0
N  N80  1  0.43299329  0.52642828  0.55014880  1  0  -0.278757  0  3.466561  0  0  -0.210654  0  3.700512  0  0  -0.226374  0  3.715408  0  0  -0.384049  -0.200061  0  3.690293  0
N  N81  1  0.93299420  0.47357111  0.44985153  1  0  -0.278854  0  3.466561  0  0  -0.210732  0  3.700488  0  0  -0.226449  0  3.715378  0  0  -0.384099  -0.20014  0  3.690272  0
N  N82  1  0.51032982  0.35085119  0.16629974  1  0  -0.391321  0  3.284833  0  0  -0.311026  0  3.564055  0  0  -0.332335  0  3.582253  0  0  -0.362497  -0.296409  0  3.550879  0
N  N83  1  0.01032894  0.64915022  0.83369938  1  0  -0.391361  0  3.284773  0  0  -0.311069  0  3.564005  0  0  -0.332377  0  3.582197  0  0  -0.36251  -0.296453  0  3.550831  0
N  N84  1  0.75795351  0.37457916  0.16770041  1  0  -0.281799  0  3.45394  0  0  -0.21408  0  3.689139  0  0  -0.229965  0  3.703249  0  0  -0.379256  -0.203193  0  3.678812  0
N  N85  1  0.25795263  0.62541911  0.83229973  1  0  -0.28181  0  3.453965  0  0  -0.214008  0  3.689232  0  0  -0.229921  0  3.703375  0  0  -0.379198  -0.203123  0  3.678902  0
N  N86  1  0.17156277  0.26386214  0.03788165  1  0  -0.397602  0  3.236073  0  0  -0.320177  0  3.516508  0  0  -0.340554  0  3.532727  0  0  -0.36113  -0.305861  0  3.503319  0
N  N87  1  0.67156262  0.73613717  0.96211947  1  0  -0.397563  0  3.235962  0  0  -0.320169  0  3.516421  0  0  -0.340545  0  3.532639  0  0  -0.361109  -0.305853  0  3.50323  0
N  N88  1  0.03320471  0.13819774  0.90316713  1  0  -0.29428  0  3.454419  0  0  -0.222284  0  3.683317  0  0  -0.238928  0  3.697882  0  0  -0.379056  -0.211541  0  3.674248  0
N  N89  1  0.53320463  0.86180368  0.09683278  1  0  -0.294204  0  3.454366  0  0  -0.222263  0  3.68331  0  0  -0.238911  0  3.697877  0  0  -0.379049  -0.21152  0  3.674238  0
O  O90  1  0.02891972  0.49205116  0.24563651  1  0  -0.682112  0  2.05592  0  0  -0.608956  0  2.289252  0  0  -0.6371  0  2.279516  0  0  -0.334105  -0.589035  0  2.2949  0
O  O91  1  0.52892063  0.50795026  0.75436419  1  0  -0.682129  0  2.05597  0  0  -0.608917  0  2.28932  0  0  -0.637055  0  2.279579  0  0  -0.334113  -0.588997  0  2.294966  0
O  O92  1  0.21149088  0.61629338  0.18692530  1  0  -0.615999  0  1.924585  0  0  -0.560884  0  2.158873  0  0  -0.585649  0  2.151424  0  0  -0.313845  -0.543882  0  2.163731  0
O  O93  1  0.71149061  0.38370702  0.81307522  1  0  -0.615978  0  1.924552  0  0  -0.560871  0  2.158873  0  0  -0.585636  0  2.151425  0  0  -0.313838  -0.543868  0  2.163731  0
O  O94  1  0.33686382  0.06316455  0.20670635  1  0  -0.645704  0  1.959488  0  0  -0.595479  0  2.191338  0  0  -0.620268  0  2.182163  0  0  -0.334239  -0.57776  0  2.196852  0
O  O95  1  0.83686486  0.93683696  0.79329357  1  0  -0.645674  0  1.959513  0  0  -0.595459  0  2.191338  0  0  -0.62025  0  2.182164  0  0  -0.334264  -0.57774  0  2.19685  0
O  O96  1  0.14614363  0.18995517  0.29859995  1  0  -0.624872  0  2.000899  0  0  -0.558364  0  2.24763  0  0  -0.586421  0  2.238209  0  0  -0.329819  -0.538655  0  2.253344  0
O  O97  1  0.64614125  0.81004842  0.70140193  1  0  -0.624926  0  2.000937  0  0  -0.558431  0  2.247656  0  0  -0.586487  0  2.238236  0  0  -0.32986  -0.538721  0  2.25337  0
O  O98  1  0.33763368  0.08247874  0.48934635  1  0  -0.61314  0  1.960852  0  0  -0.557402  0  2.176402  0  0  -0.579829  0  2.169285  0  0  -0.308216  -0.541233  0  2.182862  0
O  O99  1  0.83763586  0.91751741  0.51065341  1  0  -0.613148  0  1.96071  0  0  -0.55743  0  2.176281  0  0  -0.579849  0  2.169165  0  0  -0.30825  -0.541269  0  2.182751  0
