# generated using pymatgen
data_TlH4C6SNO5
_symmetry_space_group_name_H-M   'P 1'
_cell_length_a   7.74011009
_cell_length_b   8.24401596
_cell_length_c   14.59631788
_cell_angle_alpha   90.00017622
_cell_angle_beta   106.37719649
_cell_angle_gamma   89.99970814
_symmetry_Int_Tables_number   1
_chemical_formula_structural   TlH4C6SNO5
_chemical_formula_sum   'Tl4 H16 C24 S4 N4 O20'
_cell_volume   893.59530903
_cell_formula_units_Z   4
loop_
 _symmetry_equiv_pos_site_id
 _symmetry_equiv_pos_as_xyz
  1  'x, y, z'
loop_
 _atom_site_type_symbol
 _atom_site_label
 _atom_site_symmetry_multiplicity
 _atom_site_fract_x
 _atom_site_fract_y
 _atom_site_fract_z
 _atom_site_occupancy
 _atom_site_hle17_bader_spin_density
 _atom_site_hle17_ddec_charge
 _atom_site_hle17_ddec_spin_density
 _atom_site_hle17_ddec_sum_bond_order
 _atom_site_hle17_magmom
 _atom_site_hse06_10hf_bader_spin_density
 _atom_site_hse06_10hf_ddec_charge
 _atom_site_hse06_10hf_ddec_spin_density
 _atom_site_hse06_10hf_ddec_sum_bond_order
 _atom_site_hse06_10hf_magmom
 _atom_site_hse06_bader_spin_density
 _atom_site_hse06_ddec_charge
 _atom_site_hse06_ddec_spin_density
 _atom_site_hse06_ddec_sum_bond_order
 _atom_site_hse06_magmom
 _atom_site_pbe_bader_spin_density
 _atom_site_pbe_cm5_charge
 _atom_site_pbe_ddec_charge
 _atom_site_pbe_ddec_spin_density
 _atom_site_pbe_ddec_sum_bond_order
 _atom_site_pbe_magmom
Tl  Tl0  1  0.90641730  0.35617664  0.58585879  1  0  0.909582  0  0.760223  0  0  0.819536  0  1.04094  0  0  0.848066  0  1.015245  0  0  0.446497  0.79807  0  1.059447  0
Tl  Tl1  1  0.59357760  0.85618564  0.41413668  1  0  0.909599  0  0.760231  0  0  0.819522  0  1.04101  0  0  0.848085  0  1.015249  0  0  0.446476  0.798055  0  1.059519  0
Tl  Tl2  1  0.09358226  0.64381948  0.41414110  1  0  0.909591  0  0.760207  0  0  0.819543  0  1.040943  0  0  0.848087  0  1.015225  0  0  0.446476  0.798073  0  1.059448  0
Tl  Tl3  1  0.40642171  0.14381534  0.58586043  1  0  0.909592  0  0.760215  0  0  0.819508  0  1.041  0  0  0.848079  0  1.015227  0  0  0.446472  0.798038  0  1.059508  0
H  H4  1  0.61476425  0.60860783  0.20626569  1  0  0.111551  0  0.952741  0  0  0.116702  0  1.021193  0  0  0.121087  0  1.016912  0  0  0.110525  0.113533  0  1.024329  0
H  H5  1  0.88523730  0.10859408  0.79373093  1  0  0.111537  0  0.952738  0  0  0.116567  0  1.021331  0  0  0.12095  0  1.01705  0  0  0.11049  0.113408  0  1.024451  0
H  H6  1  0.38523000  0.39139436  0.79373422  1  0  0.111593  0  0.952721  0  0  0.116657  0  1.021286  0  0  0.121041  0  1.017006  0  0  0.110501  0.113493  0  1.024411  0
H  H7  1  0.11476457  0.89140568  0.20626513  1  0  0.111497  0  0.95285  0  0  0.116572  0  1.021382  0  0  0.120956  0  1.017101  0  0  0.110472  0.113412  0  1.024502  0
H  H8  1  0.55243333  0.11256356  0.28550584  1  0  0.098693  0  1.001158  0  0  0.103534  0  1.075848  0  0  0.106747  0  1.073443  0  0  0.10968  0.101173  0  1.077715  0
H  H9  1  0.94756987  0.61255075  0.71449443  1  0  0.098837  0  1.001142  0  0  0.103672  0  1.075829  0  0  0.106906  0  1.073394  0  0  0.109712  0.101311  0  1.077702  0
H  H10  1  0.44756944  0.88743863  0.71449994  1  0  0.098618  0  1.001267  0  0  0.103475  0  1.075954  0  0  0.106693  0  1.073542  0  0  0.10963  0.101115  0  1.077823  0
H  H11  1  0.05243482  0.38744901  0.28550336  1  0  0.098736  0  1.001206  0  0  0.103563  0  1.075911  0  0  0.10679  0  1.073487  0  0  0.109668  0.101201  0  1.077779  0
H  H12  1  0.67070097  0.51338546  0.05642123  1  0  0.103776  0  0.951991  0  0  0.110854  0  1.015298  0  0  0.11404  0  1.014199  0  0  0.105813  0.108557  0  1.016321  0
H  H13  1  0.82930111  0.01337650  0.94357600  1  0  0.103846  0  0.952135  0  0  0.11092  0  1.015426  0  0  0.11413  0  1.014299  0  0  0.10584  0.108623  0  1.016449  0
H  H14  1  0.32929597  0.48661188  0.94357901  1  0  0.103808  0  0.952077  0  0  0.110852  0  1.015416  0  0  0.11406  0  1.014295  0  0  0.105836  0.108556  0  1.016436  0
H  H15  1  0.17069679  0.98662448  0.05642025  1  0  0.103838  0  0.952113  0  0  0.11091  0  1.015419  0  0  0.114091  0  1.014326  0  0  0.10586  0.108613  0  1.016442  0
H  H16  1  0.67622515  0.21834103  0.02144537  1  0  0.120932  0  0.944658  0  0  0.124434  0  1.014564  0  0  0.128719  0  1.010334  0  0  0.113139  0.12137  0  1.017637  0
H  H17  1  0.82376921  0.71833158  0.97855120  1  0  0.120909  0  0.944655  0  0  0.124527  0  1.014425  0  0  0.128821  0  1.01018  0  0  0.113165  0.121462  0  1.017495  0
H  H18  1  0.32377326  0.78165509  0.97855643  1  0  0.120868  0  0.944722  0  0  0.124404  0  1.014608  0  0  0.128679  0  1.010371  0  0  0.113152  0.121339  0  1.017676  0
H  H19  1  0.17622876  0.28166818  0.02144575  1  0  0.120911  0  0.944677  0  0  0.124493  0  1.014508  0  0  0.128775  0  1.010274  0  0  0.113164  0.121429  0  1.017581  0
C  C20  1  0.58420623  0.36477543  0.25627126  1  0  -0.102035  0  3.699883  0  0  -0.071138  0  3.941815  0  0  -0.079961  0  3.963904  0  0  -0.012569  -0.065664  0  3.927269  0
C  C21  1  0.91579677  0.86476537  0.74372593  1  0  -0.101926  0  3.699761  0  0  -0.071177  0  3.941925  0  0  -0.080007  0  3.964022  0  0  -0.012631  -0.065703  0  3.927389  0
C  C22  1  0.41578949  0.63522676  0.74373020  1  0  -0.102029  0  3.699959  0  0  -0.071053  0  3.941803  0  0  -0.079869  0  3.963881  0  0  -0.012616  -0.065582  0  3.927267  0
C  C23  1  0.08420511  0.13523196  0.25627013  1  0  -0.101994  0  3.700014  0  0  -0.07121  0  3.942107  0  0  -0.080036  0  3.964201  0  0  -0.012625  -0.065737  0  3.927566  0
C  C24  1  0.61527762  0.47888945  0.19161274  1  0  -0.018403  0  3.66157  0  0  -0.052646  0  3.917966  0  0  -0.049429  0  3.935189  0  0  -0.065092  -0.054325  0  3.906238  0
C  C25  1  0.88471919  0.97887265  0.80838110  1  0  -0.018274  0  3.66132  0  0  -0.052388  0  3.917811  0  0  -0.049174  0  3.935049  0  0  -0.065034  -0.05407  0  3.906086  0
C  C26  1  0.38471804  0.52111152  0.80838803  1  0  -0.018472  0  3.661706  0  0  -0.052666  0  3.918067  0  0  -0.049455  0  3.9353  0  0  -0.065075  -0.054344  0  3.906347  0
C  C27  1  0.11528134  0.02112469  0.19161480  1  0  -0.018299  0  3.661548  0  0  -0.052463  0  3.918014  0  0  -0.049245  0  3.935233  0  0  -0.065032  -0.054147  0  3.906295  0
C  C28  1  0.57977467  0.20023543  0.23611966  1  0  -0.07567  0  3.729909  0  0  -0.112772  0  3.981612  0  0  -0.109477  0  3.999854  0  0  -0.069809  -0.114424  0  3.968592  0
C  C29  1  0.92022650  0.70021819  0.76387774  1  0  -0.076086  0  3.729568  0  0  -0.113177  0  3.981396  0  0  -0.109888  0  3.999604  0  0  -0.069882  -0.114832  0  3.968388  0
C  C30  1  0.42022521  0.79976312  0.76388369  1  0  -0.075713  0  3.729964  0  0  -0.112897  0  3.981698  0  0  -0.109609  0  3.999926  0  0  -0.069804  -0.11455  0  3.968686  0
C  C31  1  0.07977832  0.29978036  0.23612144  1  0  -0.075946  0  3.729559  0  0  -0.112988  0  3.981338  0  0  -0.109698  0  3.999556  0  0  -0.069826  -0.114642  0  3.968324  0
C  C32  1  0.64655102  0.42548676  0.10701667  1  0  -0.050854  0  3.711364  0  0  -0.063066  0  3.96953  0  0  -0.068607  0  3.991625  0  0  -0.079945  -0.059521  0  3.954647  0
C  C33  1  0.85343868  0.92547787  0.89298374  1  0  -0.051069  0  3.711341  0  0  -0.063271  0  3.969483  0  0  -0.068832  0  3.991568  0  0  -0.080029  -0.059725  0  3.954603  0
C  C34  1  0.35344477  0.57451058  0.89298549  1  0  -0.050864  0  3.711387  0  0  -0.06304  0  3.969522  0  0  -0.068603  0  3.991613  0  0  -0.079974  -0.059495  0  3.954639  0
C  C35  1  0.14656204  0.07452431  0.10701423  1  0  -0.050942  0  3.711211  0  0  -0.063153  0  3.969333  0  0  -0.06869  0  3.991428  0  0  -0.079988  -0.059608  0  3.954456  0
C  C36  1  0.61392470  0.15023277  0.15173312  1  0  0.073182  0  3.710974  0  0  0.058664  0  3.962704  0  0  0.058913  0  3.989493  0  0  0.07786  0.061836  0  3.946997  0
C  C37  1  0.88607076  0.65022225  0.84827171  1  0  0.073623  0  3.710776  0  0  0.059141  0  3.962501  0  0  0.059426  0  3.989295  0  0  0.077984  0.062308  0  3.946794  0
C  C38  1  0.38607269  0.84976578  0.84827198  1  0  0.073328  0  3.710796  0  0  0.058924  0  3.962541  0  0  0.059203  0  3.989319  0  0  0.077979  0.062095  0  3.946833  0
C  C39  1  0.11393266  0.34977872  0.15172660  1  0  0.073529  0  3.710733  0  0  0.058977  0  3.962581  0  0  0.059272  0  3.989379  0  0  0.077928  0.062146  0  3.946873  0
C  C40  1  0.64888372  0.26030264  0.08661956  1  0  -0.07623  0  3.685335  0  0  -0.106753  0  3.948722  0  0  -0.103923  0  3.96584  0  0  -0.071299  -0.108  0  3.936237  0
C  C41  1  0.85111428  0.76028539  0.91337547  1  0  -0.076353  0  3.685624  0  0  -0.106962  0  3.948951  0  0  -0.104144  0  3.966087  0  0  -0.07131  -0.108198  0  3.936454  0
C  C42  1  0.35111085  0.73969955  0.91338381  1  0  -0.076191  0  3.685323  0  0  -0.106764  0  3.948727  0  0  -0.10392  0  3.965833  0  0  -0.071319  -0.108003  0  3.936229  0
C  C43  1  0.14888503  0.23971558  0.08662165  1  0  -0.076325  0  3.685618  0  0  -0.106879  0  3.948994  0  0  -0.104047  0  3.966112  0  0  -0.071303  -0.108121  0  3.936504  0
S  S44  1  0.55308212  0.43119613  0.36697228  1  0  1.320741  0  5.655069  0  0  1.228345  0  6.159334  0  0  1.278267  0  6.136116  0  0  0.515221  1.193823  0  6.174055  0
S  S45  1  0.94692484  0.93117557  0.63302825  1  0  1.320814  0  5.655345  0  0  1.228487  0  6.159614  0  0  1.278412  0  6.136394  0  0  0.515367  1.193962  0  6.174334  0
S  S46  1  0.44692045  0.56880606  0.63303141  1  0  1.320621  0  5.655287  0  0  1.228211  0  6.159544  0  0  1.278132  0  6.136331  0  0  0.515229  1.19369  0  6.174263  0
S  S47  1  0.05307857  0.06881934  0.36697007  1  0  1.320743  0  5.655125  0  0  1.2284  0  6.159398  0  0  1.278324  0  6.136178  0  0  0.515268  1.193876  0  6.174119  0
N  N48  1  0.61301001  0.97617847  0.13227615  1  0  0.481236  0  3.928717  0  0  0.543025  0  4.177911  0  0  0.545502  0  4.216685  0  0  0.060999  0.527894  0  4.173515  0
N  N49  1  0.88699738  0.47616030  0.86771695  1  0  0.481253  0  3.928266  0  0  0.543021  0  4.177502  0  0  0.545397  0  4.216411  0  0  0.061089  0.527893  0  4.173102  0
N  N50  1  0.38698731  0.02382250  0.86772826  1  0  0.481466  0  3.928176  0  0  0.543033  0  4.17768  0  0  0.545435  0  4.216552  0  0  0.061016  0.527902  0  4.173281  0
N  N51  1  0.11300334  0.52383825  0.13228102  1  0  0.481458  0  3.927859  0  0  0.543151  0  4.177252  0  0  0.545494  0  4.216193  0  0  0.06114  0.528021  0  4.172857  0
O  O52  1  0.53671423  0.28493630  0.42089161  1  0  -0.685067  0  1.95106  0  0  -0.632442  0  2.203948  0  0  -0.655736  0  2.191884  0  0  -0.325583  -0.61583  0  2.211711  0
O  O53  1  0.96330177  0.78492747  0.57911258  1  0  -0.685142  0  1.951401  0  0  -0.632499  0  2.204237  0  0  -0.655792  0  2.192167  0  0  -0.325636  -0.615882  0  2.212007  0
O  O54  1  0.46328424  0.71506347  0.57911089  1  0  -0.685052  0  1.951101  0  0  -0.63244  0  2.204015  0  0  -0.655736  0  2.191954  0  0  -0.325612  -0.615827  0  2.211779  0
O  O55  1  0.03671100  0.21506986  0.42088622  1  0  -0.685097  0  1.951314  0  0  -0.632466  0  2.204186  0  0  -0.655759  0  2.19212  0  0  -0.325595  -0.615852  0  2.211952  0
O  O56  1  0.39253150  0.53570497  0.34115618  1  0  -0.719242  0  1.994207  0  0  -0.663034  0  2.249421  0  0  -0.689248  0  2.23997  0  0  -0.337178  -0.644112  0  2.255062  0
O  O57  1  0.10747185  0.03569422  0.65884717  1  0  -0.719284  0  1.994266  0  0  -0.663087  0  2.249459  0  0  -0.689292  0  2.239987  0  0  -0.337218  -0.644177  0  2.255143  0
O  O58  1  0.60746967  0.46430086  0.65884666  1  0  -0.719191  0  1.994362  0  0  -0.662968  0  2.249544  0  0  -0.689178  0  2.240088  0  0  -0.33716  -0.644047  0  2.255187  0
O  O59  1  0.89252894  0.96430433  0.34115150  1  0  -0.719296  0  1.99423  0  0  -0.663086  0  2.249405  0  0  -0.68929  0  2.239931  0  0  -0.337226  -0.644183  0  2.255099  0
O  O60  1  0.71808057  0.52640188  0.41252230  1  0  -0.772153  0  2.042588  0  0  -0.701962  0  2.299952  0  0  -0.729956  0  2.290272  0  0  -0.333723  -0.68176  0  2.30591  0
O  O61  1  0.78192658  0.02638380  0.58747284  1  0  -0.772195  0  2.042611  0  0  -0.701966  0  2.299884  0  0  -0.729967  0  2.290207  0  0  -0.333754  -0.68176  0  2.305843  0
O  O62  1  0.28192310  0.47359909  0.58747879  1  0  -0.772098  0  2.042598  0  0  -0.701908  0  2.299986  0  0  -0.729907  0  2.290309  0  0  -0.333695  -0.681705  0  2.305941  0
O  O63  1  0.21807677  0.97361233  0.41252478  1  0  -0.772122  0  2.0425  0  0  -0.7019  0  2.2998  0  0  -0.729902  0  2.290121  0  0  -0.333691  -0.681695  0  2.305758  0
O  O64  1  0.68302496  0.92823547  0.07033201  1  0  -0.355455  0  1.773384  0  0  -0.346743  0  1.97218  0  0  -0.353725  0  1.979899  0  0  -0.125184  -0.337362  0  1.973785  0
O  O65  1  0.81696895  0.42822770  0.92967099  1  0  -0.355654  0  1.773003  0  0  -0.346933  0  1.971817  0  0  -0.353887  0  1.97958  0  0  -0.12534  -0.337558  0  1.973422  0
O  O66  1  0.31696570  0.07176187  0.92967224  1  0  -0.355617  0  1.773288  0  0  -0.34682  0  1.97218  0  0  -0.353757  0  1.979904  0  0  -0.125236  -0.337437  0  1.973783  0
O  O67  1  0.18302357  0.57177449  0.07032459  1  0  -0.355717  0  1.77274  0  0  -0.346974  0  1.971616  0  0  -0.353912  0  1.979382  0  0  -0.125347  -0.337603  0  1.973223  0
O  O68  1  0.54105342  0.88432185  0.17845669  1  0  -0.364584  0  1.780028  0  0  -0.354532  0  1.97766  0  0  -0.3613  0  1.984124  0  0  -0.119351  -0.345256  0  1.980191  0
O  O69  1  0.95894442  0.38430184  0.82154331  1  0  -0.364445  0  1.779994  0  0  -0.354397  0  1.977655  0  0  -0.361134  0  1.984189  0  0  -0.119273  -0.345107  0  1.980139  0
O  O70  1  0.45895473  0.11568034  0.82154976  1  0  -0.364645  0  1.779779  0  0  -0.354515  0  1.977499  0  0  -0.361261  0  1.983994  0  0  -0.119336  -0.345242  0  1.980032  0
O  O71  1  0.04105495  0.61569671  0.17845450  1  0  -0.364575  0  1.779933  0  0  -0.354492  0  1.977639  0  0  -0.361228  0  1.984197  0  0  -0.119347  -0.345199  0  1.98012  0
