# generated using pymatgen
data_KH6C6SNO6
_symmetry_space_group_name_H-M   'P 1'
_cell_length_a   7.14147419
_cell_length_b   10.73365936
_cell_length_c   12.60618867
_cell_angle_alpha   106.53599428
_cell_angle_beta   90.00014201
_cell_angle_gamma   89.99989027
_symmetry_Int_Tables_number   1
_chemical_formula_structural   KH6C6SNO6
_chemical_formula_sum   'K4 H24 C24 S4 N4 O24'
_cell_volume   926.35091940
_cell_formula_units_Z   4
loop_
 _symmetry_equiv_pos_site_id
 _symmetry_equiv_pos_as_xyz
  1  'x, y, z'
loop_
 _atom_site_type_symbol
 _atom_site_label
 _atom_site_symmetry_multiplicity
 _atom_site_fract_x
 _atom_site_fract_y
 _atom_site_fract_z
 _atom_site_occupancy
 _atom_site_hle17_bader_spin_density
 _atom_site_hle17_ddec_charge
 _atom_site_hle17_ddec_spin_density
 _atom_site_hle17_ddec_sum_bond_order
 _atom_site_hle17_magmom
 _atom_site_hse06_10hf_bader_spin_density
 _atom_site_hse06_10hf_ddec_charge
 _atom_site_hse06_10hf_ddec_spin_density
 _atom_site_hse06_10hf_ddec_sum_bond_order
 _atom_site_hse06_10hf_magmom
 _atom_site_hse06_bader_spin_density
 _atom_site_hse06_ddec_charge
 _atom_site_hse06_ddec_spin_density
 _atom_site_hse06_ddec_sum_bond_order
 _atom_site_hse06_magmom
 _atom_site_pbe_bader_spin_density
 _atom_site_pbe_cm5_charge
 _atom_site_pbe_ddec_charge
 _atom_site_pbe_ddec_spin_density
 _atom_site_pbe_ddec_sum_bond_order
 _atom_site_pbe_magmom
K  K0  1  0.45595323  0.56193067  0.25923622  1  0  0.949125  0  0.460065  0  0  0.913724  0  0.642786  0  0  0.92604  0  0.620642  0  0  0.785962  0.904057  0  0.659151  0
K  K1  1  0.95595518  0.43806773  0.24075968  1  0  0.949133  0  0.460057  0  0  0.913723  0  0.64279  0  0  0.92604  0  0.620645  0  0  0.785959  0.904064  0  0.659148  0
K  K2  1  0.54404973  0.43807583  0.74076738  1  0  0.949141  0  0.460024  0  0  0.913716  0  0.642783  0  0  0.926023  0  0.620649  0  0  0.785954  0.904056  0  0.65914  0
K  K3  1  0.04404778  0.56193294  0.75923934  1  0  0.949129  0  0.460038  0  0  0.913726  0  0.642765  0  0  0.926041  0  0.620623  0  0  0.785956  0.904074  0  0.659119  0
H  H4  1  0.08812737  0.68497587  0.41082800  1  0  0.419108  0  0.884183  0  0  0.390817  0  0.945142  0  0  0.400517  0  0.930898  0  0  0.288582  0.3839  0  0.955306  0
H  H5  1  0.58812621  0.31502284  0.08917223  1  0  0.41895  0  0.884405  0  0  0.390728  0  0.945278  0  0  0.40043  0  0.931033  0  0  0.288525  0.383812  0  0.955441  0
H  H6  1  0.91187139  0.31502382  0.58917158  1  0  0.419111  0  0.884179  0  0  0.390824  0  0.945132  0  0  0.400524  0  0.930888  0  0  0.288581  0.383907  0  0.955296  0
H  H7  1  0.41186975  0.68497491  0.91082688  1  0  0.419126  0  0.884166  0  0  0.390839  0  0.945116  0  0  0.40054  0  0.930873  0  0  0.288595  0.383922  0  0.95528  0
H  H8  1  0.04290392  0.76493971  0.32975001  1  0  0.406129  0  0.892827  0  0  0.375948  0  0.956824  0  0  0.385694  0  0.942305  0  0  0.289346  0.369049  0  0.967127  0
H  H9  1  0.54290475  0.23505807  0.17024914  1  0  0.406155  0  0.892777  0  0  0.375969  0  0.956772  0  0  0.385722  0  0.942245  0  0  0.289366  0.369072  0  0.967073  0
H  H10  1  0.95709484  0.23506095  0.67024981  1  0  0.406165  0  0.892778  0  0  0.37598  0  0.956783  0  0  0.385728  0  0.942262  0  0  0.28936  0.36908  0  0.967086  0
H  H11  1  0.45709401  0.76493871  0.82974974  1  0  0.406174  0  0.892764  0  0  0.375985  0  0.956772  0  0  0.385737  0  0.942245  0  0  0.289364  0.369087  0  0.967074  0
H  H12  1  0.63835448  0.90043360  0.08611114  1  0  0.115387  0  0.95618  0  0  0.119837  0  1.02648  0  0  0.123824  0  1.023851  0  0  0.108144  0.116897  0  1.028617  0
H  H13  1  0.13835455  0.09956507  0.41388836  1  0  0.115372  0  0.956218  0  0  0.119828  0  1.026499  0  0  0.12381  0  1.023882  0  0  0.108129  0.116889  0  1.028633  0
H  H14  1  0.36164848  0.09956706  0.91389026  1  0  0.115326  0  0.956248  0  0  0.119801  0  1.026521  0  0  0.123787  0  1.023892  0  0  0.108138  0.116861  0  1.028657  0
H  H15  1  0.86164701  0.90043462  0.58611202  1  0  0.115367  0  0.956176  0  0  0.119817  0  1.026474  0  0  0.1238  0  1.02385  0  0  0.108131  0.116878  0  1.028609  0
H  H16  1  0.84662508  0.09561496  0.13891560  1  0  0.121054  0  0.951187  0  0  0.126974  0  1.016889  0  0  0.131274  0  1.013569  0  0  0.117357  0.123742  0  1.019458  0
H  H17  1  0.34662399  0.90438256  0.36108312  1  0  0.121038  0  0.951241  0  0  0.127  0  1.016904  0  0  0.131299  0  1.013587  0  0  0.117356  0.123767  0  1.019474  0
H  H18  1  0.15337928  0.90438376  0.86108296  1  0  0.121041  0  0.951228  0  0  0.126993  0  1.016902  0  0  0.131291  0  1.013585  0  0  0.117362  0.123759  0  1.019472  0
H  H19  1  0.65337897  0.09561908  0.63891693  1  0  0.121042  0  0.951265  0  0  0.12701  0  1.016918  0  0  0.131309  0  1.013599  0  0  0.117357  0.123777  0  1.019487  0
H  H20  1  0.32661507  0.84302352  0.11559735  1  0  0.126563  0  0.961583  0  0  0.131165  0  1.028439  0  0  0.135356  0  1.024669  0  0  0.117964  0.127985  0  1.031432  0
H  H21  1  0.82661706  0.15697401  0.38440214  1  0  0.126689  0  0.961481  0  0  0.131219  0  1.028397  0  0  0.135449  0  1.024596  0  0  0.117982  0.128038  0  1.031391  0
H  H22  1  0.67338509  0.15697520  0.88440279  1  0  0.126571  0  0.961579  0  0  0.131173  0  1.02843  0  0  0.135362  0  1.024667  0  0  0.117968  0.127994  0  1.031423  0
H  H23  1  0.17338450  0.84302860  0.61559735  1  0  0.126573  0  0.961597  0  0  0.131181  0  1.028413  0  0  0.135364  0  1.02467  0  0  0.117968  0.128031  0  1.031376  0
H  H24  1  0.11881081  0.64990290  0.06645807  1  0  0.131425  0  0.944432  0  0  0.13787  0  1.005303  0  0  0.142159  0  1.002818  0  0  0.126052  0.134639  0  1.007294  0
H  H25  1  0.61881105  0.35009288  0.43354229  1  0  0.131374  0  0.944521  0  0  0.137831  0  1.005367  0  0  0.14212  0  1.002882  0  0  0.126038  0.134601  0  1.007355  0
H  H26  1  0.88118935  0.35009388  0.93354002  1  0  0.13136  0  0.944537  0  0  0.137835  0  1.005361  0  0  0.142124  0  1.002877  0  0  0.126025  0.134605  0  1.007349  0
H  H27  1  0.38118911  0.64990876  0.56645856  1  0  0.13136  0  0.944534  0  0  0.137821  0  1.005376  0  0  0.14211  0  1.002891  0  0  0.126026  0.134591  0  1.007364  0
C  C28  1  0.86655543  0.76470174  0.07243123  1  0  -0.073819  0  3.667391  0  0  -0.052818  0  3.915608  0  0  -0.056164  0  3.935331  0  0  0.004289  -0.050512  0  3.902336  0
C  C29  1  0.36655657  0.23529576  0.42756910  1  0  -0.073626  0  3.667203  0  0  -0.052683  0  3.915471  0  0  -0.056027  0  3.935179  0  0  0.004303  -0.050416  0  3.902251  0
C  C30  1  0.13344333  0.23529601  0.92756947  1  0  -0.073618  0  3.667188  0  0  -0.052671  0  3.915455  0  0  -0.056018  0  3.935182  0  0  0.004297  -0.050388  0  3.90221  0
C  C31  1  0.63344359  0.76470588  0.57243254  1  0  -0.073601  0  3.66716  0  0  -0.052642  0  3.915399  0  0  -0.055989  0  3.935119  0  0  0.004323  -0.050369  0  3.902166  0
C  C32  1  0.78879964  0.88905038  0.09340225  1  0  -0.072584  0  3.727246  0  0  -0.105181  0  3.99373  0  0  -0.108554  0  4.015985  0  0  -0.089618  -0.102908  0  3.978588  0
C  C33  1  0.28879965  0.11094622  0.40659537  1  0  -0.072611  0  3.727316  0  0  -0.105189  0  3.993809  0  0  -0.108559  0  4.016058  0  0  -0.089585  -0.102905  0  3.978676  0
C  C34  1  0.21120332  0.11094834  0.90659868  1  0  -0.072575  0  3.727226  0  0  -0.105167  0  3.993709  0  0  -0.10854  0  4.015965  0  0  -0.089613  -0.102887  0  3.978573  0
C  C35  1  0.71120191  0.88905445  0.59340524  1  0  -0.072565  0  3.727216  0  0  -0.105144  0  3.99371  0  0  -0.108512  0  4.015959  0  0  -0.089586  -0.10286  0  3.97857  0
C  C36  1  0.90405166  0.99796910  0.12337870  1  0  -0.088357  0  3.703859  0  0  -0.113145  0  3.966232  0  0  -0.113725  0  3.986247  0  0  -0.075218  -0.112204  0  3.95232  0
C  C37  1  0.40405185  0.00202837  0.37662167  1  0  -0.088416  0  3.703967  0  0  -0.113262  0  3.966332  0  0  -0.113842  0  3.986342  0  0  -0.075253  -0.11232  0  3.952417  0
C  C38  1  0.09595130  0.00202962  0.87662302  1  0  -0.088378  0  3.703867  0  0  -0.113214  0  3.966245  0  0  -0.113794  0  3.986259  0  0  -0.075238  -0.112272  0  3.95233  0
C  C39  1  0.59594971  0.99797327  0.62337997  1  0  -0.08849  0  3.70397  0  0  -0.11334  0  3.966358  0  0  -0.113921  0  3.98637  0  0  -0.075264  -0.112398  0  3.952441  0
C  C40  1  0.09676320  0.97867016  0.13000864  1  0  0.067994  0  3.730414  0  0  0.054023  0  3.985676  0  0  0.050472  0  4.010047  0  0  0.076687  0.056156  0  3.969104  0
C  C41  1  0.59676132  0.02132758  0.36999216  1  0  0.068138  0  3.730276  0  0  0.054199  0  3.985456  0  0  0.050645  0  4.009843  0  0  0.076725  0.056333  0  3.968884  0
C  C42  1  0.90323976  0.02132760  0.86999127  1  0  0.068035  0  3.730267  0  0  0.054096  0  3.985493  0  0  0.050544  0  4.009865  0  0  0.076712  0.056231  0  3.968919  0
C  C43  1  0.40324024  0.97867405  0.63000868  1  0  0.06817  0  3.730077  0  0  0.054196  0  3.985313  0  0  0.050641  0  4.00969  0  0  0.076742  0.056327  0  3.968748  0
C  C44  1  0.17623152  0.85519163  0.11003993  1  0  -0.074432  0  3.671116  0  0  -0.099102  0  3.926411  0  0  -0.097937  0  3.942895  0  0  -0.06473  -0.099801  0  3.915619  0
C  C45  1  0.67623357  0.14480410  0.38995812  1  0  -0.074554  0  3.671099  0  0  -0.099163  0  3.926365  0  0  -0.09804  0  3.942822  0  0  -0.064769  -0.099857  0  3.915567  0
C  C46  1  0.82376864  0.14480515  0.88995895  1  0  -0.074425  0  3.671091  0  0  -0.099109  0  3.926365  0  0  -0.097947  0  3.942851  0  0  -0.064744  -0.099808  0  3.915567  0
C  C47  1  0.32376799  0.85519754  0.61004273  1  0  -0.074524  0  3.671079  0  0  -0.09916  0  3.926328  0  0  -0.098  0  3.942811  0  0  -0.064777  -0.099884  0  3.915512  0
C  C48  1  0.05960864  0.74710734  0.08178853  1  0  -0.041137  0  3.657671  0  0  -0.060369  0  3.899551  0  0  -0.06175  0  3.917405  0  0  -0.059903  -0.059507  0  3.887781  0
C  C49  1  0.55960910  0.25288946  0.41821278  1  0  -0.041147  0  3.657699  0  0  -0.06036  0  3.899545  0  0  -0.061736  0  3.917401  0  0  -0.059863  -0.059485  0  3.88778  0
C  C50  1  0.94039152  0.25289041  0.91821058  1  0  -0.041154  0  3.657669  0  0  -0.060372  0  3.899517  0  0  -0.061751  0  3.917368  0  0  -0.059851  -0.059501  0  3.887748  0
C  C51  1  0.44039246  0.74711218  0.58179045  1  0  -0.041099  0  3.657661  0  0  -0.06034  0  3.899521  0  0  -0.061715  0  3.917366  0  0  -0.059855  -0.059468  0  3.887762  0
S  S52  1  0.71849508  0.62449423  0.03158357  1  0  1.318881  0  5.688046  0  0  1.221505  0  6.215516  0  0  1.270549  0  6.189492  0  0  0.508259  1.187542  0  6.23222  0
S  S53  1  0.21849459  0.37550437  0.46841523  1  0  1.318875  0  5.687977  0  0  1.221524  0  6.215432  0  0  1.270566  0  6.189404  0  0  0.508298  1.187574  0  6.232137  0
S  S54  1  0.28150088  0.37550546  0.96841680  1  0  1.31888  0  5.688145  0  0  1.221526  0  6.215596  0  0  1.270568  0  6.189575  0  0  0.508303  1.187571  0  6.232303  0
S  S55  1  0.78149997  0.62449629  0.53158221  1  0  1.318817  0  5.688016  0  0  1.221456  0  6.215478  0  0  1.270499  0  6.189451  0  0  0.508303  1.187504  0  6.232181  0
N  N56  1  0.21945210  0.09135372  0.15532424  1  0  0.467821  0  3.960807  0  0  0.515535  0  4.231602  0  0  0.535162  0  4.243146  0  0  0.055333  0.502504  0  4.223733  0
N  N57  1  0.71944894  0.90864197  0.34467544  1  0  0.467562  0  3.960707  0  0  0.515307  0  4.231473  0  0  0.534924  0  4.24303  0  0  0.055302  0.502275  0  4.223607  0
N  N58  1  0.78055086  0.90864403  0.84467487  1  0  0.467889  0  3.960803  0  0  0.5156  0  4.231577  0  0  0.535223  0  4.243124  0  0  0.055405  0.502567  0  4.22371  0
N  N59  1  0.28055122  0.09135967  0.65532461  1  0  0.467663  0  3.96052  0  0  0.515396  0  4.231281  0  0  0.535015  0  4.242835  0  0  0.055314  0.502364  0  4.223417  0
O  O60  1  0.75670455  0.55128247  0.11107070  1  0  -0.724918  0  1.991401  0  0  -0.681989  0  2.25876  0  0  -0.704461  0  2.245046  0  0  -0.450122  -0.665629  0  2.267611  0
O  O61  1  0.25670210  0.44871415  0.38892609  1  0  -0.724983  0  1.991444  0  0  -0.682064  0  2.258791  0  0  -0.704534  0  2.245075  0  0  -0.450188  -0.665702  0  2.26764  0
O  O62  1  0.24329141  0.44871917  0.88893094  1  0  -0.724937  0  1.991385  0  0  -0.68202  0  2.258747  0  0  -0.704491  0  2.24503  0  0  -0.450144  -0.665662  0  2.267597  0
O  O63  1  0.74328965  0.55128262  0.61106882  1  0  -0.724925  0  1.991323  0  0  -0.682008  0  2.258689  0  0  -0.704477  0  2.244975  0  0  -0.450164  -0.665646  0  2.267537  0
O  O64  1  0.52566508  0.67462686  0.03880132  1  0  -0.684533  0  1.984657  0  0  -0.629828  0  2.23238  0  0  -0.650887  0  2.217174  0  0  -0.334857  -0.61457  0  2.24215  0
O  O65  1  0.02566471  0.32537094  0.46119860  1  0  -0.684573  0  1.984661  0  0  -0.629852  0  2.232342  0  0  -0.650923  0  2.217166  0  0  -0.334869  -0.614602  0  2.242127  0
O  O66  1  0.47433227  0.32537575  0.96120056  1  0  -0.684496  0  1.984745  0  0  -0.629821  0  2.23249  0  0  -0.650871  0  2.21727  0  0  -0.334877  -0.614579  0  2.242287  0
O  O67  1  0.97433405  0.67462584  0.53879948  1  0  -0.684515  0  1.984631  0  0  -0.629795  0  2.232318  0  0  -0.650861  0  2.217131  0  0  -0.334863  -0.614559  0  2.242129  0
O  O68  1  0.77691083  0.55633719  0.91811448  1  0  -0.73416  0  1.977243  0  0  -0.691339  0  2.241055  0  0  -0.713309  0  2.226328  0  0  -0.444078  -0.675275  0  2.250735  0
O  O69  1  0.27691125  0.44366456  0.58188373  1  0  -0.734111  0  1.977218  0  0  -0.69129  0  2.241009  0  0  -0.713258  0  2.226281  0  0  -0.444021  -0.675227  0  2.250687  0
O  O70  1  0.22308233  0.44366153  0.08188645  1  0  -0.734228  0  1.977321  0  0  -0.69139  0  2.241091  0  0  -0.713362  0  2.226365  0  0  -0.444083  -0.675323  0  2.25077  0
O  O71  1  0.72308191  0.55633902  0.41811282  1  0  -0.734194  0  1.977326  0  0  -0.69138  0  2.241134  0  0  -0.713349  0  2.226406  0  0  -0.444068  -0.675312  0  2.250812  0
O  O72  1  0.14812780  0.20108314  0.18574272  1  0  -0.372039  0  1.828065  0  0  -0.366511  0  2.051213  0  0  -0.376262  0  2.048185  0  0  -0.159682  -0.360348  0  2.053778  0
O  O73  1  0.64812342  0.79891164  0.31425664  1  0  -0.371927  0  1.827956  0  0  -0.366397  0  2.051077  0  0  -0.37616  0  2.048064  0  0  -0.159637  -0.360232  0  2.053636  0
O  O74  1  0.85187516  0.79891461  0.81425718  1  0  -0.372095  0  1.828087  0  0  -0.366568  0  2.051229  0  0  -0.376321  0  2.048202  0  0  -0.159744  -0.360405  0  2.053791  0
O  O75  1  0.35187674  0.20108902  0.68574239  1  0  -0.371952  0  1.828  0  0  -0.366395  0  2.051098  0  0  -0.376158  0  2.048084  0  0  -0.159605  -0.360217  0  2.053626  0
O  O76  1  0.39215734  0.07290457  0.14440104  1  0  -0.368968  0  1.805015  0  0  -0.339788  0  2.002057  0  0  -0.353966  0  2.000944  0  0  -0.116289  -0.330508  0  2.003227  0
O  O77  1  0.89215417  0.92709000  0.35559623  1  0  -0.368911  0  1.805008  0  0  -0.339773  0  2.002078  0  0  -0.353905  0  2.000926  0  0  -0.116338  -0.330496  0  2.003248  0
O  O78  1  0.60784562  0.92709318  0.85559807  1  0  -0.369016  0  1.805033  0  0  -0.339831  0  2.002089  0  0  -0.353996  0  2.000963  0  0  -0.116317  -0.330554  0  2.003259  0
O  O79  1  0.10784599  0.07290970  0.64440415  1  0  -0.368967  0  1.804895  0  0  -0.339831  0  2.001979  0  0  -0.35396  0  2.000819  0  0  -0.116359  -0.330553  0  2.003153  0
O  O80  1  0.12812454  0.69751660  0.33950675  1  0  -0.888544  0  1.776259  0  0  -0.847339  0  1.934866  0  0  -0.864052  0  1.90607  0  0  -0.683491  -0.835213  0  1.955184  0
O  O81  1  0.62812513  0.30248305  0.16049376  1  0  -0.888425  0  1.77644  0  0  -0.847278  0  1.93496  0  0  -0.863993  0  1.906153  0  0  -0.683452  -0.835164  0  1.95529  0
O  O82  1  0.87187282  0.30248406  0.66049307  1  0  -0.888585  0  1.776209  0  0  -0.847381  0  1.934824  0  0  -0.864094  0  1.906028  0  0  -0.6835  -0.835273  0  1.955168  0
O  O83  1  0.37187363  0.69751664  0.83950661  1  0  -0.888602  0  1.776218  0  0  -0.847398  0  1.934844  0  0  -0.86411  0  1.906041  0  0  -0.683526  -0.835281  0  1.955168  0
