# generated using pymatgen
data_ZnSiH12C20(N4F5)2
_symmetry_space_group_name_H-M   'P 1'
_cell_length_a   7.73900108
_cell_length_b   13.48094579
_cell_length_c   13.48532533
_cell_angle_alpha   88.84389726
_cell_angle_beta   75.29674496
_cell_angle_gamma   75.28931845
_symmetry_Int_Tables_number   1
_chemical_formula_structural   ZnSiH12C20(N4F5)2
_chemical_formula_sum   'Zn1 Si1 H12 C20 N8 F10'
_cell_volume   1314.75695898
_cell_formula_units_Z   1
loop_
 _symmetry_equiv_pos_site_id
 _symmetry_equiv_pos_as_xyz
  1  'x, y, z'
loop_
 _atom_site_type_symbol
 _atom_site_label
 _atom_site_symmetry_multiplicity
 _atom_site_fract_x
 _atom_site_fract_y
 _atom_site_fract_z
 _atom_site_occupancy
 _atom_site_pbe_bader_charge
 _atom_site_pbe_bader_spin_density
 _atom_site_pbe_cm5_charge
 _atom_site_pbe_ddec_charge
 _atom_site_pbe_ddec_spin_density
 _atom_site_pbe_ddec_sum_bond_order
 _atom_site_pbe_magmom
Zn  Zn0  1  0.50000161  0.49997795  0.49997621  1  1.336889  0  0.703761  0.82457  0  2.169954  0
Si  Si1  1  0.00000345  0.50004671  0.49990011  1  3.227663  0  0.266947  1.73292  0  3.89228  0
H  H2  1  0.26615086  0.56894835  0.35491284  1  0.228206  0  0.115844  0.107513  0  1.067304  0
H  H3  1  0.26122397  0.56781196  0.17212899  1  0.13309  0  0.118275  0.131529  0  0.995456  0
H  H4  1  0.85232068  0.43256572  0.09565788  1  0.153888  0  0.124553  0.158416  0  0.974392  0
H  H5  1  0.14769030  0.56719131  0.90433046  1  0.152621  0  0.124476  0.158093  0  0.974906  0
H  H6  1  0.73899568  0.43261673  0.82776581  1  0.13452  0  0.117998  0.131293  0  0.995393  0
H  H7  1  0.73399406  0.43137230  0.64500547  1  0.224437  0  0.115784  0.107696  0  1.067634  0
H  H8  1  0.26603817  0.35504729  0.56901528  1  0.227349  0  0.115979  0.107785  0  1.067145  0
H  H9  1  0.26115480  0.17218134  0.56796262  1  0.133297  0  0.118341  0.131446  0  0.995179  0
H  H10  1  0.85208729  0.09571975  0.43218691  1  0.127725  0  0.124699  0.158531  0  0.974222  0
H  H11  1  0.14791387  0.90413288  0.56827234  1  0.123515  0  0.124494  0.158248  0  0.974215  0
H  H12  1  0.73861783  0.82785029  0.43188332  1  0.133798  0  0.118371  0.13184  0  0.995454  0
H  H13  1  0.73384495  0.64496372  0.43070208  1  0.226268  0  0.116005  0.107504  0  1.067085  0
C  C14  1  0.39353078  0.53928151  0.29579320  1  0.397137  0  0.055957  0.136287  0  3.889507  0
C  C15  1  0.39038571  0.53862314  0.19366168  1  0.015118  0  -0.07513  -0.190928  0  3.900164  0
C  C16  1  0.55670336  0.49841268  0.11935145  1  0.400154  0  0.104395  0.221776  0  4.051289  0
C  C17  1  0.71947668  0.46278297  0.15056181  1  -0.058656  0  -0.082916  -0.310301  0  3.906312  0
C  C18  1  0.70554152  0.46580613  0.25551934  1  1.076014  0  0.239065  0.451453  0  4.069055  0
C  C19  1  0.28054896  0.53710785  0.84940247  1  -0.055867  0  -0.083129  -0.309854  0  3.906276  0
C  C20  1  0.44339703  0.50171785  0.88059345  1  0.399629  0  0.104408  0.221879  0  4.050627  0
C  C21  1  0.60976556  0.46165584  0.80626830  1  0.013323  0  -0.075273  -0.191119  0  3.899712  0
C  C22  1  0.60657690  0.46092758  0.70414292  1  0.401825  0  0.056028  0.136501  0  3.889075  0
C  C23  1  0.29441692  0.53398146  0.74445429  1  1.075758  0  0.239483  0.451171  0  4.069797  0
C  C24  1  0.39343107  0.29591095  0.53925669  1  0.398333  0  0.055904  0.135973  0  3.888475  0
C  C25  1  0.39029940  0.19372920  0.53864273  1  0.014665  0  -0.075513  -0.191268  0  3.899143  0
C  C26  1  0.55658111  0.11938729  0.49827891  1  0.400026  0  0.104553  0.222504  0  4.04978  0
C  C27  1  0.71927969  0.15064006  0.46250794  1  -0.030385  0  -0.08309  -0.310635  0  3.905809  0
C  C28  1  0.70533030  0.25563996  0.46547944  1  1.076818  0  0.239862  0.452239  0  4.068832  0
C  C29  1  0.28069100  0.84926087  0.53776604  1  0.1031  0  -0.082807  -0.310009  0  3.905352  0
C  C30  1  0.44330580  0.88055820  0.50186770  1  0.273474  0  0.104664  0.222931  0  4.048189  0
C  C31  1  0.60955532  0.80625115  0.46132111  1  0.015476  0  -0.075812  -0.192327  0  3.899706  0
C  C32  1  0.60647247  0.70406433  0.46064454  1  0.398355  0  0.055986  0.136444  0  3.888083  0
C  C33  1  0.29470318  0.74425753  0.53476338  1  1.080317  0  0.240023  0.451858  0  4.069662  0
N  N34  1  0.54928721  0.50152013  0.32801344  1  -1.208939  0  -0.309051  -0.331598  0  3.430076  0
N  N35  1  0.57601495  0.49172092  0.01201320  1  -0.456135  0  -0.12802  -0.110788  0  3.217113  0
N  N36  1  0.42411254  0.50840216  0.98793221  1  -0.406652  0  -0.128083  -0.110868  0  3.216955  0
N  N37  1  0.45071878  0.49844017  0.67194613  1  -1.210356  0  -0.308928  -0.331773  0  3.430616  0
N  N38  1  0.54911851  0.32816255  0.50132432  1  -1.210737  0  -0.308778  -0.33126  0  3.430749  0
N  N39  1  0.57589726  0.01200232  0.49165889  1  -0.457466  0  -0.128274  -0.111314  0  3.21666  0
N  N40  1  0.42395270  0.98794532  0.50853957  1  -0.405618  0  -0.127815  -0.110654  0  3.215264  0
N  N41  1  0.45087185  0.67176955  0.49871516  1  -1.216669  0  -0.308614  -0.330754  0  3.430077  0
F  F42  1  0.22077437  0.51180031  0.51157873  1  -0.819715  0  -0.216041  -0.517017  0  1.33739  0
F  F43  1  0.77923289  0.48827300  0.48824571  1  -0.820311  0  -0.215904  -0.517907  0  1.338165  0
F  F44  1  0.99997090  0.59061927  0.40925346  1  -0.828878  0  -0.221402  -0.511349  0  1.140299  0
F  F45  1  0.00003513  0.40947888  0.59055823  1  -0.830695  0  -0.221224  -0.511389  0  1.140637  0
F  F46  1  0.11203960  0.40786913  0.40785611  1  -0.826191  0  -0.250431  -0.540942  0  1.117253  0
F  F47  1  0.88797846  0.59223433  0.59193729  1  -0.826103  0  -0.25034  -0.540821  0  1.117394  0
F  F48  1  0.86034389  0.43033872  0.28604954  1  -0.605705  0  -0.062008  -0.118235  0  1.419319  0
F  F49  1  0.13948559  0.56914442  0.71396471  1  -0.606728  0  -0.061936  -0.117983  0  1.419454  0
F  F50  1  0.86003608  0.28620218  0.42976811  1  -0.610605  0  -0.062599  -0.118582  0  1.419362  0
F  F51  1  0.14010571  0.71364064  0.57066170  1  -0.610379  0  -0.062736  -0.118726  0  1.420042  0
