# generated using pymatgen
data_CdH14C20(NO)4
_symmetry_space_group_name_H-M   'P 1'
_cell_length_a   9.09955206
_cell_length_b   9.13400943
_cell_length_c   14.82469387
_cell_angle_alpha   96.61268943
_cell_angle_beta   103.56988671
_cell_angle_gamma   107.38314444
_symmetry_Int_Tables_number   1
_chemical_formula_structural   CdH14C20(NO)4
_chemical_formula_sum   'Cd2 H28 C40 N8 O8'
_cell_volume   1120.03624444
_cell_formula_units_Z   2
loop_
 _symmetry_equiv_pos_site_id
 _symmetry_equiv_pos_as_xyz
  1  'x, y, z'
loop_
 _atom_site_type_symbol
 _atom_site_label
 _atom_site_symmetry_multiplicity
 _atom_site_fract_x
 _atom_site_fract_y
 _atom_site_fract_z
 _atom_site_occupancy
 _atom_site_hle17_bader_spin_density
 _atom_site_hle17_ddec_charge
 _atom_site_hle17_ddec_spin_density
 _atom_site_hle17_ddec_sum_bond_order
 _atom_site_hle17_magmom
 _atom_site_hse06_10hf_bader_spin_density
 _atom_site_hse06_10hf_ddec_charge
 _atom_site_hse06_10hf_ddec_spin_density
 _atom_site_hse06_10hf_ddec_sum_bond_order
 _atom_site_hse06_10hf_magmom
 _atom_site_hse06_bader_spin_density
 _atom_site_hse06_ddec_charge
 _atom_site_hse06_ddec_spin_density
 _atom_site_hse06_ddec_sum_bond_order
 _atom_site_hse06_magmom
 _atom_site_pbe_bader_spin_density
 _atom_site_pbe_cm5_charge
 _atom_site_pbe_ddec_charge
 _atom_site_pbe_ddec_spin_density
 _atom_site_pbe_ddec_sum_bond_order
 _atom_site_pbe_magmom
Cd  Cd0  1  0.40052062  0.92175802  0.80618404  1  0  1.086244  0  1.699819  0  0  0.894195  0  2.143997  0  0  0.952684  0  2.092904  0  0  0.767555  0.852882  0  2.178692  0
Cd  Cd1  1  0.66082633  0.75532568  0.40721233  1  0  1.089527  0  1.682538  0  0  0.897237  0  2.122923  0  0  0.956622  0  2.071882  0  0  0.769022  0.855264  0  2.157578  0
H  H2  1  0.07551076  0.84771918  0.50695261  1  0  0.112632  0  0.965496  0  0  0.118974  0  1.031729  0  0  0.122195  0  1.029618  0  0  0.117958  0.116617  0  1.033393  0
H  H3  1  0.27482208  0.83231035  0.39138025  1  0  0.127539  0  0.960515  0  0  0.136774  0  1.020635  0  0  0.139363  0  1.019733  0  0  0.127444  0.134834  0  1.021491  0
H  H4  1  0.81468160  0.80024283  0.22392884  1  0  0.105742  0  0.928491  0  0  0.11639  0  0.987414  0  0  0.119364  0  0.98306  0  0  0.142418  0.11416  0  0.990598  0
H  H5  1  0.87780224  0.70965497  0.10268034  1  0  0.10529  0  0.944986  0  0  0.119084  0  0.997973  0  0  0.122085  0  0.996837  0  0  0.109366  0.116912  0  0.998943  0
H  H6  1  0.97666055  0.72222375  0.96024751  1  0  0.09577  0  0.949893  0  0  0.104914  0  1.010345  0  0  0.108317  0  1.008013  0  0  0.102669  0.102431  0  1.012082  0
H  H7  1  0.46361293  0.91148562  0.13671024  1  0  0.107678  0  0.927198  0  0  0.118342  0  0.982496  0  0  0.122105  0  0.979531  0  0  0.108959  0.115548  0  0.984749  0
H  H8  1  0.36995548  0.90873187  0.28016207  1  0  0.120891  0  1.001984  0  0  0.127174  0  1.069039  0  0  0.131382  0  1.066236  0  0  0.104397  0.124046  0  1.07127  0
H  H9  1  0.82485856  0.85696413  0.63135201  1  0  0.123116  0  0.972146  0  0  0.131449  0  1.031801  0  0  0.13464  0  1.029809  0  0  0.120143  0.12913  0  1.033361  0
H  H10  1  0.01313062  0.72036910  0.74445070  1  0  0.135844  0  1.001896  0  0  0.142794  0  1.064945  0  0  0.146729  0  1.061593  0  0  0.123224  0.139942  0  1.067423  0
H  H11  1  0.78114721  0.42583079  0.47242143  1  0  0.094915  0  0.937784  0  0  0.107211  0  0.995249  0  0  0.109376  0  0.992567  0  0  0.138671  0.105569  0  0.997213  0
H  H12  1  0.95443108  0.30297806  0.50603667  1  0  0.104068  0  0.941202  0  0  0.119221  0  0.99296  0  0  0.122255  0  0.991735  0  0  0.10914  0.117035  0  0.993972  0
H  H13  1  0.09529485  0.12278497  0.56222865  1  0  0.100637  0  0.948496  0  0  0.110705  0  1.01031  0  0  0.113746  0  1.008402  0  0  0.105364  0.108527  0  1.011669  0
H  H14  1  0.20580326  0.35984912  0.84981949  1  0  0.098516  0  0.959661  0  0  0.107997  0  1.021482  0  0  0.111046  0  1.019615  0  0  0.102645  0.10579  0  1.022866  0
H  H15  1  0.05880717  0.53651044  0.79644702  1  0  0.114095  0  0.967807  0  0  0.124176  0  1.027323  0  0  0.127874  0  1.025293  0  0  0.10647  0.121539  0  1.028852  0
H  H16  1  0.72900590  0.84288959  0.76152730  1  0  0.096733  0  0.9794  0  0  0.103801  0  1.045045  0  0  0.105871  0  1.04503  0  0  0.113656  0.102288  0  1.045188  0
H  H17  1  0.03298132  0.98099096  0.88689663  1  0  0.132982  0  0.966488  0  0  0.137793  0  1.032911  0  0  0.141207  0  1.031156  0  0  0.124999  0.135324  0  1.03423  0
H  H18  1  0.72538679  0.22695442  0.94630498  1  0  0.098496  0  0.922808  0  0  0.110786  0  0.97927  0  0  0.113511  0  0.975572  0  0  0.14259  0.10876  0  0.981937  0
H  H19  1  0.23561375  0.20906429  0.96071710  1  0  0.121267  0  0.96289  0  0  0.128953  0  1.027056  0  0  0.132738  0  1.024802  0  0  0.107959  0.12621  0  1.028821  0
H  H20  1  0.45280191  0.38963429  0.09853060  1  0  0.104017  0  0.932254  0  0  0.114637  0  0.987682  0  0  0.118315  0  0.984908  0  0  0.10714  0.111916  0  0.989791  0
H  H21  1  0.10404849  0.47124301  0.22983745  1  0  0.102502  0  0.937348  0  0  0.112178  0  0.996052  0  0  0.115761  0  0.99356  0  0  0.105156  0.10957  0  0.99791  0
H  H22  1  0.88322052  0.28997678  0.09371697  1  0  0.102938  0  0.945577  0  0  0.115923  0  0.999729  0  0  0.118817  0  0.998785  0  0  0.108654  0.113851  0  1.000521  0
H  H23  1  0.30570252  0.83938241  0.58075235  1  0  0.114028  0  0.967859  0  0  0.12547  0  1.024171  0  0  0.12791  0  1.023131  0  0  0.120814  0.123687  0  1.025017  0
H  H24  1  0.34153899  0.59811411  0.46486046  1  0  0.128438  0  0.999996  0  0  0.135549  0  1.06514  0  0  0.139405  0  1.061717  0  0  0.122303  0.132654  0  1.067872  0
H  H25  1  0.45732149  0.54595232  0.75164530  1  0  0.095642  0  0.933952  0  0  0.109178  0  0.989213  0  0  0.11138  0  0.986315  0  0  0.141051  0.107518  0  0.991316  0
H  H26  1  0.34888075  0.38355420  0.42139191  1  0  0.115  0  0.964661  0  0  0.125921  0  1.022101  0  0  0.129597  0  1.020125  0  0  0.107504  0.123292  0  1.023594  0
H  H27  1  0.43630908  0.16411333  0.37069071  1  0  0.103727  0  0.943452  0  0  0.114519  0  1.000831  0  0  0.117813  0  0.998666  0  0  0.106578  0.112112  0  1.002466  0
H  H28  1  0.64619169  0.15651262  0.66084887  1  0  0.107651  0  0.939422  0  0  0.116059  0  1.00167  0  0  0.119593  0  0.999214  0  0  0.106669  0.113538  0  1.003381  0
H  H29  1  0.56678129  0.38082774  0.71403443  1  0  0.100993  0  0.944591  0  0  0.114376  0  1.000176  0  0  0.117392  0  0.998893  0  0  0.107252  0.112185  0  1.001268  0
C  C30  1  0.05183416  0.83648620  0.43080660  1  0  -0.005125  0  3.759109  0  0  -0.039562  0  4.027524  0  0  -0.038006  0  4.048277  0  0  -0.005079  -0.040571  0  4.013473  0
C  C31  1  0.15198533  0.83065408  0.37532526  1  0  -0.053814  0  3.642981  0  0  -0.093302  0  3.899616  0  0  -0.091861  0  3.918588  0  0  0.002856  -0.094221  0  3.886938  0
C  C32  1  0.91256514  0.81357576  0.28564546  1  0  0.180003  0  3.646595  0  0  0.118778  0  3.906487  0  0  0.134062  0  3.91781  0  0  0.146411  0.108903  0  3.898433  0
C  C33  1  0.11719252  0.81192402  0.20060972  1  0  0.190739  0  3.777625  0  0  0.179796  0  4.030206  0  0  0.187247  0  4.052402  0  0  0.097946  0.174974  0  4.015047  0
C  C34  1  0.00616106  0.75625008  0.11061717  1  0  -0.16859  0  3.771078  0  0  -0.189527  0  4.026548  0  0  -0.195848  0  4.048423  0  0  -0.096664  -0.18538  0  4.011662  0
C  C35  1  0.06125653  0.76152063  0.03077940  1  0  -0.056525  0  3.774349  0  0  -0.079972  0  4.024317  0  0  -0.078453  0  4.045368  0  0  -0.084499  -0.080662  0  4.009939  0
C  C36  1  0.22609013  0.81905538  0.03955978  1  0  -0.071926  0  3.774785  0  0  -0.049444  0  4.006801  0  0  -0.05965  0  4.032093  0  0  -0.02155  -0.042956  0  3.989815  0
C  C37  1  0.33549034  0.86822891  0.13004469  1  0  -0.032889  0  3.717686  0  0  -0.055652  0  3.962387  0  0  -0.05384  0  3.982432  0  0  -0.074171  -0.056532  0  3.948725  0
C  C38  1  0.28213078  0.86630294  0.21057503  1  0  -0.156181  0  3.716924  0  0  -0.177834  0  3.972224  0  0  -0.183776  0  3.992334  0  0  -0.092041  -0.173887  0  3.958737  0
C  C39  1  0.28373600  0.83684772  0.95378659  1  0  0.630074  0  3.945403  0  0  0.584067  0  4.230758  0  0  0.618594  0  4.22541  0  0  0.188785  0.56076  0  4.23343  0
C  C40  1  0.84270325  0.74575056  0.61643560  1  0  0.002615  0  3.733685  0  0  -0.030348  0  3.99834  0  0  -0.028395  0  4.017594  0  0  -0.005956  -0.031654  0  3.985313  0
C  C41  1  0.93466070  0.67864045  0.67270712  1  0  -0.060948  0  3.637516  0  0  -0.100798  0  3.89402  0  0  -0.099475  0  3.911212  0  0  -0.000769  -0.101642  0  3.882545  0
C  C42  1  0.81891586  0.52576194  0.52981707  1  0  0.169872  0  3.660861  0  0  0.107141  0  3.930966  0  0  0.121779  0  3.944238  0  0  0.14324  0.097758  0  3.921512  0
C  C43  1  0.99614942  0.43111221  0.64755636  1  0  0.194345  0  3.773357  0  0  0.18493  0  4.023944  0  0  0.192679  0  4.046063  0  0  0.100851  0.1799  0  4.008893  0
C  C44  1  0.00637408  0.31439966  0.58166001  1  0  -0.152034  0  3.733896  0  0  -0.175636  0  3.993224  0  0  -0.181207  0  4.013375  0  0  -0.091067  -0.172045  0  3.979643  0
C  C45  1  0.08621971  0.21342208  0.61301295  1  0  -0.035064  0  3.722054  0  0  -0.059598  0  3.972657  0  0  -0.05674  0  3.991378  0  0  -0.077661  -0.061223  0  3.959907  0
C  C46  1  0.15992633  0.22971854  0.70962789  1  0  -0.075763  0  3.774038  0  0  -0.054248  0  4.010053  0  0  -0.064301  0  4.034564  0  0  -0.023009  -0.047886  0  3.993672  0
C  C47  1  0.14760706  0.34623074  0.77476199  1  0  -0.058947  0  3.75688  0  0  -0.082544  0  4.006066  0  0  -0.080988  0  4.026425  0  0  -0.084565  -0.083297  0  3.992229  0
C  C48  1  0.06487814  0.44538891  0.74460036  1  0  -0.156726  0  3.733309  0  0  -0.176814  0  3.98476  0  0  -0.182821  0  4.005058  0  0  -0.094376  -0.172915  0  3.971047  0
C  C49  1  0.25246116  0.12630260  0.74320177  1  0  0.618716  0  3.962771  0  0  0.572366  0  4.251543  0  0  0.606627  0  4.247052  0  0  0.182737  0.549248  0  4.253629  0
C  C50  1  0.77405300  0.94437571  0.81859631  1  0  0.003994  0  3.752723  0  0  -0.026423  0  4.012195  0  0  -0.025073  0  4.033246  0  0  -0.002565  -0.027358  0  3.998003  0
C  C51  1  0.92541120  0.01240473  0.87990104  1  0  -0.048804  0  3.628062  0  0  -0.088067  0  3.88401  0  0  -0.086761  0  3.902516  0  0  0.006838  -0.088888  0  3.871622  0
C  C52  1  0.76589587  0.14084252  0.91256150  1  0  0.172987  0  3.656499  0  0  0.111479  0  3.919037  0  0  0.126291  0  3.93064  0  0  0.146051  0.101926  0  3.910772  0
C  C53  1  0.04539520  0.23982949  0.01827184  1  0  0.188825  0  3.779134  0  0  0.178998  0  4.028875  0  0  0.186148  0  4.051485  0  0  0.097991  0.174351  0  4.013471  0
C  C54  1  0.20556883  0.26540061  0.01958254  1  0  -0.156226  0  3.718097  0  0  -0.175317  0  3.970834  0  0  -0.181106  0  3.991207  0  0  -0.089757  -0.171527  0  3.957058  0
C  C55  1  0.32743775  0.36685709  0.09658105  1  0  -0.041131  0  3.726862  0  0  -0.063163  0  3.968811  0  0  -0.061623  0  3.988925  0  0  -0.07517  -0.063892  0  3.955117  0
C  C56  1  0.29192747  0.44180272  0.17250788  1  0  -0.062015  0  3.755833  0  0  -0.038834  0  3.986503  0  0  -0.048675  0  4.011526  0  0  -0.017104  -0.032613  0  3.969731  0
C  C57  1  0.13101841  0.41363765  0.17035229  1  0  -0.048467  0  3.750941  0  0  -0.072815  0  4.0011  0  0  -0.07124  0  4.021855  0  0  -0.081432  -0.073562  0  3.986959  0
C  C58  1  0.00789476  0.31340009  0.09379023  1  0  -0.165411  0  3.765853  0  0  -0.185863  0  4.019682  0  0  -0.192061  0  4.04154  0  0  -0.094358  -0.181829  0  4.004863  0
C  C59  1  0.42394828  0.54992924  0.25504338  1  0  0.627721  0  3.943633  0  0  0.581322  0  4.231566  0  0  0.615816  0  4.226781  0  0  0.187733  0.558036  0  4.233822  0
C  C60  1  0.34028577  0.74025551  0.59774508  1  0  0.020562  0  3.727674  0  0  -0.015148  0  3.99311  0  0  -0.01253  0  4.012914  0  0  -0.001249  -0.016883  0  3.979662  0
C  C61  1  0.35696912  0.62151554  0.54042760  1  0  -0.065421  0  3.640305  0  0  -0.107397  0  3.902017  0  0  -0.106494  0  3.919624  0  0  -0.00068  -0.107918  0  3.890314  0
C  C62  1  0.42309339  0.59515889  0.69029725  1  0  0.167241  0  3.662984  0  0  0.105081  0  3.932533  0  0  0.119753  0  3.945451  0  0  0.145231  0.095668  0  3.923335  0
C  C63  1  0.45242007  0.39735487  0.57124204  1  0  0.193061  0  3.772067  0  0  0.182963  0  4.024335  0  0  0.190821  0  4.04647  0  0  0.100995  0.17789  0  4.009249  0
C  C64  1  0.41307159  0.33433829  0.47450693  1  0  -0.15509  0  3.734699  0  0  -0.174792  0  3.985854  0  0  -0.180856  0  4.006222  0  0  -0.09263  -0.170847  0  3.972046  0
C  C65  1  0.46254223  0.21126612  0.44584601  1  0  -0.061071  0  3.759173  0  0  -0.08412  0  4.007814  0  0  -0.082382  0  4.02797  0  0  -0.083308  -0.084971  0  3.994105  0
C  C66  1  0.54828727  0.14760954  0.51246528  1  0  -0.078312  0  3.779974  0  0  -0.056998  0  4.017417  0  0  -0.067257  0  4.042194  0  0  -0.024196  -0.050511  0  4.000852  0
C  C67  1  0.58174460  0.20782988  0.60912118  1  0  -0.039202  0  3.722114  0  0  -0.064232  0  3.975466  0  0  -0.061389  0  3.993996  0  0  -0.077868  -0.065799  0  3.962818  0
C  C68  1  0.53597588  0.33324656  0.63863779  1  0  -0.150701  0  3.732566  0  0  -0.174849  0  3.994121  0  0  -0.180789  0  4.014859  0  0  -0.09105  -0.171026  0  3.980142  0
C  C69  1  0.60169523  0.01589852  0.48087612  1  0  0.611626  0  3.973881  0  0  0.564453  0  4.264033  0  0  0.598498  0  4.259541  0  0  0.183712  0.541482  0  4.266126  0
N  N70  1  0.90346203  0.82589664  0.37394000  1  0  -0.383646  0  3.267692  0  0  -0.307042  0  3.54856  0  0  -0.328462  0  3.56507  0  0  -0.3595  -0.292354  0  3.536764  0
N  N71  1  0.06220448  0.81597259  0.28277103  1  0  -0.08674  0  3.581546  0  0  0.003713  0  3.792287  0  0  -0.011372  0  3.816604  0  0  -0.220325  0.013707  0  3.775571  0
N  N72  1  0.77024222  0.64900054  0.52785929  1  0  -0.390116  0  3.266193  0  0  -0.313401  0  3.552757  0  0  -0.335289  0  3.570502  0  0  -0.357647  -0.298384  0  3.54011  0
N  N73  1  0.91933852  0.53850868  0.61719011  1  0  -0.092243  0  3.598086  0  0  -0.003232  0  3.811098  0  0  -0.018991  0  3.83739  0  0  -0.222576  0.007181  0  3.793134  0
N  N74  1  0.67610681  0.02573657  0.83936252  1  0  -0.381857  0  3.256887  0  0  -0.306657  0  3.53977  0  0  -0.327316  0  3.555717  0  0  -0.355589  -0.292479  0  3.528398  0
N  N75  1  0.91891683  0.13735589  0.94008802  1  0  -0.086862  0  3.590013  0  0  0.002345  0  3.803115  0  0  -0.012717  0  3.828073  0  0  -0.219386  0.012318  0  3.785999  0
N  N76  1  0.38079817  0.72224269  0.69064606  1  0  -0.382017  0  3.256696  0  0  -0.304549  0  3.543323  0  0  -0.325852  0  3.559474  0  0  -0.356329  -0.289965  0  3.531814  0
N  N77  1  0.41088031  0.52972429  0.59991051  1  0  -0.083887  0  3.590919  0  0  0.005036  0  3.803494  0  0  -0.010542  0  3.829906  0  0  -0.219678  0.015323  0  3.785444  0
O  O78  1  0.17904038  0.80983352  0.87355266  1  0  -0.660293  0  1.980652  0  0  -0.598152  0  2.218288  0  0  -0.626229  0  2.207839  0  0  -0.33519  -0.578385  0  2.224539  0
O  O79  1  0.43431759  0.88431204  0.96310411  1  0  -0.640698  0  1.917364  0  0  -0.581623  0  2.137909  0  0  -0.609744  0  2.127579  0  0  -0.348596  -0.561995  0  2.144276  0
O  O80  1  0.24241122  0.00733794  0.68457459  1  0  -0.641679  0  1.96376  0  0  -0.580702  0  2.204581  0  0  -0.609948  0  2.197679  0  0  -0.333689  -0.560254  0  2.208521  0
O  O81  1  0.33804031  0.16013443  0.82959413  1  0  -0.651029  0  1.909413  0  0  -0.592612  0  2.136709  0  0  -0.620466  0  2.126623  0  0  -0.347112  -0.573121  0  2.142903  0
O  O82  1  0.38898646  0.59108987  0.33098560  1  0  -0.657548  0  1.970204  0  0  -0.596454  0  2.214985  0  0  -0.625595  0  2.204826  0  0  -0.33654  -0.575939  0  2.221084  0
O  O83  1  0.56628505  0.59757341  0.24787929  1  0  -0.644758  0  1.920984  0  0  -0.58854  0  2.144956  0  0  -0.616619  0  2.135024  0  0  -0.342923  -0.568886  0  2.151016  0
O  O84  1  0.58072574  0.97379687  0.39160054  1  0  -0.648478  0  1.966237  0  0  -0.584205  0  2.200933  0  0  -0.612977  0  2.190022  0  0  -0.34227  -0.564012  0  2.207559  0
O  O85  1  0.66193608  0.94782868  0.54190194  1  0  -0.631068  0  1.964857  0  0  -0.573783  0  2.198582  0  0  -0.601685  0  2.192058  0  0  -0.329024  -0.554289  0  2.202324  0
