# generated using pymatgen
data_CdH6C8(IN)4
_symmetry_space_group_name_H-M   'P 1'
_cell_length_a   4.19016993
_cell_length_b   10.80546142
_cell_length_c   17.18627826
_cell_angle_alpha   89.99985870
_cell_angle_beta   89.99991740
_cell_angle_gamma   90.12695739
_symmetry_Int_Tables_number   1
_chemical_formula_structural   CdH6C8(IN)4
_chemical_formula_sum   'Cd2 H12 C16 I8 N8'
_cell_volume   778.13638973
_cell_formula_units_Z   2
loop_
 _symmetry_equiv_pos_site_id
 _symmetry_equiv_pos_as_xyz
  1  'x, y, z'
loop_
 _atom_site_type_symbol
 _atom_site_label
 _atom_site_symmetry_multiplicity
 _atom_site_fract_x
 _atom_site_fract_y
 _atom_site_fract_z
 _atom_site_occupancy
 _atom_site_pbe_bader_spin_density
 _atom_site_pbe_cm5_charge
 _atom_site_pbe_ddec_charge
 _atom_site_pbe_ddec_spin_density
 _atom_site_pbe_ddec_sum_bond_order
 _atom_site_pbe_magmom
Cd  Cd0  1  0.99999784  0.49999968  0.50000008  1  0  0.468906  0.53039  0  2.531171  0
Cd  Cd1  1  0.99999880  0.99999871  0.00000081  1  0  0.468914  0.530392  0  2.531148  0
H  H2  1  0.17457476  0.20496327  0.47745164  1  0  0.089808  0.079009  0  1.076206  0
H  H3  1  0.82542720  0.29503731  0.97745268  1  0  0.089809  0.079023  0  1.076161  0
H  H4  1  0.82542086  0.79503718  0.52254752  1  0  0.089803  0.079024  0  1.07615  0
H  H5  1  0.17457557  0.70496129  0.02254765  1  0  0.089805  0.079019  0  1.076172  0
H  H6  1  0.76956744  0.27926190  0.21611160  1  0  0.090779  0.073494  0  1.067055  0
H  H7  1  0.23043380  0.22073692  0.71611237  1  0  0.090777  0.073469  0  1.0671  0
H  H8  1  0.23043535  0.72073947  0.78388698  1  0  0.090762  0.073459  0  1.067063  0
H  H9  1  0.76956659  0.77926167  0.28388854  1  0  0.090772  0.07352  0  1.067036  0
H  H10  1  0.82692303  0.45418361  0.31314585  1  0  0.101121  0.087075  0  1.059107  0
H  H11  1  0.17307759  0.04581668  0.81314748  1  0  0.101122  0.087068  0  1.059117  0
H  H12  1  0.17307975  0.54581776  0.68685332  1  0  0.10113  0.087077  0  1.059143  0
H  H13  1  0.82692041  0.95418099  0.18685285  1  0  0.101139  0.087089  0  1.059139  0
C  C14  1  0.08938817  0.22176079  0.41838708  1  0  0.032145  0.011618  0  3.929363  0
C  C15  1  0.91061656  0.27824002  0.91838870  1  0  0.032134  0.011647  0  3.929352  0
C  C16  1  0.91061223  0.77823965  0.58161208  1  0  0.032155  0.011673  0  3.929259  0
C  C17  1  0.08938384  0.72176043  0.08161221  1  0  0.032126  0.011647  0  3.929296  0
C  C18  1  0.07508851  0.12826176  0.36190372  1  0  0.075749  0.13392  0  3.934108  0
C  C19  1  0.92491657  0.37173834  0.86190461  1  0  0.075708  0.133838  0  3.934197  0
C  C20  1  0.92491428  0.87173961  0.63809544  1  0  0.075739  0.133872  0  3.934077  0
C  C21  1  0.07508857  0.62825748  0.13809688  1  0  0.075774  0.133926  0  3.934185  0
C  C22  1  0.86644165  0.26310535  0.27415733  1  0  0.044374  0.066258  0  3.933584  0
C  C23  1  0.13355922  0.23689417  0.77415810  1  0  0.044398  0.066266  0  3.933531  0
C  C24  1  0.13355875  0.73689602  0.72584126  1  0  0.044384  0.066232  0  3.933637  0
C  C25  1  0.86644117  0.76310535  0.22584281  1  0  0.04436  0.066202  0  3.933631  0
C  C26  1  0.89207613  0.35928688  0.32795540  1  0  0.039627  0.039187  0  3.898991  0
C  C27  1  0.10792440  0.14071243  0.82795633  1  0  0.039637  0.039243  0  3.898948  0
C  C28  1  0.10792427  0.64071357  0.67204377  1  0  0.039641  0.039245  0  3.899031  0
C  C29  1  0.89207360  0.85928616  0.17204458  1  0  0.039599  0.039178  0  3.899071  0
I  I30  1  0.48916133  0.63407683  0.41136540  1  0  -0.175489  -0.316513  0  1.678408  0
I  I31  1  0.51083978  0.86592288  0.91136585  1  0  -0.175502  -0.316532  0  1.678441  0
I  I32  1  0.51083668  0.36592454  0.58863551  1  0  -0.175492  -0.316505  0  1.67841  0
I  I33  1  0.48915821  0.13407479  0.08863564  1  0  -0.175495  -0.316495  0  1.678351  0
I  I34  1  0.24769611  0.94901907  0.38907706  1  0  0.079779  -0.042222  0  1.818767  0
I  I35  1  0.75230515  0.55098166  0.88907792  1  0  0.079763  -0.042217  0  1.818738  0
I  I36  1  0.75230428  0.05098138  0.61091919  1  0  0.079763  -0.04222  0  1.818725  0
I  I37  1  0.24769286  0.44901879  0.11092241  1  0  0.079791  -0.042196  0  1.818785  0
N  N38  1  0.99797497  0.33700397  0.40041262  1  0  -0.31083  -0.168863  0  3.503356  0
N  N39  1  0.00202509  0.16299598  0.90041413  1  0  -0.310811  -0.168895  0  3.503408  0
N  N40  1  0.00202303  0.66299555  0.59958654  1  0  -0.310838  -0.168919  0  3.503429  0
N  N41  1  0.99797292  0.83700539  0.09958736  1  0  -0.310827  -0.168898  0  3.503358  0
N  N42  1  0.95871377  0.14730869  0.29104180  1  0  -0.301518  -0.228174  0  3.333437  0
N  N43  1  0.04129177  0.35269077  0.79104242  1  0  -0.301498  -0.228136  0  3.333453  0
N  N44  1  0.04128902  0.85269268  0.70895678  1  0  -0.301493  -0.228111  0  3.333452  0
N  N45  1  0.95871101  0.64730783  0.20895907  1  0  -0.301499  -0.228165  0  3.333538  0
