# generated using pymatgen
data_Zn2H27PtC23N5Cl2O11
_symmetry_space_group_name_H-M   'P 1'
_cell_length_a   12.77421244
_cell_length_b   14.95812646
_cell_length_c   23.21820013
_cell_angle_alpha   90.00001919
_cell_angle_beta   89.99948879
_cell_angle_gamma   89.99982878
_symmetry_Int_Tables_number   1
_chemical_formula_structural   Zn2H27PtC23N5Cl2O11
_chemical_formula_sum   'Zn8 H108 Pt4 C92 N20 Cl8 O44'
_cell_volume   4436.49386526
_cell_formula_units_Z   4
loop_
 _symmetry_equiv_pos_site_id
 _symmetry_equiv_pos_as_xyz
  1  'x, y, z'
loop_
 _atom_site_type_symbol
 _atom_site_label
 _atom_site_symmetry_multiplicity
 _atom_site_fract_x
 _atom_site_fract_y
 _atom_site_fract_z
 _atom_site_occupancy
 _atom_site_pbe_bader_charge
 _atom_site_pbe_bader_spin_density
 _atom_site_pbe_cm5_charge
 _atom_site_pbe_ddec_charge
 _atom_site_pbe_ddec_spin_density
 _atom_site_pbe_ddec_sum_bond_order
 _atom_site_pbe_magmom
Zn  Zn0  1  0.15752947  0.51379631  0.90187320  1  1.411563  0  0.690668  0.993742  0  2.246134  0
Zn  Zn1  1  0.65753937  0.01380852  0.59812916  1  1.411331  0  0.690685  0.993701  0  2.246201  0
Zn  Zn2  1  0.34246157  0.51381066  0.40186887  1  1.411291  0  0.690741  0.993908  0  2.245917  0
Zn  Zn3  1  0.84246129  0.01379814  0.09812914  1  1.411469  0  0.690653  0.993694  0  2.246017  0
Zn  Zn4  1  0.24886150  0.39160488  0.01527065  1  1.329302  0  0.671111  0.920784  0  2.259275  0
Zn  Zn5  1  0.74885711  0.89162219  0.48472921  1  1.329724  0  0.670998  0.920568  0  2.259428  0
Zn  Zn6  1  0.25112999  0.39162906  0.51526461  1  1.329635  0  0.671056  0.920661  0  2.259259  0
Zn  Zn7  1  0.75114125  0.89160692  0.98473394  1  1.3293  0  0.671046  0.920608  0  2.259352  0
H  H8  1  0.06035508  0.27835048  0.82146838  1  0.161875  0  0.112267  0.100351  0  1.037983  0
H  H9  1  0.56036270  0.77834558  0.67853021  1  0.161871  0  0.112273  0.100355  0  1.03805  0
H  H10  1  0.43963966  0.27835724  0.32146573  1  0.16176  0  0.112292  0.10044  0  1.037897  0
H  H11  1  0.93964650  0.77833629  0.17853230  1  0.161908  0  0.112263  0.100367  0  1.038013  0
H  H12  1  0.01821271  0.17641067  0.99301709  1  0.099695  0  0.115785  0.120692  0  1.011739  0
H  H13  1  0.51820277  0.67643177  0.50697738  1  0.099799  0  0.115855  0.12092  0  1.011463  0
H  H14  1  0.48179291  0.17643002  0.49301768  1  0.099954  0  0.115855  0.120818  0  1.011605  0
H  H15  1  0.98178218  0.67640565  0.00698874  1  0.099791  0  0.11581  0.120679  0  1.011824  0
H  H16  1  0.89007691  0.04372646  0.84394007  1  0.158168  0  0.117174  0.101868  0  1.025925  0
H  H17  1  0.39008274  0.54372952  0.65605642  1  0.158436  0  0.117201  0.101816  0  1.025765  0
H  H18  1  0.60990792  0.04373339  0.34394205  1  0.158511  0  0.117184  0.101849  0  1.025858  0
H  H19  1  0.10990906  0.54372173  0.15606056  1  0.158231  0  0.117198  0.101885  0  1.025844  0
H  H20  1  0.87374404  0.03581769  0.64822080  1  0.176226  0  0.119833  0.10911  0  1.033664  0
H  H21  1  0.37373965  0.53582752  0.85178524  1  0.176727  0  0.119811  0.109099  0  1.033667  0
H  H22  1  0.62626670  0.03582057  0.14821581  1  0.176394  0  0.119807  0.109118  0  1.033658  0
H  H23  1  0.12625996  0.53582638  0.35178284  1  0.176675  0  0.119835  0.10918  0  1.033681  0
H  H24  1  0.00303159  0.13866788  0.48923647  1  0.154521  0  0.121405  0.131345  0  0.978213  0
H  H25  1  0.50303881  0.63866290  0.01077186  1  0.154463  0  0.121408  0.13135  0  0.978146  0
H  H26  1  0.49696092  0.13865266  0.98923827  1  0.154623  0  0.121415  0.131431  0  0.978367  0
H  H27  1  0.99695796  0.63866105  0.51076547  1  0.154495  0  0.121421  0.131342  0  0.978331  0
H  H28  1  0.08338413  0.24854187  0.65459535  1  0.14267  0  0.111964  0.089632  0  1.051097  0
H  H29  1  0.58340627  0.74852903  0.84541001  1  0.14263  0  0.111976  0.089653  0  1.051053  0
H  H30  1  0.41660873  0.24852261  0.15459454  1  0.142761  0  0.111889  0.089581  0  1.05118  0
H  H31  1  0.91660973  0.74854386  0.34540618  1  0.14279  0  0.111949  0.089646  0  1.050987  0
H  H32  1  0.13542575  0.57731094  0.76960418  1  0.083619  0  0.11978  0.041499  0  0.995111  0
H  H33  1  0.63544837  0.07731319  0.73038926  1  0.083748  0  0.119837  0.041658  0  0.995064  0
H  H34  1  0.36457583  0.57730452  0.26960621  1  0.083711  0  0.11983  0.041549  0  0.995084  0
H  H35  1  0.86456949  0.07730476  0.23039301  1  0.083691  0  0.119818  0.041504  0  0.995237  0
H  H36  1  0.30095112  0.38199215  0.75126340  1  0.117927  0  0.10551  0.131746  0  1.004232  0
H  H37  1  0.80096387  0.88198595  0.74872758  1  0.117651  0  0.105645  0.131925  0  1.004099  0
H  H38  1  0.19903422  0.38199350  0.25126537  1  0.117742  0  0.105542  0.131879  0  1.004063  0
H  H39  1  0.69903053  0.88199331  0.24874032  1  0.117696  0  0.105545  0.131786  0  1.004208  0
H  H40  1  0.27797186  0.37984550  0.67470412  1  0.075328  0  0.109426  0.133906  0  0.990795  0
H  H41  1  0.77797084  0.87984134  0.82529645  1  0.075425  0  0.109439  0.133973  0  0.990803  0
H  H42  1  0.22202413  0.37985147  0.17470081  1  0.075267  0  0.109395  0.13396  0  0.990791  0
H  H43  1  0.72202859  0.87985132  0.32530176  1  0.075245  0  0.109384  0.133923  0  0.990802  0
H  H44  1  0.18472353  0.33122256  0.72263484  1  0.07078  0  0.096518  0.108692  0  1.016272  0
H  H45  1  0.68471311  0.83122239  0.77736014  1  0.070687  0  0.096522  0.10871  0  1.016414  0
H  H46  1  0.31527576  0.33121426  0.22263323  1  0.070543  0  0.096528  0.10877  0  1.016368  0
H  H47  1  0.81527238  0.83122010  0.27736973  1  0.070677  0  0.096505  0.10871  0  1.016164  0
H  H48  1  0.09822499  0.56865414  0.67838402  1  0.058287  0  0.108783  0.118367  0  0.987315  0
H  H49  1  0.59822892  0.06865642  0.82161262  1  0.058644  0  0.108808  0.118412  0  0.98722  0
H  H50  1  0.40177418  0.56865230  0.17838285  1  0.05832  0  0.108836  0.118466  0  0.987192  0
H  H51  1  0.90177811  0.06865325  0.32161360  1  0.058296  0  0.108778  0.118385  0  0.987256  0
H  H52  1  0.19193456  0.51221646  0.63388292  1  0.100688  0  0.106685  0.133341  0  1.008657  0
H  H53  1  0.69193776  0.01221275  0.86610980  1  0.100767  0  0.106679  0.133317  0  1.00885  0
H  H54  1  0.30806554  0.51221352  0.13388824  1  0.100756  0  0.106644  0.133222  0  1.008852  0
H  H55  1  0.80806483  0.01222184  0.36611425  1  0.100683  0  0.10662  0.133216  0  1.008892  0
H  H56  1  0.07595629  0.45592346  0.65542966  1  0.089  0  0.106846  0.132475  0  0.976327  0
H  H57  1  0.57597375  0.95592199  0.84456460  1  0.087338  0  0.106808  0.132437  0  0.976433  0
H  H58  1  0.42404052  0.45591822  0.15542838  1  0.089121  0  0.10687  0.132512  0  0.976458  0
H  H59  1  0.92403997  0.95592076  0.34456978  1  0.088942  0  0.106857  0.132543  0  0.976331  0
H  H60  1  0.95797331  0.44786656  0.82365285  1  0.118491  0  0.120319  0.056394  0  1.006874  0
H  H61  1  0.45797960  0.94786160  0.67634685  1  0.118385  0  0.120278  0.056345  0  1.006844  0
H  H62  1  0.54202061  0.44787165  0.32364957  1  0.118061  0  0.120248  0.056303  0  1.007025  0
H  H63  1  0.04202220  0.94785666  0.17634227  1  0.118263  0  0.120229  0.056257  0  1.006949  0
H  H64  1  0.70222532  0.49552258  0.80460248  1  0.104155  0  0.096592  0.122162  0  1.010574  0
H  H65  1  0.20223208  0.99550426  0.69539935  1  0.104294  0  0.096685  0.12229  0  1.010564  0
H  H66  1  0.79777500  0.49551298  0.30460354  1  0.104136  0  0.096631  0.122148  0  1.010636  0
H  H67  1  0.29777785  0.99551070  0.19539395  1  0.104057  0  0.096677  0.122248  0  1.010653  0
H  H68  1  0.81204143  0.43410498  0.77711084  1  0.089297  0  0.100102  0.125412  0  1.026372  0
H  H69  1  0.31205244  0.93410071  0.72288871  1  0.08913  0  0.100093  0.125516  0  1.026398  0
H  H70  1  0.68795721  0.43409500  0.27710727  1  0.089353  0  0.100095  0.125535  0  1.026314  0
H  H71  1  0.18796196  0.93408471  0.22288902  1  0.089086  0  0.100099  0.125565  0  1.026425  0
H  H72  1  0.77092118  0.53596204  0.74356572  1  0.070414  0  0.101998  0.115273  0  0.982592  0
H  H73  1  0.27092870  0.03595286  0.75643825  1  0.070477  0  0.10196  0.115264  0  0.982586  0
H  H74  1  0.72908391  0.53595729  0.24356151  1  0.070444  0  0.101959  0.115236  0  0.982466  0
H  H75  1  0.22907577  0.03595347  0.25643233  1  0.07035  0  0.101922  0.115183  0  0.982697  0
H  H76  1  0.88278048  0.67210598  0.86347613  1  0.110651  0  0.113277  0.134807  0  0.998121  0
H  H77  1  0.38277429  0.17209407  0.63651784  1  0.110253  0  0.113282  0.134814  0  0.998102  0
H  H78  1  0.61721905  0.67209884  0.36347765  1  0.110698  0  0.113281  0.13484  0  0.9981  0
H  H79  1  0.11720582  0.17209296  0.13651936  1  0.110519  0  0.113248  0.134794  0  0.998115  0
H  H80  1  0.75035590  0.63535021  0.86947476  1  0.067469  0  0.106028  0.122723  0  0.994885  0
H  H81  1  0.25036155  0.13533563  0.63051985  1  0.067341  0  0.106037  0.122694  0  0.994996  0
H  H82  1  0.74964445  0.63533338  0.36947434  1  0.067419  0  0.106035  0.122706  0  0.994991  0
H  H83  1  0.24964619  0.13533217  0.13052158  1  0.067467  0  0.105994  0.122659  0  0.994978  0
H  H84  1  0.79596074  0.67981292  0.80288810  1  0.028505  0  0.107359  0.119589  0  0.984536  0
H  H85  1  0.29595435  0.17980439  0.69710070  1  0.028822  0  0.107382  0.119633  0  0.9845  0
H  H86  1  0.70404915  0.67980490  0.30288833  1  0.028762  0  0.107416  0.119686  0  0.98461  0
H  H87  1  0.20403728  0.17979369  0.19711170  1  0.028968  0  0.107411  0.119646  0  0.984465  0
H  H88  1  0.07862380  0.69849201  0.93748815  1  0.106433  0  0.121551  0.046054  0  1.03109  0
H  H89  1  0.57862332  0.19850219  0.56252197  1  0.106657  0  0.121373  0.045882  0  1.030892  0
H  H90  1  0.42136523  0.69850282  0.43748387  1  0.106912  0  0.121447  0.045932  0  1.030884  0
H  H91  1  0.92137649  0.19848894  0.06251855  1  0.106492  0  0.121482  0.046023  0  1.030967  0
H  H92  1  0.08192099  0.91626058  0.90034403  1  0.082113  0  0.10562  0.122939  0  0.976844  0
H  H93  1  0.58192225  0.41626209  0.59965751  1  0.081862  0  0.105593  0.122958  0  0.976892  0
H  H94  1  0.41808119  0.91626337  0.40033976  1  0.082126  0  0.105623  0.122986  0  0.976859  0
H  H95  1  0.91807854  0.41625553  0.09965324  1  0.082023  0  0.105611  0.122915  0  0.976861  0
H  H96  1  0.00494863  0.82904521  0.93169548  1  0.088033  0  0.109478  0.130046  0  1.012038  0
H  H97  1  0.50496762  0.32905474  0.56831848  1  0.088159  0  0.10957  0.130216  0  1.012184  0
H  H98  1  0.49502830  0.82905383  0.43168093  1  0.088213  0  0.109555  0.130153  0  1.012171  0
H  H99  1  0.99503869  0.32904330  0.06830824  1  0.087957  0  0.109521  0.13014  0  1.012084  0
H  H100  1  0.98378211  0.86240174  0.85869776  1  0.058782  0  0.102305  0.120495  0  0.998592  0
H  H101  1  0.48378289  0.36241457  0.64130697  1  0.058753  0  0.102324  0.120609  0  0.998491  0
H  H102  1  0.51621135  0.86240756  0.35869632  1  0.0588  0  0.102323  0.120557  0  0.998529  0
H  H103  1  0.01622074  0.36240369  0.14130036  1  0.058806  0  0.102317  0.120521  0  0.998558  0
H  H104  1  0.13873565  0.84930423  0.79340062  1  0.083877  0  0.102869  0.128498  0  0.997884  0
H  H105  1  0.63875240  0.34932251  0.70660622  1  0.083499  0  0.102906  0.128646  0  0.997956  0
H  H106  1  0.36126302  0.84932389  0.29339060  1  0.083471  0  0.102889  0.128681  0  0.997857  0
H  H107  1  0.86125707  0.34931342  0.20660180  1  0.083834  0  0.102889  0.128571  0  0.997937  0
H  H108  1  0.25657039  0.84038987  0.83484196  1  0.081077  0  0.100228  0.124522  0  0.988921  0
H  H109  1  0.75657685  0.34040278  0.66516387  1  0.079036  0  0.100201  0.124587  0  0.988997  0
H  H110  1  0.24342295  0.84039980  0.33482606  1  0.078563  0  0.100228  0.124614  0  0.989063  0
H  H111  1  0.74342863  0.34040135  0.16516132  1  0.079161  0  0.100222  0.124636  0  0.989045  0
H  H112  1  0.20574500  0.74381233  0.80096822  1  0.086181  0  0.104087  0.120549  0  1.015713  0
H  H113  1  0.70575482  0.24383395  0.69903999  1  0.086445  0  0.104137  0.120695  0  1.015668  0
H  H114  1  0.29425784  0.74383550  0.30095508  1  0.086514  0  0.10412  0.120664  0  1.015624  0
H  H115  1  0.79424966  0.24382636  0.19903763  1  0.086409  0  0.104127  0.12066  0  1.015655  0
Pt  Pt116  1  0.97203799  0.14892601  0.74183378  1  0.613964  0  0.549795  0.250233  0  3.834434  0
Pt  Pt117  1  0.47205077  0.64892978  0.75817311  1  0.613905  0  0.549775  0.250168  0  3.834696  0
Pt  Pt118  1  0.52795674  0.14892846  0.24183271  1  0.613919  0  0.54987  0.250317  0  3.834543  0
Pt  Pt119  1  0.02795309  0.64892621  0.25817377  1  0.613908  0  0.549814  0.250199  0  3.834742  0
C  C120  1  0.02958355  0.22886840  0.85121796  1  0.438549  0  0.047235  0.058631  0  3.861318  0
C  C121  1  0.52960497  0.72886750  0.64877862  1  0.438663  0  0.04734  0.058631  0  3.861376  0
C  C122  1  0.47039052  0.22887240  0.35121645  1  0.438992  0  0.047332  0.058565  0  3.861268  0
C  C123  1  0.97039393  0.72885411  0.14878400  1  0.438763  0  0.047297  0.058675  0  3.861194  0
C  C124  1  0.04385635  0.23812624  0.91024145  1  0.025917  0  -0.008  -0.058341  0  3.967585  0
C  C125  1  0.54386150  0.73813199  0.58975765  1  0.026046  0  -0.007931  -0.058196  0  3.96733  0
C  C126  1  0.45614257  0.23813495  0.41024044  1  0.026204  0  -0.007955  -0.058331  0  3.967273  0
C  C127  1  0.95613990  0.73811464  0.08976568  1  0.025501  0  -0.008069  -0.058319  0  3.967968  0
C  C128  1  0.00440637  0.17280795  0.94688004  1  -0.020249  0  -0.052053  -0.054223  0  3.897488  0
C  C129  1  0.50439098  0.67282773  0.55311881  1  0.046383  0  -0.052251  -0.054679  0  3.8974  0
C  C130  1  0.49561253  0.17282660  0.44687754  1  -0.020797  0  -0.052186  -0.05444  0  3.89727  0
C  C131  1  0.99559401  0.67280359  0.05312923  1  -0.020036  0  -0.052015  -0.054221  0  3.897906  0
C  C132  1  0.94536645  0.10330339  0.92356455  1  0.073119  0  -0.010912  -0.069047  0  3.964953  0
C  C133  1  0.44536888  0.60330975  0.57643858  1  0.006709  0  -0.010902  -0.069017  0  3.96494  0
C  C134  1  0.55462705  0.10330645  0.42356163  1  0.07348  0  -0.010929  -0.069042  0  3.964889  0
C  C135  1  0.05462635  0.60328874  0.07644342  1  0.072748  0  -0.011035  -0.06921  0  3.965436  0
C  C136  1  0.93348050  0.09792638  0.86394583  1  0.408067  0  0.05038  0.060356  0  3.849886  0
C  C137  1  0.43348588  0.59794079  0.63605649  1  0.407734  0  0.050347  0.060537  0  3.849978  0
C  C138  1  0.56650773  0.09794010  0.36394544  1  0.407535  0  0.050382  0.060362  0  3.850071  0
C  C139  1  0.06652015  0.59793245  0.13605740  1  0.407967  0  0.050352  0.060356  0  3.850524  0
C  C140  1  0.09881362  0.31945186  0.93275254  1  1.611048  0  0.224996  0.612402  0  4.180022  0
C  C141  1  0.59882227  0.81946430  0.56724932  1  1.611059  0  0.224897  0.612307  0  4.179884  0
C  C142  1  0.40118543  0.31946540  0.43275051  1  1.611126  0  0.224967  0.612568  0  4.179818  0
C  C143  1  0.90118547  0.81944775  0.06724944  1  1.611178  0  0.224896  0.612293  0  4.180334  0
C  C144  1  0.89200876  0.03723838  0.96250223  1  1.598044  0  0.219004  0.597972  0  4.19774  0
C  C145  1  0.39201260  0.53725608  0.53749210  1  1.598051  0  0.218996  0.597694  0  4.197837  0
C  C146  1  0.60798591  0.03724731  0.46250336  1  1.598398  0  0.219122  0.597976  0  4.197762  0
C  C147  1  0.10798193  0.53723360  0.03749625  1  1.598109  0  0.219013  0.597799  0  4.19767  0
C  C148  1  0.92324623  0.08190094  0.62431229  1  0.460885  0  0.057562  0.078281  0  3.822954  0
C  C149  1  0.42325789  0.58189874  0.87569396  1  0.46098  0  0.057463  0.078197  0  3.822948  0
C  C150  1  0.57673499  0.08188121  0.12431142  1  0.461257  0  0.057516  0.078262  0  3.823313  0
C  C151  1  0.07673804  0.58189506  0.37569136  1  0.461021  0  0.057491  0.078084  0  3.823151  0
C  C152  1  0.93079552  0.07931235  0.56434595  1  -0.017601  0  -0.006252  -0.060792  0  3.954549  0
C  C153  1  0.43079603  0.57931487  0.93565853  1  -0.018096  0  -0.006207  -0.060999  0  3.954241  0
C  C154  1  0.56921486  0.07931136  0.06434555  1  -0.018057  0  -0.006129  -0.060892  0  3.954612  0
C  C155  1  0.06920363  0.57931588  0.43565727  1  -0.017626  0  -0.006275  -0.060979  0  3.954492  0
C  C156  1  0.99628931  0.13963332  0.53601113  1  0.052358  0  -0.043899  -0.046069  0  3.868235  0
C  C157  1  0.49630502  0.63962849  0.96399348  1  0.052628  0  -0.043852  -0.045851  0  3.867941  0
C  C158  1  0.50369705  0.13961912  0.03601019  1  0.052977  0  -0.044039  -0.046259  0  3.868493  0
C  C159  1  0.00370493  0.63963435  0.46399167  1  0.052297  0  -0.043799  -0.045869  0  3.868138  0
C  C160  1  0.05282177  0.20128530  0.56851209  1  0.02542  0  -0.007397  -0.054397  0  3.97557  0
C  C161  1  0.55283547  0.70127852  0.93149169  1  0.024928  0  -0.007373  -0.054398  0  3.975584  0
C  C162  1  0.44716247  0.20127465  0.06850596  1  0.024714  0  -0.007374  -0.054341  0  3.975376  0
C  C163  1  0.94716286  0.70127923  0.43149159  1  0.025552  0  -0.00742  -0.054364  0  3.975471  0
C  C164  1  0.04152979  0.20068164  0.62803913  1  0.404743  0  0.044993  0.048016  0  3.888963  0
C  C165  1  0.54153897  0.70067951  0.87196729  1  0.404608  0  0.044967  0.048007  0  3.888785  0
C  C166  1  0.45849185  0.20068835  0.12803294  1  0.404749  0  0.045039  0.048078  0  3.888776  0
C  C167  1  0.95847676  0.70068755  0.37196713  1  0.404399  0  0.044983  0.047879  0  3.888762  0
C  C168  1  0.87048691  0.01286493  0.52984083  1  1.560843  0  0.211005  0.584876  0  4.174665  0
C  C169  1  0.37048217  0.51286746  0.97016781  1  1.561209  0  0.210993  0.584887  0  4.17469  0
C  C170  1  0.62952269  0.01286579  0.02982506  1  1.561531  0  0.21114  0.585043  0  4.174581  0
C  C171  1  0.12951560  0.51286297  0.47015979  1  1.559888  0  0.21088  0.584752  0  4.174895  0
C  C172  1  0.12406541  0.26824546  0.54098309  1  1.602972  0  0.192348  0.55917  0  4.249483  0
C  C173  1  0.62408727  0.76823802  0.95901993  1  1.603272  0  0.192205  0.558961  0  4.249733  0
C  C174  1  0.37591983  0.26823700  0.04098851  1  1.602656  0  0.192484  0.559494  0  4.24926  0
C  C175  1  0.87591742  0.76824360  0.45901630  1  1.601832  0  0.192235  0.5591  0  4.249566  0
C  C176  1  0.17953972  0.51384839  0.77151679  1  1.375288  0  0.174025  0.288821  0  4.120723  0
C  C177  1  0.67954359  0.01384796  0.72848676  1  1.375254  0  0.17385  0.288458  0  4.120734  0
C  C178  1  0.32046049  0.51384275  0.27151128  1  1.375123  0  0.173861  0.288691  0  4.120324  0
C  C179  1  0.82045105  0.01385034  0.22848082  1  1.375338  0  0.173843  0.288663  0  4.120955  0
C  C180  1  0.24170625  0.38588843  0.71732293  1  0.213896  0  -0.134582  -0.273964  0  3.879718  0
C  C181  1  0.74171923  0.88587288  0.78267222  1  0.214594  0  -0.134663  -0.274237  0  3.879459  0
C  C182  1  0.25828198  0.38587626  0.21732246  1  0.214816  0  -0.134629  -0.274364  0  3.879618  0
C  C183  1  0.75828321  0.88588545  0.28268080  1  0.214844  0  -0.134614  -0.274158  0  3.87979  0
C  C184  1  0.13575626  0.50422824  0.66930139  1  0.244007  0  -0.128143  -0.275739  0  3.890904  0
C  C185  1  0.63576473  0.00422719  0.83069332  1  0.245406  0  -0.128072  -0.275723  0  3.891195  0
C  C186  1  0.36424251  0.50422114  0.16930256  1  0.24384  0  -0.1282  -0.275819  0  3.891384  0
C  C187  1  0.86424159  0.00422544  0.33069621  1  0.244125  0  -0.128094  -0.275714  0  3.891275  0
C  C188  1  0.94267975  0.51637917  0.83926909  1  1.368305  0  0.176399  0.30218  0  4.078666  0
C  C189  1  0.44268726  0.01637865  0.66073360  1  1.368407  0  0.17627  0.302087  0  4.078684  0
C  C190  1  0.55731837  0.51638356  0.33925884  1  1.368965  0  0.176399  0.302289  0  4.079169  0
C  C191  1  0.05732510  0.01637100  0.16073627  1  1.368619  0  0.176307  0.30231  0  4.079095  0
C  C192  1  0.78020915  0.50111475  0.78499526  1  0.213201  0  -0.134434  -0.281943  0  3.915508  0
C  C193  1  0.28021108  0.00110623  0.71500693  1  0.213183  0  -0.134505  -0.282117  0  3.915688  0
C  C194  1  0.71980009  0.50110001  0.28498852  1  0.213141  0  -0.134365  -0.281764  0  3.91563  0
C  C195  1  0.21979967  0.00109349  0.21500665  1  0.213388  0  -0.134395  -0.281918  0  3.915996  0
C  C196  1  0.81831648  0.63970293  0.84059983  1  0.264246  0  -0.128328  -0.261695  0  3.881964  0
C  C197  1  0.31831148  0.13968435  0.65939746  1  0.264636  0  -0.128426  -0.261762  0  3.882288  0
C  C198  1  0.68168824  0.63970098  0.34060146  1  0.263938  0  -0.12845  -0.261762  0  3.882307  0
C  C199  1  0.18168481  0.13969711  0.15939522  1  0.263931  0  -0.128387  -0.261648  0  3.882182  0
C  C200  1  0.13170289  0.70832739  0.90074228  1  1.370436  0  0.174548  0.310617  0  4.086316  0
C  C201  1  0.63172452  0.20833291  0.59926327  1  1.370762  0  0.174732  0.310669  0  4.086112  0
C  C202  1  0.36828201  0.70833833  0.40073395  1  1.370648  0  0.174791  0.310807  0  4.085769  0
C  C203  1  0.86828641  0.20833183  0.09926356  1  1.370617  0  0.174686  0.310562  0  4.086332  0
C  C204  1  0.04347888  0.85176458  0.89209326  1  0.252396  0  -0.129794  -0.279121  0  3.911001  0
C  C205  1  0.54348705  0.35176877  0.60791534  1  0.252624  0  -0.129881  -0.279519  0  3.91119  0
C  C206  1  0.45650801  0.85176862  0.39208622  1  0.252322  0  -0.129879  -0.279397  0  3.9112  0
C  C207  1  0.95652010  0.35176345  0.10790744  1  0.25263  0  -0.129856  -0.279235  0  3.910933  0
C  C208  1  0.18374414  0.80619852  0.82252895  1  0.224657  0  -0.135695  -0.271059  0  3.881136  0
C  C209  1  0.68375275  0.30621344  0.67747637  1  0.227209  0  -0.135865  -0.271584  0  3.881466  0
C  C210  1  0.31625421  0.80621829  0.32251872  1  0.227766  0  -0.135825  -0.271567  0  3.881388  0
C  C211  1  0.81625108  0.30620914  0.17747432  1  0.22668  0  -0.135802  -0.271409  0  3.881195  0
N  N212  1  0.97708650  0.15896337  0.82829094  1  -1.164015  0  -0.343134  -0.102143  0  3.78416  0
N  N213  1  0.47709365  0.65897446  0.67171075  1  -1.163933  0  -0.343142  -0.102107  0  3.784156  0
N  N214  1  0.52291070  0.15897988  0.32829163  1  -1.164539  0  -0.343208  -0.102071  0  3.784292  0
N  N215  1  0.02291002  0.65896288  0.17171316  1  -1.1639  0  -0.343095  -0.102091  0  3.783953  0
N  N216  1  0.97795844  0.14220054  0.65535161  1  -1.174682  0  -0.343745  -0.096779  0  3.770848  0
N  N217  1  0.47797217  0.64219967  0.84465439  1  -1.174937  0  -0.343666  -0.096701  0  3.770725  0
N  N218  1  0.52203615  0.14218763  0.15535186  1  -1.175543  0  -0.343704  -0.096864  0  3.770894  0
N  N219  1  0.02203971  0.64220147  0.34465249  1  -1.175131  0  -0.343675  -0.096551  0  3.770797  0
N  N220  1  0.18837206  0.47188657  0.72102103  1  -1.204826  0  -0.276945  0.033695  0  3.7252  0
N  N221  1  0.68837962  0.97187503  0.77897914  1  -1.205378  0  -0.277056  0.033777  0  3.724876  0
N  N222  1  0.31161737  0.47187560  0.22101427  1  -1.205498  0  -0.276984  0.033768  0  3.724788  0
N  N223  1  0.81161789  0.97188010  0.27898358  1  -1.205327  0  -0.277003  0.033652  0  3.724991  0
N  N224  1  0.85103817  0.55083815  0.82232055  1  -1.202051  0  -0.277928  0.032995  0  3.712654  0
N  N225  1  0.35103758  0.05082359  0.67767312  1  -1.20224  0  -0.277792  0.032978  0  3.713013  0
N  N226  1  0.64898202  0.55083294  0.32231889  1  -1.202373  0  -0.277907  0.032573  0  3.713239  0
N  N227  1  0.14898221  0.05082774  0.17767793  1  -1.202049  0  -0.277873  0.032624  0  3.713218  0
N  N228  1  0.11992613  0.78572746  0.87297746  1  -1.203973  0  -0.275777  0.036985  0  3.706396  0
N  N229  1  0.61994026  0.28573701  0.62702731  1  -1.204711  0  -0.27571  0.037259  0  3.706259  0
N  N230  1  0.38005973  0.78573905  0.37296950  1  -1.204992  0  -0.275698  0.037253  0  3.706421  0
N  N231  1  0.88006760  0.28572854  0.12702452  1  -1.204518  0  -0.275595  0.03725  0  3.706265  0
Cl  Cl232  1  0.94097754  0.30178677  0.73467009  1  -0.510366  0  -0.280071  -0.411792  0  1.450409  0
Cl  Cl233  1  0.44099648  0.80178252  0.76533396  1  -0.510416  0  -0.280077  -0.411769  0  1.4507  0
Cl  Cl234  1  0.55901755  0.30177978  0.23466371  1  -0.510331  0  -0.280104  -0.41182  0  1.450669  0
Cl  Cl235  1  0.05902004  0.80178155  0.26533103  1  -0.510316  0  -0.280061  -0.411789  0  1.450564  0
Cl  Cl236  1  0.00148268  0.99672660  0.74803656  1  -0.499346  0  -0.29288  -0.40911  0  1.41268  0
Cl  Cl237  1  0.50148148  0.49672685  0.75196496  1  -0.499349  0  -0.292912  -0.409137  0  1.412644  0
Cl  Cl238  1  0.49851621  0.99672585  0.24803707  1  -0.499423  0  -0.292885  -0.409117  0  1.412659  0
Cl  Cl239  1  0.99851344  0.49672677  0.25197235  1  -0.499413  0  -0.292904  -0.409115  0  1.412789  0
O  O240  1  0.10476640  0.38462913  0.89817880  1  -1.173061  0  -0.305312  -0.548723  0  2.361243  0
O  O241  1  0.60477371  0.88463222  0.60182391  1  -1.17279  0  -0.305205  -0.548568  0  2.361297  0
O  O242  1  0.39523533  0.38462797  0.39817766  1  -1.172989  0  -0.305289  -0.548756  0  2.361518  0
O  O243  1  0.89523168  0.88461234  0.10181890  1  -1.17291  0  -0.305097  -0.548478  0  2.36154  0
O  O244  1  0.13192444  0.31481355  0.98431288  1  -1.170022  0  -0.313384  -0.550975  0  2.330684  0
O  O245  1  0.63193471  0.81482529  0.51568581  1  -1.170568  0  -0.313396  -0.550975  0  2.330556  0
O  O246  1  0.36806517  0.31482717  0.48431532  1  -1.170543  0  -0.3134  -0.551074  0  2.330227  0
O  O247  1  0.86806448  0.81479880  0.01568609  1  -1.169916  0  -0.313407  -0.550987  0  2.330538  0
O  O248  1  0.90397802  0.04913134  0.01599128  1  -1.167544  0  -0.309119  -0.565908  0  2.345044  0
O  O249  1  0.40396757  0.54914591  0.48400601  1  -1.168018  0  -0.309015  -0.565671  0  2.345708  0
O  O250  1  0.59602621  0.04914589  0.51598729  1  -1.16765  0  -0.309066  -0.565756  0  2.345395  0
O  O251  1  0.09602124  0.54912703  0.98401280  1  -1.167388  0  -0.30903  -0.56563  0  2.345272  0
O  O252  1  0.83872262  0.97646435  0.93742042  1  -1.169905  0  -0.310423  -0.544842  0  2.334655  0
O  O253  1  0.33870511  0.47648050  0.56257083  1  -1.169673  0  -0.310571  -0.544898  0  2.334146  0
O  O254  1  0.66128795  0.97647583  0.43742387  1  -1.169884  0  -0.310559  -0.544934  0  2.33448  0
O  O255  1  0.16128688  0.47645787  0.06257643  1  -1.16986  0  -0.310575  -0.544954  0  2.334255  0
O  O256  1  0.79414138  0.96983582  0.55517557  1  -1.173746  0  -0.319357  -0.584069  0  2.424191  0
O  O257  1  0.29413802  0.46983342  0.94483226  1  -1.173574  0  -0.31937  -0.584129  0  2.423966  0
O  O258  1  0.70585976  0.96982111  0.05517105  1  -1.173666  0  -0.319507  -0.584243  0  2.423815  0
O  O259  1  0.20586031  0.46982740  0.44481870  1  -1.172581  0  -0.319511  -0.584237  0  2.42407  0
O  O260  1  0.89354926  0.99878315  0.47841873  1  -1.14471  0  -0.300896  -0.512918  0  2.107651  0
O  O261  1  0.39354415  0.49878724  0.02158259  1  -1.14466  0  -0.300852  -0.51278  0  2.107892  0
O  O262  1  0.60646370  0.99878697  0.97841771  1  -1.144912  0  -0.300805  -0.512694  0  2.108183  0
O  O263  1  0.10646173  0.49878705  0.52157640  1  -1.144588  0  -0.300629  -0.512572  0  2.108125  0
O  O264  1  0.12203908  0.27951625  0.48751211  1  -1.165964  0  -0.325004  -0.534704  0  2.079084  0
O  O265  1  0.62206741  0.77950124  0.01249265  1  -1.166013  0  -0.32496  -0.534564  0  2.079172  0
O  O266  1  0.37796078  0.27952072  0.98751364  1  -1.165664  0  -0.325137  -0.53498  0  2.078811  0
O  O267  1  0.87794527  0.77952176  0.51248642  1  -1.165854  0  -0.324946  -0.53467  0  2.079083  0
O  O268  1  0.18515297  0.31229636  0.57534694  1  -1.153227  0  -0.334195  -0.562079  0  2.22713  0
O  O269  1  0.68516443  0.81229292  0.92465536  1  -1.153316  0  -0.334081  -0.562006  0  2.227522  0
O  O270  1  0.31484408  0.31229942  0.07534921  1  -1.152942  0  -0.334158  -0.562075  0  2.227524  0
O  O271  1  0.81483832  0.81230266  0.42464945  1  -1.152204  0  -0.334143  -0.562033  0  2.227402  0
O  O272  1  0.21704464  0.48489553  0.81791348  1  -1.155708  0  -0.295181  -0.453104  0  2.400052  0
O  O273  1  0.71706082  0.98490200  0.68208870  1  -1.155892  0  -0.29507  -0.452934  0  2.399958  0
O  O274  1  0.28295022  0.48490068  0.31790514  1  -1.155488  0  -0.295037  -0.452922  0  2.399971  0
O  O275  1  0.78295857  0.98489512  0.18209242  1  -1.155932  0  -0.295008  -0.452792  0  2.400563  0
O  O276  1  0.00718379  0.55769838  0.87016741  1  -1.174394  0  -0.300675  -0.473568  0  2.407176  0
O  O277  1  0.50718770  0.05768854  0.62982967  1  -1.174346  0  -0.300535  -0.473389  0  2.407108  0
O  O278  1  0.49281622  0.55768962  0.37016364  1  -1.174238  0  -0.300642  -0.473473  0  2.407401  0
O  O279  1  0.99282091  0.05766842  0.12983322  1  -1.174287  0  -0.300534  -0.473404  0  2.407548  0
O  O280  1  0.19753417  0.64942688  0.88691201  1  -1.162503  0  -0.30436  -0.475154  0  2.38024  0
O  O281  1  0.69754618  0.14943040  0.61310397  1  -1.162601  0  -0.30431  -0.475037  0  2.38035  0
O  O282  1  0.30244881  0.64943064  0.38689022  1  -1.162518  0  -0.304452  -0.475305  0  2.379961  0
O  O283  1  0.80246316  0.14942012  0.11310544  1  -1.162384  0  -0.304458  -0.475218  0  2.380154  0
