# generated using pymatgen
data_ZnH16C24N2O5
_symmetry_space_group_name_H-M   'P 1'
_cell_length_a   10.35560968
_cell_length_b   15.31820063
_cell_length_c   27.43613727
_cell_angle_alpha   78.66880822
_cell_angle_beta   79.11095143
_cell_angle_gamma   70.24722868
_symmetry_Int_Tables_number   1
_chemical_formula_structural   ZnH16C24N2O5
_chemical_formula_sum   'Zn4 H64 C96 N8 O20'
_cell_volume   3980.70393160
_cell_formula_units_Z   4
loop_
 _symmetry_equiv_pos_site_id
 _symmetry_equiv_pos_as_xyz
  1  'x, y, z'
loop_
 _atom_site_type_symbol
 _atom_site_label
 _atom_site_symmetry_multiplicity
 _atom_site_fract_x
 _atom_site_fract_y
 _atom_site_fract_z
 _atom_site_occupancy
 _atom_site_pbe_bader_charge
 _atom_site_pbe_bader_spin_density
 _atom_site_pbe_cm5_charge
 _atom_site_pbe_ddec_charge
 _atom_site_pbe_ddec_spin_density
 _atom_site_pbe_ddec_sum_bond_order
 _atom_site_pbe_magmom
Zn  Zn0  1  0.84658666  0.27054606  0.52100519  1  1.274624  0  0.670652  0.805969  0  2.228057  0
Zn  Zn1  1  0.63869006  0.22923312  0.97892113  1  1.276372  0  0.670361  0.805526  0  2.227302  0
Zn  Zn2  1  0.15341019  0.72945542  0.47899472  1  1.274626  0  0.670653  0.805977  0  2.227984  0
Zn  Zn3  1  0.36130944  0.77076908  0.02107959  1  1.276365  0  0.670374  0.805531  0  2.227317  0
H  H4  1  0.84082006  0.33551230  0.07490419  1  0.083175  0  0.112869  0.128227  0  1.003863  0
H  H5  1  0.25099194  0.16498780  0.42505755  1  0.086638  0  0.113157  0.12937  0  1.004214  0
H  H6  1  0.15918728  0.66448778  0.92509546  1  0.083084  0  0.112854  0.128212  0  1.003916  0
H  H7  1  0.74900483  0.83500947  0.57494101  1  0.086463  0  0.113182  0.129379  0  1.004207  0
H  H8  1  0.69055896  0.46465131  0.20969465  1  0.053879  0  0.103619  0.10802  0  1.027264  0
H  H9  1  0.36437317  0.03574881  0.29028240  1  0.059818  0  0.103616  0.108298  0  1.0278  0
H  H10  1  0.30943459  0.53534668  0.79030625  1  0.053915  0  0.103638  0.108018  0  1.02727  0
H  H11  1  0.63563017  0.96424706  0.70971656  1  0.059909  0  0.103625  0.108317  0  1.027761  0
H  H12  1  0.97903659  0.04308227  0.03313306  1  0.144848  0  0.10219  0.114186  0  1.04176  0
H  H13  1  0.05483094  0.45734911  0.46680199  1  0.13381  0  0.102387  0.115322  0  1.040543  0
H  H14  1  0.02095829  0.95691712  0.96686796  1  0.144775  0  0.10221  0.114207  0  1.041816  0
H  H15  1  0.94516227  0.54265167  0.53319717  1  0.133867  0  0.102386  0.115299  0  1.0406  0
H  H16  1  0.85169182  0.19099584  0.06728082  1  0.099708  0  0.099737  0.109332  0  1.039297  0
H  H17  1  0.10932518  0.30958497  0.43250579  1  0.122278  0  0.099298  0.108648  0  1.041066  0
H  H18  1  0.14830735  0.80900496  0.93272117  1  0.099657  0  0.099777  0.10935  0  1.03926  0
H  H19  1  0.89067719  0.69041091  0.56749397  1  0.122281  0  0.099296  0.108631  0  1.041012  0
H  H20  1  0.14062643  0.12208481  0.17339884  1  0.073757  0  0.096502  0.091415  0  1.047471  0
H  H21  1  0.43610119  0.37828070  0.32660383  1  0.083604  0  0.096754  0.09163  0  1.047474  0
H  H22  1  0.85938156  0.87791807  0.82659935  1  0.073608  0  0.096543  0.091444  0  1.047483  0
H  H23  1  0.56389564  0.62172078  0.67339571  1  0.0836  0  0.096774  0.091645  0  1.047415  0
H  H24  1  0.04435141  0.19138042  0.36078808  1  0.108183  0  0.094515  0.092435  0  1.062465  0
H  H25  1  0.59654266  0.30883397  0.13916163  1  0.098379  0  0.094665  0.093065  0  1.062545  0
H  H26  1  0.95565564  0.80862457  0.63921176  1  0.108269  0  0.094494  0.092388  0  1.062602  0
H  H27  1  0.40346336  0.69116471  0.86083864  1  0.098422  0  0.094683  0.093122  0  1.062564  0
H  H28  1  0.63309849  0.41324561  0.28646065  1  0.066752  0  0.098522  0.09607  0  1.019124  0
H  H29  1  0.33256288  0.08707695  0.21348008  1  0.04872  0  0.099037  0.096692  0  1.019416  0
H  H30  1  0.36690458  0.58675098  0.71354117  1  0.066648  0  0.098588  0.096254  0  1.019199  0
H  H31  1  0.66743688  0.91292242  0.78651875  1  0.048724  0  0.09902  0.096679  0  1.019444  0
H  H32  1  0.63932823  0.39208950  0.37834571  1  0.085591  0  0.106919  0.113626  0  1.008329  0
H  H33  1  0.40959703  0.10819433  0.12157806  1  0.113815  0  0.107073  0.113985  0  1.008416  0
H  H34  1  0.36067259  0.60790991  0.62165704  1  0.085617  0  0.10691  0.1136  0  1.008366  0
H  H35  1  0.59039557  0.89181205  0.87842051  1  0.113824  0  0.107077  0.113983  0  1.008391  0
H  H36  1  0.03893283  0.21093918  0.26842103  1  0.08319  0  0.099919  0.100449  0  1.024017  0
H  H37  1  0.51799042  0.28941677  0.23151232  1  0.084753  0  0.099644  0.100131  0  1.024061  0
H  H38  1  0.96107092  0.78906231  0.73157945  1  0.083379  0  0.099921  0.100489  0  1.024002  0
H  H39  1  0.48201329  0.71057841  0.76848924  1  0.084752  0  0.099643  0.100159  0  1.024005  0
H  H40  1  0.27403696  0.97302033  0.13718802  1  0.08667  0  0.101433  0.104538  0  1.003232  0
H  H41  1  0.38438883  0.52723837  0.36288370  1  0.073705  0  0.101863  0.105175  0  1.003715  0
H  H42  1  0.72597300  0.02698465  0.86280905  1  0.087034  0  0.101402  0.104514  0  1.003232  0
H  H43  1  0.61561094  0.47275891  0.63711646  1  0.073643  0  0.101864  0.105128  0  1.003738  0
H  H44  1  0.06557224  0.27323695  0.54155236  1  0.633946  0  0.301849  0.390961  0  0.928371  0
H  H45  1  0.88103940  0.22662856  0.95833039  1  0.636064  0  0.302341  0.391339  0  0.927553  0
H  H46  1  0.93442583  0.72675961  0.45844510  1  0.633858  0  0.301809  0.390932  0  0.928408  0
H  H47  1  0.11896304  0.77337362  0.04166975  1  0.635973  0  0.302325  0.391313  0  0.927577  0
H  H48  1  0.08432719  0.18233020  0.58035759  1  0.584764  0  0.322176  0.396086  0  0.886276  0
H  H49  1  0.84726849  0.31754346  0.91955673  1  0.586222  0  0.321982  0.396036  0  0.885928  0
H  H50  1  0.91567294  0.81767058  0.41964251  1  0.584758  0  0.322147  0.39605  0  0.886364  0
H  H51  1  0.15273162  0.68245733  0.08044265  1  0.586237  0  0.321999  0.396066  0  0.885895  0
H  H52  1  0.63574497  0.42294960  0.05548981  1  0.119804  0  0.111815  0.13174  0  1.037912  0
H  H53  1  0.11391901  0.07742870  0.44451946  1  0.134052  0  0.111851  0.131836  0  1.038365  0
H  H54  1  0.36425809  0.57705118  0.94450899  1  0.119758  0  0.111817  0.131739  0  1.037979  0
H  H55  1  0.88607159  0.92257558  0.55547841  1  0.134142  0  0.111849  0.131801  0  1.038366  0
H  H56  1  0.48511033  0.57051012  0.01012682  1  0.080856  0  0.120441  0.089276  0  1.018841  0
H  H57  1  0.06572487  0.92979503  0.48997782  1  0.114593  0  0.120233  0.089098  0  1.018745  0
H  H58  1  0.51488552  0.42948717  0.98987436  1  0.080747  0  0.120431  0.089301  0  1.018793  0
H  H59  1  0.93426473  0.07020924  0.51001976  1  0.114693  0  0.120202  0.089084  0  1.018681  0
H  H60  1  0.51050619  0.73280679  0.10907789  1  0.139805  0  0.128235  0.111047  0  0.984291  0
H  H61  1  0.35276965  0.76748110  0.39108899  1  0.153416  0  0.128004  0.111036  0  0.984556  0
H  H62  1  0.48948804  0.26719610  0.89092169  1  0.139839  0  0.128245  0.11105  0  0.98437  0
H  H63  1  0.64722064  0.23251759  0.60891281  1  0.153303  0  0.128016  0.111014  0  0.984542  0
H  H64  1  0.67157603  0.59534743  0.15658808  1  0.095017  0  0.113374  0.119742  0  0.991886  0
H  H65  1  0.42350696  0.90499223  0.34346662  1  0.093514  0  0.113721  0.1206  0  0.991236  0
H  H66  1  0.32842180  0.40465405  0.84341175  1  0.094983  0  0.113387  0.119791  0  0.991875  0
H  H67  1  0.57649411  0.09500225  0.65653413  1  0.093509  0  0.113721  0.120647  0  0.991209  0
C  C68  1  0.66799338  0.49682380  0.10996658  1  -0.054265  0  0.020275  0.121136  0  3.958003  0
C  C69  1  0.27456330  0.00354482  0.39005002  1  -0.033842  0  0.021011  0.123203  0  3.956202  0
C  C70  1  0.33200184  0.50317700  0.89003461  1  -0.054284  0  0.020258  0.121117  0  3.958059  0
C  C71  1  0.72543418  0.99645316  0.60995023  1  -0.03357  0  0.021017  0.123227  0  3.956288  0
C  C72  1  0.75527988  0.41219841  0.13832646  1  -0.043285  0  0.001901  0.095477  0  4.024596  0
C  C73  1  0.30543151  0.08822081  0.36164870  1  -0.013143  0  0.001891  0.09617  0  4.023401  0
C  C74  1  0.24472188  0.58780097  0.86167404  1  -0.043228  0  0.001882  0.09539  0  4.024624  0
C  C75  1  0.69456725  0.91177646  0.63835080  1  -0.013028  0  0.001858  0.096063  0  4.023487  0
C  C76  1  0.91151317  0.25341859  0.14414052  1  0.543036  0  0.127817  0.2243  0  4.007399  0
C  C77  1  0.30879597  0.24700492  0.35579165  1  0.509003  0  0.12821  0.225213  0  4.006473  0
C  C78  1  0.08848731  0.74658570  0.85585916  1  0.543195  0  0.127777  0.224183  0  4.007476  0
C  C79  1  0.69120674  0.75299026  0.64420889  1  0.508927  0  0.128205  0.225222  0  4.006472  0
C  C80  1  0.83513178  0.32400690  0.21631495  1  0.541295  0  0.122406  0.217494  0  4.027706  0
C  C81  1  0.37509451  0.17638476  0.28362442  1  0.563288  0  0.123013  0.21909  0  4.023859  0
C  C82  1  0.16486933  0.67599388  0.78368508  1  0.541433  0  0.122409  0.217537  0  4.027665  0
C  C83  1  0.62490590  0.82361321  0.71637489  1  0.563287  0  0.123082  0.219157  0  4.023846  0
C  C84  1  0.83620699  0.33420162  0.11501634  1  -0.02175  0  -0.077225  -0.209237  0  3.886469  0
C  C85  1  0.28510462  0.16624337  0.38494634  1  -0.043119  0  -0.077785  -0.211815  0  3.888008  0
C  C86  1  0.16379513  0.66580127  0.88498374  1  -0.021674  0  -0.077223  -0.209151  0  3.886265  0
C  C87  1  0.71489350  0.83375321  0.61505366  1  -0.042929  0  -0.077846  -0.211884  0  3.887816  0
C  C88  1  0.98992852  0.16667572  0.12218427  1  -0.024598  0  -0.00306  0.045539  0  3.978491  0
C  C89  1  0.27854908  0.33374515  0.37774336  1  -0.011689  0  -0.004272  0.04291  0  3.979488  0
C  C90  1  0.01007259  0.83332507  0.87781612  1  -0.024597  0  -0.003044  0.045534  0  3.978603  0
C  C91  1  0.72144906  0.66625144  0.62225773  1  -0.01166  0  -0.004303  0.042868  0  3.979692  0
C  C92  1  0.83695298  0.31403462  0.27101493  1  -0.048217  0  -0.004103  0.045724  0  3.981693  0
C  C93  1  0.42169438  0.18632987  0.22892097  1  -0.030846  0  -0.003187  0.045549  0  3.981482  0
C  C94  1  0.16305076  0.68596686  0.72898518  1  -0.047992  0  -0.003997  0.045861  0  3.981787  0
C  C95  1  0.57830537  0.81366740  0.77107846  1  -0.031014  0  -0.003242  0.0456  0  3.981387  0
C  C96  1  0.75440117  0.40626017  0.18997323  1  -0.015303  0  -0.087532  -0.222287  0  3.916694  0
C  C97  1  0.35016607  0.09414781  0.30999197  1  -0.050149  0  -0.0873  -0.222848  0  3.915979  0
C  C98  1  0.24560094  0.59374062  0.81002745  1  -0.015348  0  -0.087532  -0.222246  0  3.916752  0
C  C99  1  0.64983269  0.90584946  0.69000717  1  -0.050098  0  -0.0873  -0.222841  0  3.915998  0
C  C100  1  0.84554993  0.27880235  0.43002552  1  1.506766  0  0.195235  0.554071  0  4.195849  0
C  C101  1  0.55451773  0.22141456  0.06989708  1  1.495966  0  0.19375  0.552251  0  4.19738  0
C  C102  1  0.15445449  0.72119985  0.56997519  1  1.506775  0  0.195143  0.553944  0  4.19614  0
C  C103  1  0.44548242  0.77858833  0.93010315  1  1.495921  0  0.1937  0.552144  0  4.197325  0
C  C104  1  0.84239614  0.29058709  0.37508211  1  0.012439  0  -0.017143  -0.027644  0  3.976462  0
C  C105  1  0.50791114  0.20973546  0.12483972  1  0.021491  0  -0.016127  -0.025249  0  3.973977  0
C  C106  1  0.15761058  0.70941441  0.62491888  1  0.012871  0  -0.017139  -0.027619  0  3.976389  0
C  C107  1  0.49208834  0.79026463  0.87516124  1  0.021739  0  -0.016184  -0.025297  0  3.974134  0
C  C108  1  0.01614195  0.06043591  0.06341919  1  -0.016697  0  -0.081418  -0.080917  0  3.947534  0
C  C109  1  0.13965140  0.43996997  0.43652713  1  0.012022  0  -0.081912  -0.083374  0  3.949232  0
C  C110  1  0.98385917  0.93956278  0.93658217  1  -0.016951  0  -0.081463  -0.080904  0  3.947632  0
C  C111  1  0.86034409  0.56003011  0.56347121  1  0.011932  0  -0.081885  -0.083296  0  3.949135  0
C  C112  1  0.94519584  0.14419191  0.08239313  1  -0.043834  0  -0.089286  -0.121264  0  3.943671  0
C  C113  1  0.17133941  0.35630419  0.41748113  1  -0.069165  0  -0.088389  -0.118966  0  3.944652  0
C  C114  1  0.05480526  0.85580677  0.91760750  1  -0.043616  0  -0.089343  -0.121328  0  3.943694  0
C  C115  1  0.82865905  0.64369379  0.58251905  1  -0.069017  0  -0.088398  -0.118963  0  3.94461  0
C  C116  1  0.13488061  0.99871834  0.08317452  1  -0.035792  0  -0.019522  -0.034396  0  3.985941  0
C  C117  1  0.21670751  0.50156368  0.41687284  1  -0.055117  0  -0.01906  -0.033438  0  3.988454  0
C  C118  1  0.86512346  0.00128035  0.91682662  1  -0.035704  0  -0.019479  -0.034445  0  3.986043  0
C  C119  1  0.78329483  0.49843218  0.58312547  1  -0.055216  0  -0.019087  -0.033598  0  3.988414  0
C  C120  1  0.10769001  0.10388807  0.14239253  1  0.014615  0  -0.088225  -0.118212  0  3.985161  0
C  C121  1  0.35399512  0.39643307  0.35762677  1  -0.067593  0  -0.088324  -0.117338  0  3.984161  0
C  C122  1  0.89231538  0.89611621  0.85760642  1  0.014828  0  -0.088257  -0.118201  0  3.985252  0
C  C123  1  0.64600494  0.60356350  0.64237236  1  -0.06754  0  -0.088325  -0.117321  0  3.984191  0
C  C124  1  0.95473701  0.23950461  0.34399568  1  -0.102764  0  -0.085996  -0.087429  0  3.973425  0
C  C125  1  0.53806603  0.26080941  0.15593692  1  -0.038752  0  -0.08633  -0.089521  0  3.97446  0
C  C126  1  0.04526741  0.76049758  0.65600504  1  -0.103273  0  -0.085932  -0.08726  0  3.973438  0
C  C127  1  0.46194198  0.73918718  0.84406526  1  -0.038621  0  -0.086246  -0.089486  0  3.974553  0
C  C128  1  0.72473975  0.36525694  0.30234213  1  -0.037898  0  -0.092165  -0.135093  0  3.992096  0
C  C129  1  0.39215861  0.13504113  0.19759089  1  -0.087726  0  -0.093025  -0.135548  0  3.991212  0
C  C130  1  0.27526596  0.63474035  0.69765977  1  -0.038183  0  -0.092282  -0.135404  0  3.99234  0
C  C131  1  0.60783824  0.86496036  0.80240901  1  -0.087508  0  -0.093066  -0.135646  0  3.991156  0
C  C132  1  0.72688856  0.35360488  0.35380212  1  -0.027547  0  -0.080158  -0.083047  0  3.964091  0
C  C133  1  0.43412119  0.14670226  0.14611637  1  -0.039593  0  -0.081126  -0.08516  0  3.96373  0
C  C134  1  0.27311519  0.64639661  0.64619836  1  -0.027549  0  -0.080133  -0.082963  0  3.964079  0
C  C135  1  0.56588122  0.85329782  0.85388364  1  -0.039684  0  -0.081168  -0.08518  0  3.963664  0
C  C136  1  0.95205679  0.25075645  0.29266792  1  0.001681  0  -0.086509  -0.111341  0  3.96376  0
C  C137  1  0.49519850  0.24961000  0.20725643  1  -0.031811  0  -0.086768  -0.110204  0  3.964458  0
C  C138  1  0.04794597  0.74924294  0.70733288  1  0.001538  0  -0.086614  -0.111581  0  3.964015  0
C  C139  1  0.50480486  0.75038587  0.79274362  1  -0.032145  0  -0.086686  -0.110212  0  3.964344  0
C  C140  1  0.18061323  0.02136003  0.12268748  1  -0.099185  0  -0.084098  -0.090625  0  3.980698  0
C  C141  1  0.32468655  0.47892847  0.37737140  1  -0.017598  0  -0.084761  -0.091975  0  3.982076  0
C  C142  1  0.81939476  0.97864285  0.87731107  1  -0.099608  0  -0.084083  -0.090568  0  3.980744  0
C  C143  1  0.67531222  0.52106880  0.62262810  1  -0.017589  0  -0.084671  -0.091787  0  3.982126  0
C  C144  1  0.21314527  0.91048013  0.06209038  1  1.498869  0  0.19948  0.563752  0  4.18954  0
C  C145  1  0.18561806  0.58975879  0.43798763  1  1.511448  0  0.199613  0.564902  0  4.19102  0
C  C146  1  0.78685848  0.08952136  0.93791010  1  1.498807  0  0.199477  0.563818  0  4.189308  0
C  C147  1  0.81438529  0.41023918  0.56201073  1  1.511183  0  0.199696  0.565055  0  4.190849  0
C  C148  1  0.61451237  0.49061999  0.06778368  1  -0.021019  0  -0.076571  -0.17119  0  3.902921  0
C  C149  1  0.17275458  0.00973884  0.43227124  1  -0.003111  0  -0.07644  -0.171695  0  3.90408  0
C  C150  1  0.38548287  0.50938081  0.93221824  1  -0.021985  0  -0.07656  -0.171157  0  3.903024  0
C  C151  1  0.82723865  0.99026404  0.56772768  1  -0.003125  0  -0.076456  -0.171575  0  3.904002  0
C  C152  1  0.52884488  0.57116531  0.04312079  1  0.5216  0  0.051692  0.100152  0  3.940774  0
C  C153  1  0.14312635  0.92913335  0.45698446  1  0.434395  0  0.051157  0.099815  0  3.941877  0
C  C154  1  0.47115100  0.42883619  0.95687991  1  0.52253  0  0.051674  0.100124  0  3.940647  0
C  C155  1  0.85686128  0.07086883  0.54301386  1  0.434096  0  0.051149  0.099699  0  3.94178  0
C  C156  1  0.54360668  0.66280928  0.09849174  1  0.462612  0  0.054195  0.096182  0  3.938514  0
C  C157  1  0.30508064  0.83751156  0.40164290  1  0.492366  0  0.054067  0.096628  0  3.940186  0
C  C158  1  0.45639310  0.33719011  0.90150818  1  0.462704  0  0.054156  0.096182  0  3.938511  0
C  C159  1  0.69491387  0.16248641  0.59835684  1  0.492518  0  0.054087  0.096695  0  3.940221  0
C  C160  1  0.63141883  0.58574791  0.12474747  1  -0.020594  0  -0.078429  -0.172095  0  3.945016  0
C  C161  1  0.34187353  0.91461225  0.37530532  1  -0.068812  0  -0.078737  -0.17405  0  3.945769  0
C  C162  1  0.36857538  0.41425287  0.87525234  1  -0.020557  0  -0.07842  -0.172167  0  3.944793  0
C  C163  1  0.65812724  0.08538504  0.62469586  1  -0.069285  0  -0.078769  -0.174175  0  3.945852  0
N  N164  1  0.91302559  0.24969825  0.19343529  1  -1.190905  0  -0.302944  -0.32699  0  3.260741  0
N  N165  1  0.35587868  0.25069251  0.30649749  1  -1.165639  0  -0.303264  -0.327694  0  3.258341  0
N  N166  1  0.08697848  0.75030254  0.80656488  1  -1.1912  0  -0.302897  -0.326926  0  3.260779  0
N  N167  1  0.64412339  0.74930407  0.69350294  1  -1.165741  0  -0.303318  -0.327737  0  3.258453  0
N  N168  1  0.49273892  0.65562901  0.05826100  1  -1.246562  0  -0.327835  -0.23184  0  3.588718  0
N  N169  1  0.20680878  0.84465324  0.44187474  1  -1.23886  0  -0.327298  -0.231492  0  3.588317  0
N  N170  1  0.50726480  0.34437247  0.94173802  1  -1.246479  0  -0.327797  -0.231817  0  3.588638  0
N  N171  1  0.79317854  0.15534965  0.55812462  1  -1.238568  0  -0.327254  -0.231407  0  3.588224  0
O  O172  1  0.95195133  0.22134990  0.44954314  1  -1.176655  0  -0.327227  -0.564636  0  2.204415  0
O  O173  1  0.62272061  0.27901078  0.05035524  1  -1.171116  0  -0.32602  -0.563231  0  2.203199  0
O  O174  1  0.04805737  0.77865370  0.55045746  1  -1.176545  0  -0.32717  -0.564573  0  2.20447  0
O  O175  1  0.37728347  0.72099001  0.94964566  1  -1.171229  0  -0.326024  -0.563207  0  2.203265  0
O  O176  1  0.74283893  0.32679321  0.45770634  1  -1.150271  0  -0.323526  -0.523033  0  2.151453  0
O  O177  1  0.52801821  0.17308526  0.04226754  1  -1.144643  0  -0.323617  -0.523337  0  2.15399  0
O  O178  1  0.25716216  0.67320337  0.54229489  1  -1.150294  0  -0.323503  -0.522987  0  2.151492  0
O  O179  1  0.47197836  0.82691904  0.95773353  1  -1.144495  0  -0.323583  -0.523266  0  2.153815  0
O  O180  1  0.16755309  0.88770686  0.02743811  1  -1.17446  0  -0.320458  -0.558717  0  2.205264  0
O  O181  1  0.08256076  0.61250044  0.47263359  1  -1.181115  0  -0.319542  -0.557775  0  2.206627  0
O  O182  1  0.83244579  0.11229465  0.97256492  1  -1.174468  0  -0.320434  -0.558718  0  2.20504  0
O  O183  1  0.91744163  0.38749964  0.52736497  1  -1.18121  0  -0.319589  -0.557832  0  2.206591  0
O  O184  1  0.32670934  0.85765839  0.07788960  1  -1.170521  0  -0.33018  -0.55736  0  2.186924  0
O  O185  1  0.26214377  0.64261994  0.42221130  1  -1.172875  0  -0.33125  -0.559802  0  2.187872  0
O  O186  1  0.67329406  0.14234169  0.92211034  1  -1.170411  0  -0.33021  -0.557428  0  2.186936  0
O  O187  1  0.73786450  0.35737593  0.57778802  1  -1.172574  0  -0.33125  -0.559808  0  2.187802  0
O  O188  1  0.07822979  0.20564181  0.54496376  1  -1.197489  0  -0.574395  -0.73954  0  1.961647  0
O  O189  1  0.82935162  0.29417430  0.95495792  1  -1.201369  0  -0.573927  -0.739074  0  1.961226  0
O  O190  1  0.92176078  0.79435617  0.45503627  1  -1.197404  0  -0.574338  -0.73948  0  1.961729  0
O  O191  1  0.17064818  0.70582719  0.04504213  1  -1.201273  0  -0.573928  -0.739075  0  1.961219  0
