# generated using pymatgen
data_CdH20C25N3ClO4
_symmetry_space_group_name_H-M   'P 1'
_cell_length_a   9.90788380
_cell_length_b   10.97958628
_cell_length_c   11.65789988
_cell_angle_alpha   113.67540605
_cell_angle_beta   97.85071417
_cell_angle_gamma   92.49415119
_symmetry_Int_Tables_number   1
_chemical_formula_structural   CdH20C25N3ClO4
_chemical_formula_sum   'Cd2 H40 C50 N6 Cl2 O8'
_cell_volume   1143.79176000
_cell_formula_units_Z   2
loop_
 _symmetry_equiv_pos_site_id
 _symmetry_equiv_pos_as_xyz
  1  'x, y, z'
loop_
 _atom_site_type_symbol
 _atom_site_label
 _atom_site_symmetry_multiplicity
 _atom_site_fract_x
 _atom_site_fract_y
 _atom_site_fract_z
 _atom_site_occupancy
 _atom_site_hle17_bader_spin_density
 _atom_site_hle17_ddec_charge
 _atom_site_hle17_ddec_spin_density
 _atom_site_hle17_ddec_sum_bond_order
 _atom_site_hle17_magmom
 _atom_site_hse06_10hf_bader_spin_density
 _atom_site_hse06_10hf_ddec_charge
 _atom_site_hse06_10hf_ddec_spin_density
 _atom_site_hse06_10hf_ddec_sum_bond_order
 _atom_site_hse06_10hf_magmom
 _atom_site_hse06_bader_spin_density
 _atom_site_hse06_ddec_charge
 _atom_site_hse06_ddec_spin_density
 _atom_site_hse06_ddec_sum_bond_order
 _atom_site_hse06_magmom
 _atom_site_pbe_bader_spin_density
 _atom_site_pbe_cm5_charge
 _atom_site_pbe_ddec_charge
 _atom_site_pbe_ddec_spin_density
 _atom_site_pbe_ddec_sum_bond_order
 _atom_site_pbe_magmom
Cd  Cd0  1  0.11696193  0.52646670  0.39832528  1  0  0.991922  0  1.848955  0  0  0.80996  0  2.304181  0  0  0.862217  0  2.26012  0  0  0.671191  0.773079  0  2.333855  0
Cd  Cd1  1  0.88304404  0.47354627  0.60168474  1  0  0.991938  0  1.848946  0  0  0.810003  0  2.304109  0  0  0.862226  0  2.260113  0  0  0.671179  0.773123  0  2.333785  0
H  H2  1  0.32606769  0.80007821  0.25075789  1  0  0.106932  0  0.975776  0  0  0.109993  0  1.047993  0  0  0.114045  0  1.044939  0  0  0.103924  0.106858  0  1.050545  0
H  H3  1  0.67393727  0.19993474  0.74924942  1  0  0.106971  0  0.975791  0  0  0.110014  0  1.04801  0  0  0.114099  0  1.044904  0  0  0.104007  0.106878  0  1.050562  0
H  H4  1  0.33634895  0.95174392  0.14158562  1  0  0.088652  0  0.971088  0  0  0.099753  0  1.03284  0  0  0.101503  0  1.033672  0  0  0.099526  0.098699  0  1.031789  0
H  H5  1  0.66364247  0.04825695  0.85840874  1  0  0.088682  0  0.971018  0  0  0.099782  0  1.03277  0  0  0.101535  0  1.033597  0  0  0.09955  0.098728  0  1.031719  0
H  H6  1  0.16700619  0.12007374  0.16685281  1  0  0.089364  0  0.95467  0  0  0.10032  0  1.016246  0  0  0.102724  0  1.015829  0  0  0.100015  0.098751  0  1.016359  0
H  H7  1  0.83297703  0.87991706  0.83312998  1  0  0.089442  0  0.954724  0  0  0.100337  0  1.016349  0  0  0.102742  0  1.015932  0  0  0.100001  0.098767  0  1.016462  0
H  H8  1  0.99878145  0.14297634  0.31451940  1  0  0.111311  0  0.966202  0  0  0.118365  0  1.032795  0  0  0.121717  0  1.030925  0  0  0.0974  0.115862  0  1.034352  0
H  H9  1  0.00120536  0.85701949  0.68546911  1  0  0.111296  0  0.966238  0  0  0.118353  0  1.032834  0  0  0.121704  0  1.030963  0  0  0.097393  0.115848  0  1.034391  0
H  H10  1  0.97866635  0.28023026  0.13166310  1  0  0.072157  0  0.960902  0  0  0.081198  0  1.026042  0  0  0.08371  0  1.02337  0  0  0.101845  0.079485  0  1.027587  0
H  H11  1  0.02133582  0.71976674  0.86834481  1  0  0.072137  0  0.961055  0  0  0.081199  0  1.026163  0  0  0.0837  0  1.023502  0  0  0.10185  0.079486  0  1.027705  0
H  H12  1  0.97146869  0.20031412  0.89677271  1  0  0.090543  0  1.00937  0  0  0.099915  0  1.071873  0  0  0.100663  0  1.075687  0  0  0.097624  0.099311  0  1.069286  0
H  H13  1  0.02853546  0.79967290  0.10323429  1  0  0.090458  0  1.009492  0  0  0.099845  0  1.071996  0  0  0.100572  0  1.075833  0  0  0.097578  0.099261  0  1.069391  0
H  H14  1  0.11896457  0.32696277  0.81573737  1  0  0.115243  0  0.955575  0  0  0.126627  0  1.013028  0  0  0.129961  0  1.010626  0  0  0.10769  0.124109  0  1.014897  0
H  H15  1  0.88103459  0.67302522  0.18426683  1  0  0.115261  0  0.955526  0  0  0.126715  0  1.01289  0  0  0.130048  0  1.010489  0  0  0.107723  0.124195  0  1.01476  0
H  H16  1  0.28326048  0.58477273  0.20702003  1  0  0.090216  0  0.970242  0  0  0.093232  0  1.0434  0  0  0.096719  0  1.039542  0  0  0.115377  0.090656  0  1.046266  0
H  H17  1  0.71674080  0.41522522  0.79298213  1  0  0.090224  0  0.970265  0  0  0.093225  0  1.043409  0  0  0.096714  0  1.039548  0  0  0.115358  0.090649  0  1.046275  0
H  H18  1  0.34854461  0.48132085  0.87900098  1  0  0.078749  0  0.924951  0  0  0.087238  0  0.99362  0  0  0.088826  0  0.991191  0  0  0.107615  0.085857  0  0.995564  0
H  H19  1  0.65145510  0.51867210  0.12099998  1  0  0.078767  0  0.924918  0  0  0.087224  0  0.993629  0  0  0.08885  0  0.991162  0  0  0.107617  0.085856  0  0.995566  0
H  H20  1  0.24921755  0.61845493  0.93720787  1  0  0.060757  0  0.927005  0  0  0.07477  0  0.993576  0  0  0.074108  0  0.993894  0  0  0.103062  0.075558  0  0.992473  0
H  H21  1  0.75077572  0.38153498  0.06278778  1  0  0.060698  0  0.927032  0  0  0.074771  0  0.993548  0  0  0.074108  0  0.993871  0  0  0.103067  0.075567  0  0.992445  0
H  H22  1  0.42794815  0.69225895  0.87145967  1  0  0.102617  0  0.966364  0  0  0.113403  0  1.029048  0  0  0.116694  0  1.026839  0  0  0.100525  0.110815  0  1.031261  0
H  H23  1  0.57204462  0.30774493  0.12853769  1  0  0.102639  0  0.966378  0  0  0.113412  0  1.029072  0  0  0.116703  0  1.026868  0  0  0.100559  0.110824  0  1.031287  0
H  H24  1  0.58522466  0.88192203  0.88788933  1  0  0.078039  0  0.986325  0  0  0.0884  0  1.05211  0  0  0.090561  0  1.052042  0  0  0.091966  0.086742  0  1.052385  0
H  H25  1  0.41477094  0.11807988  0.11210934  1  0  0.07799  0  0.9863  0  0  0.088359  0  1.052085  0  0  0.090526  0  1.052004  0  0  0.091953  0.086702  0  1.052362  0
H  H26  1  0.74344765  0.01813469  0.09170045  1  0  0.086503  0  0.946177  0  0  0.100143  0  1.000781  0  0  0.103261  0  0.999184  0  0  0.094929  0.097703  0  1.002393  0
H  H27  1  0.25656045  0.98186020  0.90829108  1  0  0.086383  0  0.946163  0  0  0.10012  0  1.000673  0  0  0.103196  0  0.999123  0  0  0.094907  0.097677  0  1.002286  0
H  H28  1  0.74611329  0.96046172  0.27689178  1  0  0.109343  0  0.974297  0  0  0.113345  0  1.046867  0  0  0.116905  0  1.044271  0  0  0.101496  0.110876  0  1.048518  0
H  H29  1  0.25389845  0.03952918  0.72309955  1  0  0.109352  0  0.974203  0  0  0.113354  0  1.046785  0  0  0.116913  0  1.04419  0  0  0.101502  0.110878  0  1.048445  0
H  H30  1  0.64520975  0.92929277  0.43331129  1  0  0.06311  0  0.92346  0  0  0.07508  0  0.990228  0  0  0.075151  0  0.989958  0  0  0.102835  0.0751  0  0.9904  0
H  H31  1  0.35479697  0.07070814  0.56668574  1  0  0.063115  0  0.923371  0  0  0.07516  0  0.99008  0  0  0.075231  0  0.98981  0  0  0.102909  0.07518  0  0.990251  0
H  H32  1  0.77830359  0.82586842  0.38098642  1  0  0.07499  0  0.946284  0  0  0.080652  0  1.021526  0  0  0.081553  0  1.020306  0  0  0.105074  0.079919  0  1.022558  0
H  H33  1  0.22169929  0.17412551  0.61901185  1  0  0.07493  0  0.946157  0  0  0.080578  0  1.021457  0  0  0.08148  0  1.020237  0  0  0.105035  0.079845  0  1.022487  0
H  H34  1  0.45769297  0.84410799  0.52828653  1  0  0.108709  0  0.940764  0  0  0.119113  0  1.000582  0  0  0.122484  0  0.997381  0  0  0.10969  0.116593  0  1.002943  0
H  H35  1  0.54230569  0.15589392  0.47171250  1  0  0.108702  0  0.940731  0  0  0.119101  0  1.00056  0  0  0.122471  0  0.997361  0  0  0.109664  0.116583  0  1.002922  0
H  H36  1  0.42152477  0.72192720  0.66366774  1  0  0.110844  0  0.939219  0  0  0.123115  0  0.993608  0  0  0.125673  0  0.993673  0  0  0.108144  0.120619  0  0.9949  0
H  H37  1  0.57847298  0.27807572  0.33633328  1  0  0.110825  0  0.939209  0  0  0.123085  0  0.993618  0  0  0.125642  0  0.993682  0  0  0.10812  0.120591  0  0.99491  0
H  H38  1  0.59506635  0.57023281  0.68877002  1  0  0.080747  0  0.926446  0  0  0.092201  0  0.986121  0  0  0.094246  0  0.984823  0  0  0.117619  0.09068  0  0.987163  0
H  H39  1  0.40493951  0.42977917  0.31124047  1  0  0.08076  0  0.926511  0  0  0.092207  0  0.986188  0  0  0.094258  0  0.984883  0  0  0.117605  0.090685  0  0.987229  0
H  H40  1  0.82339971  0.64930076  0.44848832  1  0  0.08709  0  0.964034  0  0  0.093059  0  1.036038  0  0  0.095568  0  1.033647  0  0  0.109197  0.091207  0  1.03788  0
H  H41  1  0.17659761  0.35069815  0.55151029  1  0  0.087062  0  0.96407  0  0  0.093028  0  1.036076  0  0  0.095535  0  1.033687  0  0  0.109178  0.091173  0  1.03792  0
C  C42  1  0.13810139  0.77017225  0.38296988  1  0  0.633163  0  3.945878  0  0  0.576233  0  4.25164  0  0  0.611699  0  4.243598  0  0  0.189835  0.552198  0  4.255983  0
C  C43  1  0.86190039  0.22983973  0.61704014  1  0  0.633252  0  3.945862  0  0  0.576252  0  4.251704  0  0  0.611735  0  4.243657  0  0  0.189893  0.552216  0  4.256052  0
C  C44  1  0.15806861  0.88347707  0.34343162  1  0  -0.109574  0  3.697617  0  0  -0.089509  0  3.929694  0  0  -0.09621  0  3.949761  0  0  -0.00653  -0.085286  0  3.916484  0
C  C45  1  0.84192969  0.11653083  0.65656874  1  0  -0.109611  0  3.697624  0  0  -0.089428  0  3.929644  0  0  -0.096183  0  3.949787  0  0  -0.006587  -0.085206  0  3.916433  0
C  C46  1  0.25571205  0.87640509  0.26539048  1  0  -0.080715  0  3.722905  0  0  -0.10416  0  3.973843  0  0  -0.104548  0  3.992835  0  0  -0.087509  -0.103755  0  3.961205  0
C  C47  1  0.74428862  0.12360584  0.73461301  1  0  -0.080792  0  3.722809  0  0  -0.104262  0  3.973779  0  0  -0.104655  0  3.992776  0  0  -0.087612  -0.103857  0  3.961141  0
C  C48  1  0.26013730  0.96156256  0.20309243  1  0  -0.072287  0  3.761662  0  0  -0.086476  0  4.012252  0  0  -0.088743  0  4.033776  0  0  -0.090481  -0.084617  0  3.996912  0
C  C49  1  0.73985638  0.03844032  0.79690381  1  0  -0.072202  0  3.76141  0  0  -0.086378  0  4.012  0  0  -0.088647  0  4.033533  0  0  -0.090474  -0.084519  0  3.996657  0
C  C50  1  0.16509156  0.05479961  0.21681552  1  0  -0.064376  0  3.773704  0  0  -0.078494  0  4.021585  0  0  -0.079053  0  4.042168  0  0  -0.090844  -0.077937  0  4.007346  0
C  C51  1  0.83489514  0.94519522  0.78317260  1  0  -0.064561  0  3.773877  0  0  -0.078613  0  4.02173  0  0  -0.079174  0  4.042315  0  0  -0.090825  -0.078055  0  4.007487  0
C  C52  1  0.06996891  0.06687654  0.29766275  1  0  -0.126977  0  3.699927  0  0  -0.144447  0  3.944732  0  0  -0.148257  0  3.965847  0  0  -0.081419  -0.14177  0  3.930334  0
C  C53  1  0.93002547  0.93312333  0.70233073  1  0  -0.126878  0  3.700061  0  0  -0.144335  0  3.944836  0  0  -0.148141  0  3.965945  0  0  -0.081425  -0.141656  0  3.93043  0
C  C54  1  0.06942626  0.98512066  0.36428966  1  0  0.146459  0  3.779156  0  0  0.144597  0  4.029336  0  0  0.146382  0  4.051949  0  0  0.095148  0.143184  0  4.0142  0
C  C55  1  0.93057295  0.01488624  0.63570872  1  0  0.146486  0  3.779142  0  0  0.144526  0  4.029414  0  0  0.146323  0  4.052037  0  0  0.095202  0.143114  0  4.014272  0
C  C56  1  0.04525946  0.32984764  0.09246972  1  0  0.101978  0  3.745385  0  0  0.071979  0  3.99443  0  0  0.077773  0  4.013983  0  0  0.033339  0.068709  0  3.980087  0
C  C57  1  0.95474636  0.67014536  0.90753628  1  0  0.102011  0  3.745351  0  0  0.071982  0  3.994403  0  0  0.077785  0  4.013947  0  0  0.033364  0.068713  0  3.980064  0
C  C58  1  0.04077889  0.28722606  0.96236051  1  0  -0.109973  0  3.75412  0  0  -0.119588  0  4.001854  0  0  -0.126461  0  4.026565  0  0  -0.086868  -0.115047  0  3.984619  0
C  C59  1  0.95922671  0.71276495  0.03764643  1  0  -0.109859  0  3.754228  0  0  -0.119479  0  4.00196  0  0  -0.126333  0  4.02668  0  0  -0.086854  -0.114955  0  3.984712  0
C  C60  1  0.12521911  0.35713356  0.91781864  1  0  -0.042991  0  3.665945  0  0  -0.070488  0  3.911005  0  0  -0.068934  0  3.930744  0  0  -0.064554  -0.071095  0  3.897795  0
C  C61  1  0.87478616  0.64285445  0.08218628  1  0  -0.043055  0  3.665915  0  0  -0.070595  0  3.911006  0  0  -0.069042  0  3.93074  0  0  -0.064623  -0.071201  0  3.8978  0
C  C62  1  0.21474189  0.46653647  0.00556876  1  0  0.024915  0  3.724861  0  0  0.047434  0  3.966737  0  0  0.042296  0  3.991423  0  0  -0.005372  0.050242  0  3.950799  0
C  C63  1  0.78525986  0.53345650  0.99443417  1  0  0.02494  0  3.724669  0  0  0.047416  0  3.966582  0  0  0.042277  0  3.991272  0  0  -0.005326  0.050226  0  3.950652  0
C  C64  1  0.21432478  0.50138319  0.13472074  1  0  0.076902  0  3.672116  0  0  0.034917  0  3.92794  0  0  0.041818  0  3.944881  0  0  0.03877  0.030065  0  3.917117  0
C  C65  1  0.78567526  0.49861276  0.86528052  1  0  0.076758  0  3.672052  0  0  0.034875  0  3.927732  0  0  0.04177  0  3.944677  0  0  0.03874  0.030026  0  3.916908  0
C  C66  1  0.30708661  0.54675512  0.96309180  1  0  0.059935  0  3.63511  0  0  -0.005201  0  3.895267  0  0  0.003581  0  3.900341  0  0  -0.053933  -0.010936  0  3.891619  0
C  C67  1  0.69291263  0.45324281  0.03690839  1  0  0.06001  0  3.63515  0  0  -0.005185  0  3.895354  0  0  0.00357  0  3.900418  0  0  -0.053949  -0.010944  0  3.891722  0
C  C68  1  0.49772068  0.71818181  0.06411514  1  0  0.173394  0  3.809105  0  0  0.157479  0  4.074033  0  0  0.165929  0  4.089972  0  0  0.072029  0.151854  0  4.063213  0
C  C69  1  0.50227718  0.28182210  0.93588540  1  0  0.173275  0  3.809337  0  0  0.157393  0  4.074182  0  0  0.165841  0  4.090125  0  0  0.071989  0.151767  0  4.063361  0
C  C70  1  0.49766025  0.75029122  0.96004911  1  0  -0.200685  0  3.802493  0  0  -0.221975  0  4.059279  0  0  -0.225331  0  4.07826  0  0  -0.117262  -0.220085  0  4.046946  0
C  C71  1  0.50233820  0.24970870  0.03995002  1  0  -0.200649  0  3.802486  0  0  -0.221947  0  4.059264  0  0  -0.225306  0  4.078249  0  0  -0.117259  -0.220057  0  4.046932  0
C  C72  1  0.58711786  0.85788426  0.96997618  1  0  -0.079294  0  3.837043  0  0  -0.097256  0  4.096052  0  0  -0.098444  0  4.118134  0  0  -0.110167  -0.096214  0  4.08146  0
C  C73  1  0.41287732  0.14211362  0.03001837  1  0  -0.079237  0  3.837024  0  0  -0.097207  0  4.096072  0  0  -0.098389  0  4.118137  0  0  -0.110205  -0.096168  0  4.081481  0
C  C74  1  0.67489089  0.93348180  0.08336592  1  0  -0.074748  0  3.820223  0  0  -0.089452  0  4.072022  0  0  -0.090908  0  4.093195  0  0  -0.108808  -0.08879  0  4.057998  0
C  C75  1  0.32511335  0.06651509  0.91662675  1  0  -0.074783  0  3.820227  0  0  -0.089582  0  4.072067  0  0  -0.091003  0  4.093244  0  0  -0.108804  -0.088919  0  4.058041  0
C  C76  1  0.67608955  0.90174360  0.18865440  1  0  -0.194835  0  3.789411  0  0  -0.212627  0  4.040274  0  0  -0.216382  0  4.06089  0  0  -0.114758  -0.20976  0  4.025908  0
C  C77  1  0.32392150  0.09825029  0.81133710  1  0  -0.194679  0  3.78922  0  0  -0.212465  0  4.040058  0  0  -0.216219  0  4.060663  0  0  -0.114733  -0.209589  0  4.025672  0
C  C78  1  0.58911080  0.79354756  0.17902319  1  0  0.159476  0  3.813155  0  0  0.148909  0  4.0739  0  0  0.156086  0  4.090824  0  0  0.068204  0.143737  0  4.062566  0
C  C79  1  0.41089103  0.20645536  0.82097659  1  0  0.159468  0  3.813357  0  0  0.14891  0  4.074069  0  0  0.156086  0  4.090995  0  0  0.068232  0.143744  0  4.062728  0
C  C80  1  0.67030681  0.82513788  0.39375596  1  0  0.049518  0  3.640075  0  0  -0.015152  0  3.904911  0  0  -0.006586  0  3.910231  0  0  -0.061234  -0.021105  0  3.9014  0
C  C81  1  0.32969561  0.17486102  0.60623982  1  0  0.049585  0  3.63968  0  0  -0.015151  0  3.904637  0  0  -0.006583  0  3.909949  0  0  -0.061286  -0.021098  0  3.901119  0
C  C82  1  0.64462376  0.75736029  0.47875458  1  0  0.019024  0  3.74142  0  0  0.043085  0  3.977972  0  0  0.037113  0  4.002413  0  0  -0.007012  0.046906  0  3.961521  0
C  C83  1  0.35537367  0.24263961  0.52124270  1  0  0.01911  0  3.741341  0  0  0.043164  0  3.97792  0  0  0.03719  0  4.002362  0  0  -0.006969  0.046983  0  3.96147  0
C  C84  1  0.53155626  0.77828532  0.54115803  1  0  -0.015334  0  3.660571  0  0  -0.044535  0  3.908034  0  0  -0.040039  0  3.924565  0  0  -0.055504  -0.047323  0  3.896346  0
C  C85  1  0.46844106  0.22171358  0.45883801  1  0  -0.015357  0  3.660488  0  0  -0.044549  0  3.907944  0  0  -0.040053  0  3.924476  0  0  -0.0555  -0.047338  0  3.896262  0
C  C86  1  0.51095394  0.70996623  0.61664888  1  0  -0.111344  0  3.723365  0  0  -0.122521  0  3.977056  0  0  -0.130332  0  3.999237  0  0  -0.079984  -0.117014  0  3.961873  0
C  C87  1  0.48904473  0.29003569  0.38335015  1  0  -0.111304  0  3.723296  0  0  -0.122467  0  3.976971  0  0  -0.130282  0  3.999161  0  0  -0.079926  -0.116959  0  3.961788  0
C  C88  1  0.60581101  0.62460363  0.62947878  1  0  0.123713  0  3.711753  0  0  0.088858  0  3.969284  0  0  0.096183  0  3.988955  0  0  0.045575  0.084213  0  3.955574  0
C  C89  1  0.39419216  0.37540232  0.37052486  1  0  0.123644  0  3.711951  0  0  0.088788  0  3.969479  0  0  0.096109  0  3.98915  0  0  0.04553  0.084146  0  3.955769  0
C  C90  1  0.73352576  0.66846316  0.49531176  1  0  0.086062  0  3.685467  0  0  0.048369  0  3.929796  0  0  0.054485  0  3.950107  0  0  0.04614  0.044221  0  3.916022  0
C  C91  1  0.26647177  0.33153775  0.50468676  1  0  0.086062  0  3.685454  0  0  0.048385  0  3.929764  0  0  0.054495  0  3.950086  0  0  0.046147  0.044238  0  3.915989  0
N  N92  1  0.97768238  0.01020727  0.45148531  1  0  -0.126132  0  3.008499  0  0  -0.101041  0  3.293184  0  0  -0.101378  0  3.300913  0  0  -0.130283  -0.100572  0  3.287852  0
N  N93  1  0.02231479  0.98979964  0.54851541  1  0  -0.126361  0  3.00868  0  0  -0.101272  0  3.29344  0  0  -0.101608  0  3.301168  0  0  -0.130418  -0.100802  0  3.288106  0
N  N94  1  0.13025091  0.43592926  0.17744728  1  0  -0.32859  0  3.289529  0  0  -0.250171  0  3.553678  0  0  -0.270437  0  3.575773  0  0  -0.333993  -0.23675  0  3.538427  0
N  N95  1  0.86974720  0.56406772  0.82255843  1  0  -0.32854  0  3.289383  0  0  -0.250159  0  3.553509  0  0  -0.270425  0  3.575603  0  0  -0.333982  -0.23674  0  3.53826  0
N  N96  1  0.71524122  0.60416529  0.56964909  1  0  -0.338289  0  3.31289  0  0  -0.258964  0  3.582343  0  0  -0.280701  0  3.604919  0  0  -0.335982  -0.243355  0  3.565847  0
N  N97  1  0.28476050  0.39583664  0.43035202  1  0  -0.338284  0  3.31292  0  0  -0.258945  0  3.582355  0  0  -0.280684  0  3.604936  0  0  -0.335975  -0.243336  0  3.56586  0
Cl  Cl98  1  0.88981298  0.37407595  0.35335169  1  0  -0.572423  0  0.925001  0  0  -0.506542  0  1.190498  0  0  -0.524062  0  1.166658  0  0  -0.300103  -0.494236  0  1.207874  0
Cl  Cl99  1  0.11019389  0.62593606  0.64666237  1  0  -0.572436  0  0.92494  0  0  -0.50657  0  1.190457  0  0  -0.52409  0  1.166617  0  0  -0.300114  -0.494258  0  1.207821  0
O  O100  1  0.24491619  0.72390464  0.41683027  1  0  -0.624851  0  1.975712  0  0  -0.560026  0  2.218302  0  0  -0.58867  0  2.209525  0  0  -0.328034  -0.539647  0  2.22319  0
O  O101  1  0.75508355  0.27610733  0.58317863  1  0  -0.624879  0  1.975754  0  0  -0.560032  0  2.21834  0  0  -0.588675  0  2.209556  0  0  -0.328016  -0.539654  0  2.223232  0
O  O102  1  0.01697516  0.71533855  0.36716408  1  0  -0.630941  0  1.960357  0  0  -0.573466  0  2.203523  0  0  -0.60206  0  2.195536  0  0  -0.329453  -0.553264  0  2.207944  0
O  O103  1  0.98303037  0.28467042  0.63284353  1  0  -0.63104  0  1.960331  0  0  -0.57351  0  2.2035  0  0  -0.602095  0  2.195485  0  0  -0.329502  -0.553308  0  2.207922  0
O  O104  1  0.41534226  0.61704517  0.06733210  1  0  -0.275154  0  2.405502  0  0  -0.203162  0  2.645923  0  0  -0.221052  0  2.64989  0  0  -0.174336  -0.1905  0  2.642709  0
O  O105  1  0.58465629  0.38295576  0.93266913  1  0  -0.275076  0  2.405584  0  0  -0.203055  0  2.645961  0  0  -0.22095  0  2.649942  0  0  -0.174272  -0.19039  0  2.642752  0
O  O106  1  0.58272241  0.75005367  0.27326552  1  0  -0.272773  0  2.333459  0  0  -0.206429  0  2.57236  0  0  -0.22297  0  2.574495  0  0  -0.181295  -0.194696  0  2.570588  0
O  O107  1  0.41728000  0.24994525  0.72673284  1  0  -0.272743  0  2.333327  0  0  -0.206435  0  2.572284  0  0  -0.222974  0  2.574417  0  0  -0.181281  -0.194712  0  2.570514  0
