# generated using pymatgen
data_AlH25C26O7
_symmetry_space_group_name_H-M   'P 1'
_cell_length_a   6.66837150
_cell_length_b   25.04047978
_cell_length_c   29.32496400
_cell_angle_alpha   89.99989407
_cell_angle_beta   90.00015461
_cell_angle_gamma   90.00074740
_symmetry_Int_Tables_number   1
_chemical_formula_structural   AlH25C26O7
_chemical_formula_sum   'Al4 H100 C104 O28'
_cell_volume   4896.65966304
_cell_formula_units_Z   4
loop_
 _symmetry_equiv_pos_site_id
 _symmetry_equiv_pos_as_xyz
  1  'x, y, z'
loop_
 _atom_site_type_symbol
 _atom_site_label
 _atom_site_symmetry_multiplicity
 _atom_site_fract_x
 _atom_site_fract_y
 _atom_site_fract_z
 _atom_site_occupancy
 _atom_site_pbe_bader_charge
 _atom_site_pbe_bader_spin_density
 _atom_site_pbe_cm5_charge
 _atom_site_pbe_ddec_charge
 _atom_site_pbe_ddec_spin_density
 _atom_site_pbe_ddec_sum_bond_order
 _atom_site_pbe_magmom
Al  Al0  1  0.24411710  0.74908367  0.25000136  1  2.499025  0  0.397589  1.655333  0  2.576785  0
Al  Al1  1  0.75586444  0.25092188  0.74999146  1  2.498395  0  0.397485  1.655252  0  2.576958  0
Al  Al2  1  0.74412378  0.75092196  0.25001804  1  2.498554  0  0.397543  1.655227  0  2.576881  0
Al  Al3  1  0.25587125  0.24907999  0.75000888  1  2.498696  0  0.397609  1.655544  0  2.576574  0
H  H4  1  0.71196970  0.38028163  0.66146848  1  0.089116  0  0.107052  0.111146  0  0.996904  0
H  H5  1  0.28957443  0.61957176  0.33822835  1  0.092444  0  0.105993  0.108199  0  1.000208  0
H  H6  1  0.28799758  0.61971970  0.16145950  1  0.089698  0  0.107111  0.111211  0  0.997055  0
H  H7  1  0.71036137  0.38042203  0.83823699  1  0.091797  0  0.105849  0.107998  0  1.000136  0
H  H8  1  0.21200094  0.11970810  0.83852573  1  0.089568  0  0.107159  0.111288  0  0.997103  0
H  H9  1  0.78956570  0.88045719  0.16176241  1  0.09242  0  0.106046  0.108206  0  1.000495  0
H  H10  1  0.78800835  0.88027251  0.33854865  1  0.089804  0  0.107119  0.1112  0  0.996976  0
H  H11  1  0.21037609  0.11958248  0.66176507  1  0.09185  0  0.105911  0.108139  0  1.000136  0
H  H12  1  0.71757752  0.44485715  0.59693638  1  0.045041  0  0.097128  0.09688  0  1.045587  0
H  H13  1  0.28569268  0.55526102  0.40264383  1  0.079827  0  0.099191  0.099642  0  1.037278  0
H  H14  1  0.28233712  0.55514271  0.09693296  1  0.045714  0  0.097257  0.096931  0  1.045797  0
H  H15  1  0.71421928  0.44472385  0.90265713  1  0.079375  0  0.099259  0.099637  0  1.037285  0
H  H16  1  0.21761475  0.05513101  0.90305271  1  0.045151  0  0.097181  0.096868  0  1.045809  0
H  H17  1  0.78566895  0.94473437  0.09732545  1  0.080221  0  0.099331  0.099758  0  1.037018  0
H  H18  1  0.78235870  0.94485586  0.40307552  1  0.045493  0  0.097186  0.096907  0  1.045731  0
H  H19  1  0.21421571  0.05528187  0.59734356  1  0.080092  0  0.099208  0.099608  0  1.037395  0
H  H20  1  0.30548255  0.38910913  0.55908406  1  0.051919  0  0.102698  0.106729  0  1.00961  0
H  H21  1  0.69570615  0.61024387  0.44033076  1  0.072038  0  0.103564  0.108381  0  1.008701  0
H  H22  1  0.69444762  0.61088321  0.05909790  1  0.051474  0  0.102764  0.106798  0  1.00967  0
H  H23  1  0.30422626  0.38975171  0.94033977  1  0.072065  0  0.103438  0.108154  0  1.008835  0
H  H24  1  0.80546327  0.11089051  0.94091662  1  0.052087  0  0.102687  0.106789  0  1.009589  0
H  H25  1  0.19574797  0.88969450  0.05964057  1  0.071168  0  0.103576  0.108256  0  1.008762  0
H  H26  1  0.19443317  0.88911945  0.44090753  1  0.051456  0  0.102749  0.106819  0  1.009572  0
H  H27  1  0.80422419  0.11025113  0.55966296  1  0.072158  0  0.103438  0.108198  0  1.008918  0
H  H28  1  0.30384731  0.32738581  0.62561207  1  0.077992  0  0.11005  0.116077  0  0.989494  0
H  H29  1  0.69659159  0.67191928  0.37387095  1  0.089292  0  0.10946  0.114705  0  0.98974  0
H  H30  1  0.69607106  0.67260361  0.12562274  1  0.077924  0  0.110057  0.116083  0  0.989463  0
H  H31  1  0.30336313  0.32808203  0.87387699  1  0.089661  0  0.109595  0.114902  0  0.989513  0
H  H32  1  0.80385184  0.17261423  0.87439134  1  0.077962  0  0.110061  0.116135  0  0.989431  0
H  H33  1  0.19666958  0.82804505  0.12611470  1  0.088446  0  0.109577  0.114626  0  0.98987  0
H  H34  1  0.19606989  0.82739067  0.37438338  1  0.077729  0  0.110054  0.116016  0  0.989347  0
H  H35  1  0.80337627  0.17192280  0.62612164  1  0.089305  0  0.109559  0.114817  0  0.989725  0
H  H36  1  0.30498164  0.55128941  0.48049763  1  0.096145  0  0.108358  0.122545  0  1.028818  0
H  H37  1  0.69513336  0.44872133  0.51961420  1  0.095981  0  0.107422  0.124093  0  1.024687  0
H  H38  1  0.69496530  0.44869771  0.98050650  1  0.096141  0  0.108465  0.122665  0  1.028749  0
H  H39  1  0.30477330  0.55129226  0.01961216  1  0.095744  0  0.107376  0.124009  0  1.024575  0
H  H40  1  0.80496661  0.94869606  0.01948085  1  0.096344  0  0.108421  0.122611  0  1.028901  0
H  H41  1  0.19511390  0.05125877  0.98037285  1  0.095136  0  0.107445  0.124195  0  1.024639  0
H  H42  1  0.19496854  0.05129557  0.51949896  1  0.096193  0  0.108472  0.122588  0  1.028916  0
H  H43  1  0.80478505  0.94870599  0.48039190  1  0.095604  0  0.107406  0.124021  0  1.024701  0
H  H44  1  0.47322225  0.48909787  0.61011898  1  0.025815  0  0.099015  0.061342  0  0.998454  0
H  H45  1  0.23108579  0.51745195  0.60381137  1  0.037229  0  0.097362  0.057697  0  0.986788  0
H  H46  1  0.61706213  0.56213351  0.56093147  1  0.041689  0  0.091492  0.091347  0  0.981119  0
H  H47  1  0.37743310  0.59223636  0.55774134  1  0.025986  0  0.090747  0.085949  0  0.980716  0
H  H48  1  0.37449373  0.60316857  0.64397059  1  0.015455  0  0.084055  0.107125  0  1.005305  0
H  H49  1  0.58315236  0.63616313  0.61904367  1  0.016843  0  0.087988  0.115058  0  1.000635  0
H  H50  1  0.61655064  0.57374662  0.64668604  1  0.021512  0  0.083861  0.106391  0  1.007805  0
H  H51  1  0.40691853  0.47528191  0.42685125  1  0.030778  0  0.098157  0.063442  0  1.001016  0
H  H52  1  0.62079302  0.43539286  0.43913262  1  0.044478  0  0.098203  0.061876  0  0.982145  0
H  H53  1  0.60717769  0.52267558  0.36545266  1  0.021063  0  0.091871  0.088117  0  0.98374  0
H  H54  1  0.80951251  0.47899026  0.37552908  1  -0.015966  0  0.089976  0.084814  0  0.978846  0
H  H55  1  0.58779350  0.39987160  0.35387048  1  0.015572  0  0.08411  0.107381  0  1.006262  0
H  H56  1  0.60448481  0.44701574  0.30884532  1  0.018214  0  0.088121  0.115654  0  1.000201  0
H  H57  1  0.38649494  0.44467392  0.34346226  1  0.018268  0  0.084279  0.108051  0  1.006515  0
H  H58  1  0.52659525  0.51091394  0.11010675  1  0.025824  0  0.099153  0.061669  0  0.998667  0
H  H59  1  0.76876004  0.48256946  0.10382679  1  0.03788  0  0.097366  0.057838  0  0.987008  0
H  H60  1  0.38284109  0.43785164  0.06093506  1  0.041704  0  0.091575  0.09128  0  0.981251  0
H  H61  1  0.62251652  0.40776438  0.05776338  1  0.027073  0  0.090731  0.085804  0  0.980667  0
H  H62  1  0.62539362  0.39685476  0.14398992  1  0.015794  0  0.083963  0.106923  0  1.005556  0
H  H63  1  0.41677485  0.36384867  0.11906887  1  0.017036  0  0.087938  0.114932  0  1.000589  0
H  H64  1  0.38333528  0.42627111  0.14669784  1  0.020571  0  0.083981  0.1065  0  1.007723  0
H  H65  1  0.59298955  0.52469812  0.92684090  1  0.031599  0  0.098172  0.063439  0  1.000936  0
H  H66  1  0.37921435  0.56461231  0.93915394  1  0.04248  0  0.098282  0.061726  0  0.982094  0
H  H67  1  0.39251587  0.47732534  0.86546492  1  0.020473  0  0.091917  0.088364  0  0.983339  0
H  H68  1  0.19028778  0.52104659  0.87556720  1  -0.016834  0  0.089926  0.084761  0  0.978664  0
H  H69  1  0.41214571  0.60013454  0.85388901  1  0.01529  0  0.084127  0.107373  0  1.005952  0
H  H70  1  0.39523880  0.55299807  0.80886154  1  0.018931  0  0.088215  0.115762  0  1.000241  0
H  H71  1  0.61328804  0.55529470  0.84345322  1  0.019848  0  0.084369  0.108102  0  1.006455  0
H  H72  1  0.97334974  0.01089317  0.88987896  1  0.025566  0  0.099141  0.061448  0  0.998605  0
H  H73  1  0.73114503  0.98257181  0.89615334  1  0.037302  0  0.097419  0.057784  0  0.987071  0
H  H74  1  0.11691356  0.93781876  0.93906156  1  0.041833  0  0.091607  0.091465  0  0.981044  0
H  H75  1  0.87723643  0.90774478  0.94221483  1  0.026054  0  0.090692  0.085955  0  0.980561  0
H  H76  1  0.87449976  0.89685928  0.85598081  1  0.014517  0  0.083973  0.106906  0  1.005569  0
H  H77  1  0.08300917  0.86382497  0.88092208  1  0.01705  0  0.088159  0.115233  0  1.000475  0
H  H78  1  0.11660326  0.92624798  0.85330699  1  0.021301  0  0.083853  0.10633  0  1.007864  0
H  H79  1  0.90693661  0.02473825  0.07308749  1  0.030394  0  0.098334  0.063458  0  1.001139  0
H  H80  1  0.12119537  0.06455403  0.06093505  1  0.045414  0  0.098318  0.061841  0  0.981873  0
H  H81  1  0.10634094  0.97715864  0.13450913  1  0.041915  0  0.09166  0.087628  0  0.983405  0
H  H82  1  0.30907606  0.02072845  0.12456073  1  -0.014913  0  0.090076  0.084857  0  0.978856  0
H  H83  1  0.08796282  0.09996255  0.14622720  1  0.015999  0  0.084546  0.108096  0  1.005552  0
H  H84  1  0.10385818  0.05272063  0.19119712  1  0.021675  0  0.088306  0.116233  0  0.999928  0
H  H85  1  0.88619573  0.05526351  0.15649558  1  0.015984  0  0.084425  0.108585  0  1.006437  0
H  H86  1  0.02653790  0.98909492  0.38990654  1  0.026515  0  0.099102  0.061615  0  0.998586  0
H  H87  1  0.26873077  0.01743145  0.39617574  1  0.038218  0  0.097369  0.0578  0  0.986847  0
H  H88  1  0.88289136  0.06215925  0.43909712  1  0.041465  0  0.091538  0.091393  0  0.981181  0
H  H89  1  0.12258356  0.09223842  0.44224837  1  0.026146  0  0.090774  0.08594  0  0.980844  0
H  H90  1  0.12533003  0.10313687  0.35601808  1  0.016193  0  0.083995  0.106879  0  1.005442  0
H  H91  1  0.91679426  0.13616674  0.38095956  1  0.017652  0  0.08796  0.11499  0  1.000501  0
H  H92  1  0.88322346  0.07374059  0.35333707  1  0.02192  0  0.083827  0.106301  0  1.007908  0
H  H93  1  0.09301041  0.97530678  0.57316270  1  0.03141  0  0.09815  0.063397  0  1.000931  0
H  H94  1  0.87920872  0.93539479  0.56086464  1  0.044719  0  0.098166  0.061727  0  0.981948  0
H  H95  1  0.89257892  0.02269178  0.63453917  1  0.020563  0  0.091849  0.088259  0  0.98359  0
H  H96  1  0.69033840  0.97897423  0.62444900  1  -0.016321  0  0.090003  0.084813  0  0.978939  0
H  H97  1  0.91219451  0.89988426  0.64612479  1  0.016165  0  0.084164  0.107361  0  1.005877  0
H  H98  1  0.89529406  0.94702466  0.69114748  1  0.018159  0  0.08822  0.115807  0  1.000322  0
H  H99  1  0.11334253  0.94472665  0.65655958  1  0.019352  0  0.084404  0.108131  0  1.006506  0
H  H100  1  0.49823598  0.67964853  0.25465274  1  0.591588  0  0.357043  0.433615  0  0.846905  0
H  H101  1  0.50174868  0.32033504  0.75479449  1  0.590891  0  0.356948  0.433688  0  0.84702  0
H  H102  1  0.99825343  0.82031645  0.24506349  1  0.589083  0  0.356822  0.433608  0  0.847005  0
H  H103  1  0.00172948  0.17966275  0.74523895  1  0.59151  0  0.356922  0.433695  0  0.846898  0
C  C104  1  0.49224902  0.81342066  0.31247946  1  1.582126  0  0.264631  0.638804  0  4.108054  0
C  C105  1  0.50723464  0.18608130  0.68797577  1  1.585865  0  0.267211  0.643952  0  4.100491  0
C  C106  1  0.50773711  0.18657038  0.81246390  1  1.580807  0  0.264669  0.638641  0  4.108585  0
C  C107  1  0.49280380  0.81393316  0.18798178  1  1.586521  0  0.267151  0.643909  0  4.100807  0
C  C108  1  0.99226595  0.68656826  0.18753685  1  1.580633  0  0.264653  0.638434  0  4.108739  0
C  C109  1  0.00719523  0.31392091  0.81202596  1  1.587535  0  0.267327  0.644296  0  4.100257  0
C  C110  1  0.00774098  0.31342903  0.68753476  1  1.581036  0  0.264715  0.638898  0  4.107941  0
C  C111  1  0.99276690  0.68608372  0.31202839  1  1.586116  0  0.267339  0.644101  0  4.10069  0
C  C112  1  0.84184526  0.38285372  0.63899684  1  -0.043961  0  -0.085498  -0.091065  0  3.998611  0
C  C113  1  0.15943943  0.61683514  0.36060042  1  -0.03886  0  -0.085846  -0.090446  0  3.99989  0
C  C114  1  0.15811095  0.61714646  0.13899606  1  -0.045283  0  -0.085691  -0.091333  0  3.998974  0
C  C115  1  0.84051644  0.38316219  0.86061075  1  -0.038173  0  -0.085633  -0.090116  0  4.000075  0
C  C116  1  0.34186345  0.11714007  0.86099566  1  -0.04552  0  -0.085698  -0.091434  0  3.999215  0
C  C117  1  0.65944676  0.88316739  0.13938148  1  -0.037781  0  -0.085964  -0.090666  0  4.000763  0
C  C118  1  0.65812692  0.88284449  0.36101347  1  -0.044401  0  -0.085656  -0.091119  0  3.998477  0
C  C119  1  0.34052595  0.11684077  0.63939504  1  -0.038738  0  -0.085634  -0.090253  0  3.999558  0
C  C120  1  0.84498436  0.41845012  0.60264075  1  -0.061583  0  -0.096121  -0.14314  0  3.98567  0
C  C121  1  0.15704714  0.58130264  0.39699470  1  -0.069057  0  -0.094642  -0.142409  0  3.978781  0
C  C122  1  0.15495892  0.58155172  0.10264140  1  -0.06073  0  -0.096216  -0.143227  0  3.985948  0
C  C123  1  0.84288717  0.41868944  0.89700667  1  -0.06743  0  -0.094609  -0.142399  0  3.978949  0
C  C124  1  0.34499875  0.08154048  0.89734935  1  -0.060773  0  -0.09609  -0.142919  0  3.98605  0
C  C125  1  0.65702678  0.91868472  0.10298107  1  -0.068723  0  -0.09477  -0.142519  0  3.979127  0
C  C126  1  0.65496856  0.91844720  0.39736472  1  -0.061232  0  -0.09615  -0.143271  0  3.985668  0
C  C127  1  0.34289401  0.08131154  0.60299844  1  -0.06808  0  -0.094623  -0.142416  0  3.978675  0
C  C128  1  0.01184213  0.42196621  0.57340085  1  0.021305  0  -0.005276  0.088413  0  3.992335  0
C  C129  1  0.98975148  0.57769310  0.42616605  1  -0.019637  0  -0.002847  0.092209  0  3.990483  0
C  C130  1  0.98808390  0.57802691  0.07340245  1  0.021237  0  -0.005403  0.088322  0  3.992337  0
C  C131  1  0.01019257  0.42229891  0.92617742  1  -0.020701  0  -0.002942  0.092183  0  3.990245  0
C  C132  1  0.51183587  0.07802603  0.92659235  1  0.021443  0  -0.005341  0.08845  0  3.992389  0
C  C133  1  0.48973827  0.92227384  0.07380559  1  -0.022437  0  -0.002956  0.092633  0  3.990892  0
C  C134  1  0.48810669  0.92197238  0.42659988  1  0.021452  0  -0.005405  0.088456  0  3.992355  0
C  C135  1  0.51019677  0.07770170  0.57382568  1  -0.021116  0  -0.002867  0.09227  0  3.990155  0
C  C136  1  0.17636733  0.38799629  0.58177770  1  -0.023265  0  -0.090245  -0.131378  0  3.975786  0
C  C137  1  0.82492485  0.61148930  0.41769646  1  -0.025827  0  -0.089483  -0.132468  0  3.978309  0
C  C138  1  0.82357391  0.61199522  0.08178334  1  -0.023532  0  -0.090288  -0.131424  0  3.975732  0
C  C139  1  0.17501299  0.38850752  0.91770411  1  -0.025948  0  -0.089333  -0.13206  0  3.978206  0
C  C140  1  0.67635502  0.11200011  0.91822368  1  -0.02293  0  -0.090158  -0.131528  0  3.975877  0
C  C141  1  0.32495219  0.88846868  0.08228202  1  -0.025394  0  -0.089399  -0.132051  0  3.97792  0
C  C142  1  0.32357083  0.88800789  0.41822208  1  -0.023946  0  -0.090305  -0.131562  0  3.975565  0
C  C143  1  0.67501756  0.11149367  0.58229726  1  -0.025319  0  -0.089375  -0.132182  0  3.978133  0
C  C144  1  0.17560215  0.35321137  0.61879363  1  -0.033913  0  -0.082519  -0.090149  0  3.980828  0
C  C145  1  0.82511718  0.64618237  0.38065324  1  -0.033934  0  -0.082458  -0.090587  0  3.986508  0
C  C146  1  0.82432205  0.64678046  0.11880126  1  -0.034666  0  -0.082425  -0.090116  0  3.980972  0
C  C147  1  0.17483321  0.35381813  0.88065755  1  -0.033885  0  -0.082793  -0.091221  0  3.98646  0
C  C148  1  0.67561009  0.14678782  0.88120809  1  -0.03432  0  -0.082569  -0.090159  0  3.980788  0
C  C149  1  0.32515427  0.85379719  0.11934024  1  -0.031625  0  -0.082581  -0.090757  0  3.986612  0
C  C150  1  0.32432831  0.85321627  0.38120927  1  -0.033094  0  -0.082526  -0.089984  0  3.980638  0
C  C151  1  0.67485992  0.14618426  0.61934758  1  -0.034043  0  -0.08265  -0.091027  0  3.98647  0
C  C152  1  0.00868164  0.35044274  0.64777066  1  -0.007617  0  -0.01884  -0.047849  0  3.98931  0
C  C153  1  0.99210667  0.64906721  0.35171543  1  -0.042413  0  -0.019697  -0.052338  0  3.996224  0
C  C154  1  0.99124630  0.64955822  0.14777008  1  -0.006744  0  -0.018789  -0.047573  0  3.989579  0
C  C155  1  0.00783847  0.35093334  0.85171635  1  -0.042724  0  -0.019617  -0.052305  0  3.996353  0
C  C156  1  0.50870097  0.14955468  0.85222937  1  -0.007458  0  -0.01882  -0.047741  0  3.989616  0
C  C157  1  0.49212937  0.85092889  0.14828144  1  -0.042518  0  -0.01964  -0.052083  0  3.996018  0
C  C158  1  0.49126818  0.85043229  0.35224521  1  -0.008129  0  -0.018718  -0.047889  0  3.989134  0
C  C159  1  0.50786906  0.14907047  0.64828300  1  -0.042149  0  -0.019734  -0.052205  0  3.996201  0
C  C160  1  0.17945082  0.49113535  0.52307677  1  0.477663  0  0.073608  0.195297  0  4.052202  0
C  C161  1  0.82083663  0.50851278  0.47633839  1  0.499078  0  0.077029  0.197589  0  4.052191  0
C  C162  1  0.82045144  0.50885787  0.02307918  1  0.47604  0  0.073551  0.195113  0  4.05246  0
C  C163  1  0.17909671  0.49148593  0.97634041  1  0.498626  0  0.076734  0.197273  0  4.052187  0
C  C164  1  0.67944396  0.00884549  0.97690892  1  0.474547  0  0.073591  0.195429  0  4.051777  0
C  C165  1  0.32081352  0.99146037  0.02364282  1  0.497926  0  0.077019  0.198362  0  4.052177  0
C  C166  1  0.32045340  0.99113365  0.47692453  1  0.476859  0  0.073694  0.195382  0  4.052357  0
C  C167  1  0.67910824  0.00851567  0.52365892  1  0.49765  0  0.07675  0.197266  0  4.052376  0
C  C168  1  0.16901997  0.52899327  0.48840491  1  -0.034578  0  -0.100779  -0.237217  0  4.009447  0
C  C169  1  0.83145793  0.47058657  0.51113812  1  -0.069042  0  -0.101084  -0.238755  0  4.004768  0
C  C170  1  0.83090318  0.47099903  0.98841305  1  -0.034448  0  -0.100833  -0.237349  0  4.009603  0
C  C171  1  0.16844852  0.52941825  0.01113272  1  -0.068409  0  -0.101059  -0.238988  0  4.004685  0
C  C172  1  0.66901032  0.97098335  0.01157392  1  -0.032332  0  -0.100588  -0.236412  0  4.009763  0
C  C173  1  0.33145410  0.02940358  0.98886085  1  -0.065883  0  -0.101054  -0.238857  0  4.004732  0
C  C174  1  0.33090813  0.02899592  0.51159138  1  -0.034697  0  -0.100844  -0.237245  0  4.009705  0
C  C175  1  0.66847206  0.97057992  0.48887135  1  -0.0682  0  -0.101059  -0.238738  0  4.004694  0
C  C176  1  0.99112466  0.53883439  0.46403996  1  -0.041746  0  -0.016851  -0.020438  0  4.005197  0
C  C177  1  0.00920327  0.46076502  0.53537349  1  0.012522  0  -0.016533  -0.020034  0  4.011368  0
C  C178  1  0.00879786  0.46116394  0.96404580  1  -0.041082  0  -0.016886  -0.020499  0  4.004856  0
C  C179  1  0.99071879  0.53922818  0.03537720  1  0.012642  0  -0.016304  -0.019365  0  4.01121  0
C  C180  1  0.49112588  0.96113975  0.03594191  1  -0.041105  0  -0.016993  -0.022486  0  4.007381  0
C  C181  1  0.50919008  0.03922162  0.96461732  1  0.010443  0  -0.0165  -0.020017  0  4.011118  0
C  C182  1  0.50879919  0.03883587  0.53595695  1  -0.041072  0  -0.016925  -0.02061  0  4.004739  0
C  C183  1  0.49073396  0.96076753  0.46462581  1  0.012449  0  -0.016451  -0.019942  0  4.011189  0
C  C184  1  0.37948904  0.51368832  0.58747818  1  0.436127  0  -0.065729  0.036511  0  3.897412  0
C  C185  1  0.47571316  0.56802771  0.57971649  1  -0.026262  0  -0.171745  -0.137616  0  3.978425  0
C  C186  1  0.51441805  0.59688420  0.62479955  1  -0.054794  0  -0.242411  -0.348564  0  3.991068  0
C  C187  1  0.57175783  0.47413845  0.42514451  1  0.432328  0  -0.065651  0.03575  0  3.883151  0
C  C188  1  0.64468974  0.48178185  0.37633762  1  0.038296  0  -0.171974  -0.141043  0  3.985105  0
C  C189  1  0.55098329  0.44107244  0.34389328  1  -0.053759  0  -0.242587  -0.348426  0  3.990428  0
C  C190  1  0.62038637  0.48632394  0.08747895  1  0.436098  0  -0.065907  0.035729  0  3.898049  0
C  C191  1  0.52419054  0.43197658  0.07972519  1  -0.027729  0  -0.171783  -0.137173  0  3.977841  0
C  C192  1  0.48548231  0.40313597  0.12481650  1  -0.054444  0  -0.242446  -0.348459  0  3.991072  0
C  C193  1  0.42816071  0.52586076  0.92515156  1  0.433509  0  -0.065791  0.035902  0  3.883113  0
C  C194  1  0.35509558  0.51822903  0.87635560  1  0.039655  0  -0.171927  -0.141533  0  3.985255  0
C  C195  1  0.44881320  0.55892334  0.84390437  1  -0.055335  0  -0.242776  -0.348359  0  3.990397  0
C  C196  1  0.87949789  0.98631080  0.91250424  1  0.436577  0  -0.065813  0.036621  0  3.89799  0
C  C197  1  0.97561458  0.93195617  0.92025638  1  -0.026093  0  -0.172014  -0.138172  0  3.979053  0
C  C198  1  0.01436812  0.90311404  0.87517098  1  -0.054289  0  -0.24227  -0.348138  0  3.991568  0
C  C199  1  0.07177773  0.02580906  0.07485599  1  0.431865  0  -0.065753  0.03599  0  3.883229  0
C  C200  1  0.14424264  0.01804970  0.12368027  1  0.015928  0  -0.17182  -0.140136  0  3.984579  0
C  C201  1  0.05070247  0.05876558  0.15613211  1  -0.054603  0  -0.243445  -0.350712  0  3.990301  0
C  C202  1  0.12036183  0.01368045  0.41253178  1  0.43547  0  -0.065912  0.03585  0  3.897643  0
C  C203  1  0.02421685  0.06803307  0.42029440  1  -0.026638  0  -0.171756  -0.137502  0  3.978091  0
C  C204  1  0.98543967  0.09687169  0.37520613  1  -0.057021  0  -0.242298  -0.348165  0  3.991134  0
C  C205  1  0.92817983  0.97414971  0.57485951  1  0.43133  0  -0.06568  0.035877  0  3.882787  0
C  C206  1  0.85514632  0.98178877  0.62365581  1  0.039712  0  -0.171904  -0.141269  0  3.985562  0
C  C207  1  0.94886127  0.94109638  0.65610669  1  -0.055518  0  -0.242867  -0.348529  0  3.990468  0
O  O208  1  0.66332059  0.80113137  0.20428325  1  -1.269532  0  -0.237717  -0.598526  0  2.349357  0
O  O209  1  0.33690540  0.19918647  0.79620983  1  -1.262437  0  -0.239173  -0.598589  0  2.350292  0
O  O210  1  0.33669127  0.19887707  0.70428337  1  -1.269378  0  -0.237843  -0.598838  0  2.349128  0
O  O211  1  0.66306382  0.80082297  0.29621755  1  -1.262836  0  -0.238971  -0.59833  0  2.35062  0
O  O212  1  0.16327363  0.69887518  0.29571400  1  -1.269346  0  -0.237906  -0.598826  0  2.349933  0
O  O213  1  0.83691184  0.30082367  0.70379835  1  -1.262584  0  -0.239169  -0.598623  0  2.34998  0
O  O214  1  0.83666859  0.30111710  0.79572106  1  -1.26982  0  -0.237849  -0.598891  0  2.34938  0
O  O215  1  0.16309101  0.69918397  0.20378379  1  -1.262488  0  -0.239108  -0.598444  0  2.350519  0
O  O216  1  0.32269430  0.79775016  0.29757478  1  -1.25606  0  -0.238319  -0.596806  0  2.344839  0
O  O217  1  0.67676086  0.20178415  0.70293467  1  -1.265517  0  -0.237515  -0.598233  0  2.342995  0
O  O218  1  0.67728995  0.20222534  0.79755542  1  -1.255296  0  -0.238333  -0.596807  0  2.345354  0
O  O219  1  0.32327046  0.79824625  0.20295948  1  -1.266306  0  -0.237712  -0.598587  0  2.342765  0
O  O220  1  0.82268839  0.70221701  0.20245485  1  -1.255135  0  -0.238625  -0.597095  0  2.34495  0
O  O221  1  0.17672480  0.29822503  0.79706431  1  -1.266704  0  -0.23776  -0.598542  0  2.342622  0
O  O222  1  0.17729043  0.29777066  0.70244050  1  -1.255304  0  -0.238365  -0.596917  0  2.345138  0
O  O223  1  0.82322645  0.70179640  0.29707526  1  -1.265759  0  -0.237511  -0.598245  0  2.342626  0
O  O224  1  0.49545206  0.71785028  0.24988475  1  -1.394059  0  -0.448519  -0.996953  0  2.220947  0
O  O225  1  0.50452647  0.28215727  0.74988540  1  -1.393253  0  -0.44847  -0.99711  0  2.220779  0
O  O226  1  0.99546177  0.78216421  0.25012065  1  -1.391386  0  -0.448382  -0.996995  0  2.220543  0
O  O227  1  0.00453026  0.21784693  0.75011634  1  -1.394023  0  -0.448439  -0.997134  0  2.220732  0
O  O228  1  0.35977231  0.48374920  0.54558489  1  -1.074312  0  -0.206194  -0.24649  0  2.542506  0
O  O229  1  0.64043718  0.51677830  0.45434655  1  -1.079691  0  -0.200789  -0.240161  0  2.563508  0
O  O230  1  0.64010952  0.51625316  0.04558083  1  -1.074326  0  -0.206041  -0.246147  0  2.542383  0
O  O231  1  0.35949860  0.48322085  0.95435505  1  -1.079851  0  -0.200619  -0.23979  0  2.563428  0
O  O232  1  0.85977124  0.01624105  0.95440214  1  -1.073949  0  -0.206391  -0.246916  0  2.542218  0
O  O233  1  0.14043823  0.98318543  0.04563331  1  -1.079784  0  -0.200934  -0.240404  0  2.563395  0
O  O234  1  0.14012555  0.98374372  0.45442529  1  -1.074456  0  -0.206135  -0.246241  0  2.542714  0
O  O235  1  0.85950959  0.01678298  0.54564767  1  -1.079301  0  -0.200662  -0.239905  0  2.563269  0
