# generated using pymatgen
data_ZnH13C16N5O6
_symmetry_space_group_name_H-M   'P 1'
_cell_length_a   9.23016372
_cell_length_b   14.01210314
_cell_length_c   14.14938982
_cell_angle_alpha   90.00007531
_cell_angle_beta   90.00002140
_cell_angle_gamma   90.00001181
_symmetry_Int_Tables_number   1
_chemical_formula_structural   ZnH13C16N5O6
_chemical_formula_sum   'Zn4 H52 C64 N20 O24'
_cell_volume   1829.99726941
_cell_formula_units_Z   4
loop_
 _symmetry_equiv_pos_site_id
 _symmetry_equiv_pos_as_xyz
  1  'x, y, z'
loop_
 _atom_site_type_symbol
 _atom_site_label
 _atom_site_symmetry_multiplicity
 _atom_site_fract_x
 _atom_site_fract_y
 _atom_site_fract_z
 _atom_site_occupancy
 _atom_site_pbe_bader_charge
 _atom_site_pbe_bader_spin_density
 _atom_site_pbe_cm5_charge
 _atom_site_pbe_ddec_charge
 _atom_site_pbe_ddec_spin_density
 _atom_site_pbe_ddec_sum_bond_order
 _atom_site_pbe_magmom
Zn  Zn0  1  0.83590533  0.75000003  0.74999972  1  1.265692  0  0.698372  0.793439  0  2.35481  0
Zn  Zn1  1  0.66409458  0.74999969  0.25000004  1  1.265685  0  0.698356  0.793393  0  2.354894  0
Zn  Zn2  1  0.16409688  0.25000048  0.24999966  1  1.265634  0  0.698359  0.79338  0  2.354875  0
Zn  Zn3  1  0.33590546  0.25000011  0.75000004  1  1.265698  0  0.69839  0.793476  0  2.354779  0
H  H4  1  0.07027203  0.51626694  0.59779220  1  0.141341  0  0.114243  0.120738  0  1.026758  0
H  H5  1  0.42972822  0.51626755  0.40220784  1  0.14136  0  0.114211  0.120691  0  1.026763  0
H  H6  1  0.07027219  0.98373301  0.90220775  1  0.14134  0  0.114258  0.120793  0  1.026748  0
H  H7  1  0.42972820  0.98373250  0.09779219  1  0.141356  0  0.114244  0.120742  0  1.026749  0
H  H8  1  0.92972801  0.48373428  0.40220717  1  0.140259  0  0.114251  0.120765  0  1.026745  0
H  H9  1  0.57027182  0.48373367  0.59779224  1  0.141336  0  0.114241  0.120734  0  1.026751  0
H  H10  1  0.92972785  0.01626535  0.09779233  1  0.140274  0  0.114277  0.120781  0  1.026703  0
H  H11  1  0.57027292  0.01626586  0.90220789  1  0.141325  0  0.114256  0.120777  0  1.026798  0
H  H12  1  0.25000125  0.78178806  0.50000019  1  0.124792  0  0.107463  0.106524  0  1.035397  0
H  H13  1  0.25000138  0.71821192  0.99999980  1  0.124792  0  0.107466  0.106517  0  1.035395  0
H  H14  1  0.74999988  0.21821316  0.49999989  1  0.124826  0  0.107478  0.106563  0  1.035372  0
H  H15  1  0.75000082  0.28178644  0.00000027  1  0.124827  0  0.107483  0.106564  0  1.035374  0
H  H16  1  0.78546099  0.96279538  0.79158821  1  0.115142  0  0.115801  0.113941  0  1.029474  0
H  H17  1  0.71453900  0.96279427  0.20841182  1  0.115124  0  0.115795  0.113916  0  1.029576  0
H  H18  1  0.78545981  0.53720396  0.70841191  1  0.115156  0  0.115811  0.113947  0  1.029522  0
H  H19  1  0.71453896  0.53720582  0.29158827  1  0.115136  0  0.115796  0.113921  0  1.029567  0
H  H20  1  0.21454014  0.03720442  0.20841186  1  0.11514  0  0.115813  0.113934  0  1.029524  0
H  H21  1  0.28545996  0.03720481  0.79158755  1  0.115155  0  0.11581  0.113937  0  1.029503  0
H  H22  1  0.21454023  0.46279583  0.29158746  1  0.115167  0  0.115774  0.113883  0  1.029555  0
H  H23  1  0.28546000  0.46279683  0.70841251  1  0.115167  0  0.115806  0.11394  0  1.029505  0
H  H24  1  0.58942421  0.07680339  0.69015709  1  0.204733  0  0.12423  0.14588  0  1.036981  0
H  H25  1  0.91057658  0.07680173  0.30984179  1  0.20474  0  0.12424  0.145903  0  1.03696  0
H  H26  1  0.58942321  0.42319615  0.80984234  1  0.204716  0  0.124264  0.145929  0  1.036951  0
H  H27  1  0.91057552  0.42319861  0.19015841  1  0.204754  0  0.12425  0.1459  0  1.036951  0
H  H28  1  0.41057692  0.92319569  0.30984228  1  0.20472  0  0.124259  0.145937  0  1.036958  0
H  H29  1  0.08942346  0.92319664  0.69015687  1  0.204735  0  0.124235  0.145901  0  1.036974  0
H  H30  1  0.41057683  0.57680436  0.19015703  1  0.204719  0  0.124249  0.14593  0  1.036949  0
H  H31  1  0.08942344  0.57680475  0.80984308  1  0.204722  0  0.124232  0.145899  0  1.036949  0
H  H32  1  0.38492834  0.02650963  0.57415627  1  0.094958  0  0.113664  0.10013  0  1.005883  0
H  H33  1  0.11507284  0.02650952  0.42584384  1  0.094949  0  0.113655  0.100121  0  1.005892  0
H  H34  1  0.38492959  0.47349059  0.92584452  1  0.094827  0  0.113668  0.100112  0  1.005929  0
H  H35  1  0.11507173  0.47349072  0.07415617  1  0.094953  0  0.113665  0.100124  0  1.005889  0
H  H36  1  0.61507170  0.97349016  0.42584381  1  0.094953  0  0.113668  0.100143  0  1.005871  0
H  H37  1  0.88492828  0.97349099  0.57415553  1  0.094818  0  0.113669  0.100152  0  1.005873  0
H  H38  1  0.61507262  0.52650992  0.07415626  1  0.094935  0  0.11366  0.100154  0  1.005867  0
H  H39  1  0.88492831  0.52650979  0.92584391  1  0.094803  0  0.113673  0.100127  0  1.005865  0
H  H40  1  0.40234310  0.91297110  0.51564903  1  0.096464  0  0.115185  0.104184  0  1.011135  0
H  H41  1  0.09765727  0.91297177  0.48435153  1  0.096332  0  0.115175  0.104162  0  1.011131  0
H  H42  1  0.40234318  0.58702819  0.98435101  1  0.09647  0  0.115193  0.10419  0  1.011099  0
H  H43  1  0.09765709  0.58702824  0.01564913  1  0.09634  0  0.115193  0.104182  0  1.011109  0
H  H44  1  0.59765694  0.08702870  0.48435105  1  0.09647  0  0.115188  0.104194  0  1.011129  0
H  H45  1  0.90234277  0.08702802  0.51564855  1  0.096236  0  0.115187  0.104186  0  1.011113  0
H  H46  1  0.59765794  0.41297232  0.01564907  1  0.096233  0  0.115189  0.104198  0  1.011105  0
H  H47  1  0.90234296  0.41297155  0.98435166  1  0.096369  0  0.115175  0.104156  0  1.011119  0
H  H48  1  0.59786942  0.79792347  0.57400768  1  0.198035  0  0.134808  0.112242  0  1.033349  0
H  H49  1  0.90213159  0.79792339  0.42599214  1  0.198027  0  0.134811  0.11224  0  1.033345  0
H  H50  1  0.59786951  0.70207656  0.92599170  1  0.198044  0  0.134826  0.112246  0  1.03333  0
H  H51  1  0.90213147  0.70207530  0.07400800  1  0.198021  0  0.134829  0.112248  0  1.03335  0
H  H52  1  0.40213170  0.20207633  0.42599240  1  0.198039  0  0.134816  0.11223  0  1.033385  0
H  H53  1  0.09786845  0.20207641  0.57400793  1  0.198041  0  0.134818  0.112237  0  1.033371  0
H  H54  1  0.40213270  0.29792466  0.07400767  1  0.198048  0  0.134834  0.112254  0  1.033351  0
H  H55  1  0.09786857  0.29792378  0.92599208  1  0.198041  0  0.134818  0.112255  0  1.033344  0
C  C56  1  0.03954563  0.71323952  0.61041407  1  1.585386  0  0.199291  0.563792  0  4.236232  0
C  C57  1  0.46045576  0.71323940  0.38958622  1  1.58559  0  0.199285  0.563774  0  4.23626  0
C  C58  1  0.03954572  0.78676043  0.88958587  1  1.58535  0  0.199298  0.563801  0  4.236238  0
C  C59  1  0.46045569  0.78675994  0.11041452  1  1.585608  0  0.19926  0.56374  0  4.236415  0
C  C60  1  0.96045658  0.28676170  0.38958530  1  1.585621  0  0.199348  0.563885  0  4.236168  0
C  C61  1  0.53954428  0.28676182  0.61041456  1  1.585614  0  0.19934  0.56386  0  4.236107  0
C  C62  1  0.96045648  0.21323794  0.11041420  1  1.585612  0  0.199298  0.56376  0  4.23623  0
C  C63  1  0.53954435  0.21323842  0.88958627  1  1.585375  0  0.199314  0.563787  0  4.236267  0
C  C64  1  0.14741910  0.65559361  0.55436499  1  0.126571  0  -0.01118  -0.012343  0  3.948999  0
C  C65  1  0.35258336  0.65559427  0.44563594  1  0.126342  0  -0.011177  -0.012382  0  3.949081  0
C  C66  1  0.14741924  0.84440635  0.94563498  1  0.126604  0  -0.011188  -0.012347  0  3.949061  0
C  C67  1  0.35258328  0.84440578  0.05436407  1  0.12635  0  -0.011187  -0.012405  0  3.949075  0
C  C68  1  0.85258203  0.34440761  0.44563509  1  0.126598  0  -0.011177  -0.012329  0  3.949035  0
C  C69  1  0.64741777  0.34440695  0.55436484  1  0.126607  0  -0.01116  -0.012286  0  3.948967  0
C  C70  1  0.85258297  0.15559130  0.05436509  1  0.126597  0  -0.01122  -0.012366  0  3.949033  0
C  C71  1  0.64741568  0.15559330  0.94563601  1  0.126527  0  -0.011187  -0.012391  0  3.94899  0
C  C72  1  0.14754476  0.55591978  0.55510064  1  -0.070261  0  -0.06662  -0.124062  0  3.925522  0
C  C73  1  0.35245442  0.55591972  0.44490015  1  -0.07022  0  -0.066554  -0.123942  0  3.925369  0
C  C74  1  0.14754493  0.94408090  0.94489933  1  -0.070223  0  -0.066617  -0.124149  0  3.925507  0
C  C75  1  0.35245545  0.94407961  0.05509985  1  -0.070248  0  -0.066591  -0.124025  0  3.925524  0
C  C76  1  0.85245528  0.44408215  0.44489944  1  -0.069188  0  -0.0666  -0.124071  0  3.925514  0
C  C77  1  0.64754454  0.44408150  0.55509922  1  -0.070285  0  -0.06661  -0.124079  0  3.925503  0
C  C78  1  0.85245403  0.05591747  0.05509934  1  -0.069203  0  -0.066556  -0.123988  0  3.925612  0
C  C79  1  0.64754242  0.05591947  0.94489952  1  -0.070652  0  -0.066589  -0.124029  0  3.925567  0
C  C80  1  0.24999796  0.50806969  0.50000001  1  0.174095  0  0.075213  0.052721  0  3.942954  0
C  C81  1  0.25000143  0.99193029  0.99999998  1  0.174103  0  0.075227  0.052778  0  3.942892  0
C  C82  1  0.74999992  0.49193153  0.49999936  1  0.174121  0  0.075154  0.052635  0  3.942992  0
C  C83  1  0.74999320  0.00806950  0.00000151  1  0.174484  0  0.075195  0.052714  0  3.943001  0
C  C84  1  0.25000124  0.70413519  0.50000014  1  -0.095508  0  -0.061945  -0.077949  0  3.889315  0
C  C85  1  0.25000031  0.79586479  0.99999985  1  -0.095509  0  -0.061966  -0.077938  0  3.889327  0
C  C86  1  0.74999989  0.29586675  0.49999923  1  -0.095482  0  -0.061958  -0.078006  0  3.889327  0
C  C87  1  0.74999973  0.20413358  0.00000022  1  -0.095462  0  -0.061972  -0.077996  0  3.889114  0
C  C88  1  0.71621084  0.94592492  0.73225348  1  0.383265  0  -0.007104  -0.038847  0  4.004521  0
C  C89  1  0.78378372  0.94592461  0.26774724  1  0.383247  0  -0.007079  -0.038762  0  4.004553  0
C  C90  1  0.71621079  0.55407441  0.76774592  1  0.383255  0  -0.007126  -0.03885  0  4.00453  0
C  C91  1  0.78378473  0.55407549  0.23225287  1  0.383254  0  -0.00709  -0.038792  0  4.004565  0
C  C92  1  0.28378920  0.05407488  0.26774589  1  0.38327  0  -0.007089  -0.038755  0  4.004478  0
C  C93  1  0.21620982  0.05407518  0.73225355  1  0.383277  0  -0.007101  -0.038795  0  4.004504  0
C  C94  1  0.28379034  0.44592538  0.23225416  1  0.383256  0  -0.007047  -0.038664  0  4.004466  0
C  C95  1  0.21620989  0.44592573  0.76774650  1  0.383251  0  -0.007098  -0.03879  0  4.004518  0
C  C96  1  0.62146913  0.00267033  0.68315109  1  0.290537  0  0.003242  -0.101363  0  3.87823  0
C  C97  1  0.87853055  0.00266939  0.31684769  1  0.290573  0  0.00322  -0.1015  0  3.878289  0
C  C98  1  0.62146925  0.49732921  0.81684905  1  0.290541  0  0.003233  -0.101377  0  3.878245  0
C  C99  1  0.87853059  0.49733095  0.18315250  1  0.290557  0  0.003231  -0.101421  0  3.87824  0
C  C100  1  0.37853199  0.99732946  0.31684899  1  0.290547  0  0.003211  -0.101463  0  3.87828  0
C  C101  1  0.12146840  0.99732969  0.68315097  1  0.290529  0  0.00325  -0.101402  0  3.878258  0
C  C102  1  0.37853188  0.50267058  0.18315103  1  0.290531  0  0.003223  -0.101497  0  3.87827  0
C  C103  1  0.12146837  0.50267027  0.81684970  1  0.290537  0  0.003218  -0.101457  0  3.878242  0
C  C104  1  0.46048510  0.97604730  0.54132933  1  0.314558  0  -0.04922  -0.088329  0  3.85514  0
C  C105  1  0.03951529  0.97604722  0.45866989  1  0.314561  0  -0.049215  -0.088336  0  3.855066  0
C  C106  1  0.46048515  0.52395271  0.95867071  1  0.293118  0  -0.049226  -0.088295  0  3.855118  0
C  C107  1  0.03951510  0.52395207  0.04132934  1  0.292969  0  -0.049235  -0.088361  0  3.855161  0
C  C108  1  0.53951603  0.02395178  0.45867074  1  0.292968  0  -0.049259  -0.088404  0  3.855158  0
C  C109  1  0.96048475  0.02395186  0.54132878  1  0.293223  0  -0.049257  -0.088402  0  3.85518  0
C  C110  1  0.53951598  0.47604780  0.04132937  1  0.314648  0  -0.049254  -0.088449  0  3.855133  0
C  C111  1  0.96048494  0.47604773  0.95867074  1  0.314801  0  -0.049232  -0.08832  0  3.855148  0
C  C112  1  0.62248656  0.85681473  0.62115109  1  0.943956  0  0.142697  0.089844  0  3.882576  0
C  C113  1  0.87751447  0.85681387  0.37884880  1  0.944018  0  0.142679  0.089798  0  3.882515  0
C  C114  1  0.62248769  0.64318530  0.87884829  1  0.943969  0  0.142694  0.089857  0  3.882601  0
C  C115  1  0.87751761  0.64318696  0.12115345  1  0.944039  0  0.142699  0.089857  0  3.882518  0
C  C116  1  0.37751348  0.14318506  0.37884898  1  0.943959  0  0.142699  0.089856  0  3.882585  0
C  C117  1  0.12248665  0.14318521  0.62115127  1  0.94403  0  0.142671  0.089835  0  3.88266  0
C  C118  1  0.37751560  0.35681521  0.12115179  1  0.944036  0  0.142673  0.089831  0  3.88255  0
C  C119  1  0.12248568  0.35681498  0.87884875  1  0.943955  0  0.142668  0.08981  0  3.882579  0
N  N120  1  0.71544160  0.85522830  0.69337966  1  -1.243103  0  -0.359508  -0.290412  0  3.618933  0
N  N121  1  0.78455835  0.85522662  0.30662094  1  -1.243118  0  -0.359511  -0.290426  0  3.618909  0
N  N122  1  0.71544160  0.64477174  0.80661974  1  -1.243107  0  -0.359515  -0.290435  0  3.618954  0
N  N123  1  0.78455829  0.64477348  0.19337917  1  -1.24313  0  -0.359525  -0.290458  0  3.61896  0
N  N124  1  0.28455953  0.14477150  0.30661971  1  -1.243053  0  -0.359513  -0.290397  0  3.618892  0
N  N125  1  0.21544060  0.14477246  0.69337984  1  -1.243109  0  -0.359515  -0.290449  0  3.618949  0
N  N126  1  0.28455953  0.35522876  0.19337963  1  -1.243042  0  -0.359515  -0.290454  0  3.618936  0
N  N127  1  0.21544067  0.35522917  0.80662020  1  -1.243071  0  -0.359511  -0.290456  0  3.618981  0
N  N128  1  0.56314635  0.94520474  0.61331759  1  -1.236761  0  -0.238994  0.055891  0  3.756379  0
N  N129  1  0.93685255  0.94520532  0.38668171  1  -1.236742  0  -0.238965  0.056067  0  3.756152  0
N  N130  1  0.56314745  0.55479529  0.88668248  1  -1.236749  0  -0.239005  0.055856  0  3.756447  0
N  N131  1  0.93685349  0.55479409  0.11331844  1  -1.236729  0  -0.239011  0.055947  0  3.75622  0
N  N132  1  0.43685478  0.05479506  0.38668249  1  -1.236757  0  -0.238998  0.055889  0  3.756403  0
N  N133  1  0.06314641  0.05479518  0.61331766  1  -1.236753  0  -0.23899  0.055916  0  3.756421  0
N  N134  1  0.43685476  0.44520593  0.11331760  1  -1.236778  0  -0.239005  0.055956  0  3.756316  0
N  N135  1  0.06314547  0.44520499  0.88668235  1  -1.236786  0  -0.238961  0.055973  0  3.756355  0
N  N136  1  0.25000011  0.40335022  0.49999995  1  0.309549  0  0.056483  0.518914  0  4.18874  0
N  N137  1  0.25000100  0.09665003  0.00000080  1  0.30955  0  0.056524  0.519038  0  4.188619  0
N  N138  1  0.74999993  0.59665100  0.49999943  1  0.309621  0  0.056565  0.519122  0  4.1887  0
N  N139  1  0.74999904  0.90334905  0.99999998  1  0.309655  0  0.056449  0.518898  0  4.188762  0
O  O140  1  0.03459665  0.80162739  0.59835283  1  -1.181319  0  -0.318965  -0.560733  0  2.19342  0
O  O141  1  0.46540369  0.80162728  0.40164687  1  -1.181316  0  -0.318988  -0.560751  0  2.193391  0
O  O142  1  0.03459672  0.69837185  0.90164711  1  -1.181329  0  -0.318987  -0.560742  0  2.193413  0
O  O143  1  0.46540467  0.69837206  0.09835316  1  -1.181337  0  -0.318962  -0.56068  0  2.193528  0
O  O144  1  0.96540556  0.19837455  0.40164795  1  -1.18153  0  -0.319039  -0.560802  0  2.193347  0
O  O145  1  0.53459527  0.19837394  0.59835179  1  -1.181538  0  -0.319015  -0.560782  0  2.193291  0
O  O146  1  0.96540549  0.30162509  0.09835226  1  -1.181518  0  -0.318977  -0.560711  0  2.193355  0
O  O147  1  0.53459429  0.30162630  0.90164904  1  -1.181281  0  -0.319001  -0.560745  0  2.193365  0
O  O148  1  0.95890095  0.66579635  0.66859334  1  -1.176927  0  -0.329717  -0.551637  0  2.331642  0
O  O149  1  0.54110003  0.66579538  0.33140702  1  -1.176937  0  -0.329718  -0.551612  0  2.331679  0
O  O150  1  0.95889994  0.83420301  0.83140683  1  -1.17691  0  -0.329703  -0.551631  0  2.331645  0
O  O151  1  0.54110109  0.83420397  0.16859304  1  -1.176936  0  -0.329703  -0.551642  0  2.331733  0
O  O152  1  0.04109909  0.33420558  0.33140603  1  -1.176981  0  -0.329722  -0.551679  0  2.331732  0
O  O153  1  0.45890110  0.33420512  0.66859448  1  -1.176974  0  -0.329728  -0.551672  0  2.33167  0
O  O154  1  0.04109902  0.16579464  0.16859396  1  -1.176966  0  -0.329749  -0.55168  0  2.331728  0
O  O155  1  0.45889895  0.16579582  0.83140633  1  -1.176945  0  -0.329748  -0.551658  0  2.331709  0
O  O156  1  0.16061058  0.36181615  0.55121484  1  -0.465122  0  -0.119626  -0.335717  0  1.989524  0
O  O157  1  0.33938962  0.36181681  0.44878359  1  -0.465068  0  -0.119655  -0.335734  0  1.989507  0
O  O158  1  0.16061066  0.13818332  0.94878519  1  -0.465095  0  -0.11965  -0.335777  0  1.989502  0
O  O159  1  0.33938947  0.13818345  0.05121647  1  -0.465087  0  -0.119671  -0.335799  0  1.9895  0
O  O160  1  0.83938946  0.63818435  0.44878383  1  -0.465172  0  -0.119679  -0.335817  0  1.989519  0
O  O161  1  0.66061151  0.63818441  0.55121508  1  -0.465124  0  -0.11964  -0.335774  0  1.989522  0
O  O162  1  0.83938938  0.86181576  0.05121488  1  -0.465132  0  -0.119639  -0.335727  0  1.989539  0
O  O163  1  0.66061058  0.86181491  0.94878431  1  -0.465163  0  -0.119622  -0.335734  0  1.989516  0
