# generated using pymatgen
data_H16PbC25(NO3)2
_symmetry_space_group_name_H-M   'P 1'
_cell_length_a   8.32321888
_cell_length_b   10.48168617
_cell_length_c   12.47472594
_cell_angle_alpha   84.67170250
_cell_angle_beta   76.87103353
_cell_angle_gamma   86.40797325
_symmetry_Int_Tables_number   1
_chemical_formula_structural   H16PbC25(NO3)2
_chemical_formula_sum   'H32 Pb2 C50 N4 O12'
_cell_volume   1054.31564661
_cell_formula_units_Z   2
loop_
 _symmetry_equiv_pos_site_id
 _symmetry_equiv_pos_as_xyz
  1  'x, y, z'
loop_
 _atom_site_type_symbol
 _atom_site_label
 _atom_site_symmetry_multiplicity
 _atom_site_fract_x
 _atom_site_fract_y
 _atom_site_fract_z
 _atom_site_occupancy
 _atom_site_hle17_bader_spin_density
 _atom_site_hle17_ddec_charge
 _atom_site_hle17_ddec_spin_density
 _atom_site_hle17_ddec_sum_bond_order
 _atom_site_hle17_magmom
 _atom_site_hse06_10hf_bader_spin_density
 _atom_site_hse06_10hf_ddec_charge
 _atom_site_hse06_10hf_ddec_spin_density
 _atom_site_hse06_10hf_ddec_sum_bond_order
 _atom_site_hse06_10hf_magmom
 _atom_site_hse06_bader_spin_density
 _atom_site_hse06_ddec_charge
 _atom_site_hse06_ddec_spin_density
 _atom_site_hse06_ddec_sum_bond_order
 _atom_site_hse06_magmom
 _atom_site_pbe_bader_spin_density
 _atom_site_pbe_cm5_charge
 _atom_site_pbe_ddec_charge
 _atom_site_pbe_ddec_spin_density
 _atom_site_pbe_ddec_sum_bond_order
 _atom_site_pbe_magmom
H  H0  1  0.43305676  0.59759783  0.98942653  1  0  0.392419  0  0.898609  0  0  0.361452  0  0.978066  0  0  0.374403  0  0.964006  0  0  0.302743  0.352361  0  0.987887  0
H  H1  1  0.56694736  0.40239810  0.01057379  1  0  0.392363  0  0.898741  0  0  0.361436  0  0.97814  0  0  0.374387  0  0.964078  0  0  0.302757  0.352344  0  0.987959  0
H  H2  1  0.43442358  0.10071625  0.57237541  1  0  0.105616  0  0.954997  0  0  0.111801  0  1.024956  0  0  0.115727  0  1.021794  0  0  0.10588  0.10897  0  1.027272  0
H  H3  1  0.56557682  0.89928063  0.42762058  1  0  0.105607  0  0.955013  0  0  0.1118  0  1.024961  0  0  0.115724  0  1.021804  0  0  0.105872  0.108968  0  1.027278  0
H  H4  1  0.49631617  0.11029109  0.90345375  1  0  0.104913  0  0.942697  0  0  0.113531  0  1.006381  0  0  0.11726  0  1.003459  0  0  0.103881  0.110834  0  1.008473  0
H  H5  1  0.50369035  0.88970672  0.09654205  1  0  0.104897  0  0.942659  0  0  0.113481  0  1.006389  0  0  0.117204  0  1.003471  0  0  0.103869  0.110784  0  1.008481  0
H  H6  1  0.24667313  0.98047640  0.97319389  1  0  0.096187  0  0.966705  0  0  0.106738  0  1.027848  0  0  0.109337  0  1.027991  0  0  0.100433  0.10485  0  1.027915  0
H  H7  1  0.75333190  0.01952624  0.02680575  1  0  0.096163  0  0.966712  0  0  0.106721  0  1.027843  0  0  0.109319  0  1.027987  0  0  0.100419  0.104833  0  1.027911  0
H  H8  1  0.20265633  0.74220709  0.93990170  1  0  0.105463  0  0.948783  0  0  0.116968  0  1.006729  0  0  0.120147  0  1.005337  0  0  0.104205  0.114689  0  1.007786  0
H  H9  1  0.79734627  0.25779461  0.06009998  1  0  0.105422  0  0.948831  0  0  0.116956  0  1.006749  0  0  0.120122  0  1.005376  0  0  0.104203  0.114687  0  1.007793  0
H  H10  1  0.97280698  0.59553481  0.00868250  1  0  0.094512  0  0.972283  0  0  0.101341  0  1.04175  0  0  0.104698  0  1.038847  0  0  0.101293  0.098939  0  1.043785  0
H  H11  1  0.02719690  0.40446593  0.99131907  1  0  0.094519  0  0.972173  0  0  0.101354  0  1.041635  0  0  0.104711  0  1.038736  0  0  0.10129  0.09895  0  1.043671  0
H  H12  1  0.65064076  0.85884026  0.86084927  1  0  0.096707  0  0.955741  0  0  0.106003  0  1.019976  0  0  0.108341  0  1.01976  0  0  0.103793  0.104313  0  1.020211  0
H  H13  1  0.34936098  0.14115376  0.13915077  1  0  0.096689  0  0.955877  0  0  0.105991  0  1.020094  0  0  0.10833  0  1.01988  0  0  0.103796  0.104298  0  1.020327  0
H  H14  1  0.87988800  0.00431716  0.79014131  1  0  0.109667  0  0.965835  0  0  0.117769  0  1.029867  0  0  0.121195  0  1.028228  0  0  0.102241  0.11534  0  1.031019  0
H  H15  1  0.12010852  0.99568265  0.20986063  1  0  0.109637  0  0.965859  0  0  0.117746  0  1.029889  0  0  0.121168  0  1.028254  0  0  0.10223  0.115318  0  1.031041  0
H  H16  1  0.33197930  0.55147802  0.49730712  1  0  0.086499  0  0.955633  0  0  0.095011  0  1.019868  0  0  0.097552  0  1.018066  0  0  0.117313  0.093141  0  1.021155  0
H  H17  1  0.66802692  0.44852557  0.50269226  1  0  0.08652  0  0.955616  0  0  0.095012  0  1.019871  0  0  0.097546  0  1.018085  0  0  0.11733  0.093142  0  1.021156  0
H  H18  1  0.40615546  0.35325510  0.60993451  1  0  0.116574  0  0.983129  0  0  0.122116  0  1.048766  0  0  0.125778  0  1.047585  0  0  0.105806  0.119422  0  1.049794  0
H  H19  1  0.59384700  0.64674948  0.39006776  1  0  0.116589  0  0.983078  0  0  0.122095  0  1.048736  0  0  0.125751  0  1.047564  0  0  0.105806  0.119399  0  1.049788  0
H  H20  1  0.18817651  0.26795525  0.77172402  1  0  0.097312  0  0.95786  0  0  0.107199  0  1.017541  0  0  0.10847  0  1.019033  0  0  0.106844  0.106235  0  1.016518  0
H  H21  1  0.81182363  0.73204645  0.22827562  1  0  0.097284  0  0.957864  0  0  0.107189  0  1.017538  0  0  0.10846  0  1.01903  0  0  0.106833  0.106229  0  1.01651  0
H  H22  1  0.90736093  0.37347138  0.80620909  1  0  0.126054  0  0.942364  0  0  0.137264  0  0.99686  0  0  0.140889  0  0.995096  0  0  0.114968  0.1346  0  0.998398  0
H  H23  1  0.09264154  0.62653319  0.19379157  1  0  0.126079  0  0.942459  0  0  0.13731  0  0.996917  0  0  0.140936  0  0.995153  0  0  0.114967  0.13464  0  0.998467  0
H  H24  1  0.67579339  0.41505788  0.77484431  1  0  0.118245  0  0.966173  0  0  0.127001  0  1.027038  0  0  0.130465  0  1.025694  0  0  0.109331  0.124388  0  1.028297  0
H  H25  1  0.32420669  0.58494570  0.22515118  1  0  0.118226  0  0.966253  0  0  0.126972  0  1.027105  0  0  0.130433  0  1.025766  0  0  0.109314  0.124364  0  1.028363  0
H  H26  1  0.39743982  0.52510632  0.78910385  1  0  0.095328  0  0.946207  0  0  0.109429  0  0.998515  0  0  0.11148  0  0.998087  0  0  0.106786  0.107939  0  0.998861  0
H  H27  1  0.60255799  0.47489251  0.21089798  1  0  0.09528  0  0.946177  0  0  0.109379  0  0.998482  0  0  0.111429  0  0.998055  0  0  0.106768  0.107891  0  0.998825  0
H  H28  1  0.37537976  0.74490106  0.69394267  1  0  0.116432  0  0.969448  0  0  0.121926  0  1.033449  0  0  0.125163  0  1.033106  0  0  0.107867  0.119468  0  1.034051  0
H  H29  1  0.62461561  0.25509776  0.30605471  1  0  0.116449  0  0.969476  0  0  0.121941  0  1.033466  0  0  0.125179  0  1.033123  0  0  0.107873  0.119482  0  1.034065  0
H  H30  1  0.63891365  0.84908703  0.59265930  1  0  0.08579  0  0.959954  0  0  0.092745  0  1.026101  0  0  0.095302  0  1.024139  0  0  0.114588  0.090718  0  1.027757  0
H  H31  1  0.36107663  0.15091471  0.40734181  1  0  0.085792  0  0.959909  0  0  0.092779  0  1.026015  0  0  0.095313  0  1.024079  0  0  0.114619  0.09075  0  1.027671  0
Pb  Pb32  1  0.04358847  0.78009309  0.47678174  1  0  1.195222  0  1.540555  0  0  0.99529  0  1.945477  0  0  1.052031  0  1.908723  0  0  0.604186  0.953142  0  1.973412  0
Pb  Pb33  1  0.95641159  0.21991053  0.52321856  1  0  1.195239  0  1.540566  0  0  0.995315  0  1.945488  0  0  1.052054  0  1.908734  0  0  0.604196  0.953158  0  1.973428  0
C  C34  1  0.18387394  0.94396080  0.61228697  1  0  0.634697  0  3.918853  0  0  0.583965  0  4.206408  0  0  0.618787  0  4.200364  0  0  0.212454  0.56049  0  4.209293  0
C  C35  1  0.81611617  0.05604384  0.38771793  1  0  0.634601  0  3.919014  0  0  0.583876  0  4.206562  0  0  0.618699  0  4.200518  0  0  0.21247  0.560398  0  4.209445  0
C  C36  1  0.25620795  0.99747078  0.69766437  1  0  -0.116806  0  3.737746  0  0  -0.097762  0  3.97513  0  0  -0.106729  0  3.996927  0  0  -0.015726  -0.092066  0  3.960606  0
C  C37  1  0.74379228  0.00252900  0.30233621  1  0  -0.116843  0  3.737732  0  0  -0.097804  0  3.975141  0  0  -0.106776  0  3.996948  0  0  -0.015774  -0.092106  0  3.960614  0
C  C38  1  0.39236341  0.07440886  0.66039120  1  0  -0.0755  0  3.720304  0  0  -0.11026  0  3.974072  0  0  -0.107836  0  3.992183  0  0  -0.077933  -0.111603  0  3.96187  0
C  C39  1  0.60763574  0.92558804  0.33960818  1  0  -0.075514  0  3.720099  0  0  -0.110257  0  3.973866  0  0  -0.107863  0  3.991952  0  0  -0.077953  -0.111599  0  3.961663  0
C  C40  1  0.48043818  0.11412960  0.73349909  1  0  -0.061547  0  3.752625  0  0  -0.038769  0  3.986468  0  0  -0.046594  0  4.008372  0  0  -0.020481  -0.033801  0  3.971758  0
C  C41  1  0.51956344  0.88586728  0.26649832  1  0  -0.061561  0  3.752614  0  0  -0.038806  0  3.986465  0  0  -0.046538  0  4.008239  0  0  -0.02047  -0.033845  0  3.971764  0
C  C42  1  0.63295965  0.18975078  0.69061944  1  0  0.618779  0  3.960635  0  0  0.574455  0  4.24764  0  0  0.607462  0  4.242139  0  0  0.195319  0.552171  0  4.25006  0
C  C43  1  0.36704198  0.81024610  0.30937797  1  0  0.618717  0  3.960921  0  0  0.574406  0  4.247914  0  0  0.607389  0  4.24241  0  0  0.195303  0.552126  0  4.250332  0
C  C44  1  0.42785204  0.07868195  0.84655352  1  0  -0.059885  0  3.728883  0  0  -0.085105  0  3.980929  0  0  -0.083213  0  3.999131  0  0  -0.081042  -0.085993  0  3.968422  0
C  C45  1  0.57215063  0.92131877  0.15344503  1  0  -0.059816  0  3.728838  0  0  -0.084997  0  3.980885  0  0  -0.083126  0  3.999055  0  0  -0.081011  -0.085885  0  3.968382  0
C  C46  1  0.28959096  0.00514055  0.88489648  1  0  -0.113109  0  3.73696  0  0  -0.132245  0  3.988935  0  0  -0.136983  0  4.010168  0  0  -0.086673  -0.129166  0  3.97445  0
C  C47  1  0.71041664  0.99486015  0.11510132  1  0  -0.113041  0  3.736814  0  0  -0.13218  0  3.98878  0  0  -0.136919  0  4.010018  0  0  -0.086645  -0.129105  0  3.974299  0
C  C48  1  0.20216595  0.96256191  0.81203138  1  0  0.050084  0  3.735954  0  0  0.056052  0  3.969526  0  0  0.059018  0  3.991172  0  0  0.005245  0.054353  0  3.95479  0
C  C49  1  0.79783304  0.03743789  0.18797099  1  0  0.050118  0  3.735984  0  0  0.056028  0  3.969568  0  0  0.058994  0  3.991212  0  0  0.005267  0.054329  0  3.954829  0
C  C50  1  0.05922632  0.88111574  0.85734838  1  0  0.085995  0  3.753538  0  0  0.096171  0  3.990566  0  0  0.098956  0  4.011345  0  0  0.007627  0.094317  0  3.976342  0
C  C51  1  0.94077142  0.11888409  0.14265738  1  0  0.085808  0  3.753707  0  0  0.09614  0  3.990579  0  0  0.098926  0  4.011351  0  0  0.007612  0.094282  0  3.976359  0
C  C52  1  0.08157858  0.76758660  0.92262189  1  0  -0.107631  0  3.704577  0  0  -0.125611  0  3.950752  0  0  -0.12971  0  3.970021  0  0  -0.085817  -0.122881  0  3.937602  0
C  C53  1  0.91841927  0.23241128  0.07738081  1  0  -0.107508  0  3.704612  0  0  -0.12557  0  3.950765  0  0  -0.129658  0  3.970041  0  0  -0.085804  -0.122849  0  3.937609  0
C  C54  1  0.95304794  0.68503343  0.96088718  1  0  -0.056048  0  3.73821  0  0  -0.081996  0  3.990249  0  0  -0.080143  0  4.010012  0  0  -0.08347  -0.082945  0  3.976716  0
C  C55  1  0.04695231  0.31496542  0.03911749  1  0  -0.056064  0  3.73801  0  0  -0.081974  0  3.99009  0  0  -0.080122  0  4.009848  0  0  -0.08347  -0.082925  0  3.976561  0
C  C56  1  0.79739062  0.71646264  0.93778138  1  0  -0.098212  0  3.798658  0  0  -0.077933  0  4.038424  0  0  -0.088836  0  4.06399  0  0  -0.025738  -0.070737  0  4.021074  0
C  C57  1  0.20261097  0.28353427  0.06222085  1  0  -0.098153  0  3.798515  0  0  -0.077948  0  4.038427  0  0  -0.08885  0  4.063994  0  0  -0.025708  -0.070751  0  4.021071  0
C  C58  1  0.66599208  0.62345375  0.97301812  1  0  0.653574  0  3.813167  0  0  0.602586  0  4.110589  0  0  0.63708  0  4.101727  0  0  0.235291  0.579231  0  4.115997  0
C  C59  1  0.33400947  0.37654413  0.02698484  1  0  0.653826  0  3.812958  0  0  0.602739  0  4.110545  0  0  0.637234  0  4.10168  0  0  0.235369  0.579385  0  4.11595  0
C  C60  1  0.77203764  0.83306321  0.87739364  1  0  -0.042716  0  3.706357  0  0  -0.069429  0  3.960028  0  0  -0.067612  0  3.979863  0  0  -0.077061  -0.07045  0  3.946543  0
C  C61  1  0.22796515  0.16693464  0.12260672  1  0  -0.04279  0  3.706578  0  0  -0.069465  0  3.960281  0  0  -0.067651  0  3.980117  0  0  -0.07709  -0.070486  0  3.946788  0
C  C62  1  0.90198276  0.91409235  0.83686503  1  0  -0.101799  0  3.688757  0  0  -0.121833  0  3.939807  0  0  -0.125643  0  3.957877  0  0  -0.08278  -0.11919  0  3.92753  0
C  C63  1  0.09801870  0.08590743  0.16313617  1  0  -0.101687  0  3.688828  0  0  -0.121777  0  3.939835  0  0  -0.125583  0  3.957908  0  0  -0.082757  -0.119136  0  3.92756  0
C  C64  1  0.24180618  0.50680998  0.56570586  1  0  0.13581  0  3.69549  0  0  0.102745  0  3.950645  0  0  0.110066  0  3.968281  0  0  0.052852  0.098103  0  3.938395  0
C  C65  1  0.75819497  0.49319651  0.43429324  1  0  0.135847  0  3.695342  0  0  0.10281  0  3.950491  0  0  0.110129  0  3.968123  0  0  0.052872  0.098168  0  3.938242  0
C  C66  1  0.28243296  0.39852012  0.62954600  1  0  -0.132146  0  3.733494  0  0  -0.143786  0  3.985264  0  0  -0.151476  0  4.007746  0  0  -0.083831  -0.138819  0  3.970212  0
C  C67  1  0.71756360  0.60147964  0.37045033  1  0  -0.132228  0  3.733476  0  0  -0.14382  0  3.985273  0  0  -0.151506  0  4.007753  0  0  -0.083895  -0.138867  0  3.97023  0
C  C68  1  0.16113055  0.35102680  0.71835878  1  0  -0.024573  0  3.755433  0  0  -0.037033  0  3.997324  0  0  -0.035502  0  4.01959  0  0  -0.066729  -0.0378  0  3.982141  0
C  C69  1  0.83887077  0.64897586  0.28164220  1  0  -0.024544  0  3.755533  0  0  -0.037028  0  3.997429  0  0  -0.035495  0  4.019693  0  0  -0.066713  -0.037795  0  3.982248  0
C  C70  1  0.00364675  0.41006462  0.73796611  1  0  -0.153246  0  3.717391  0  0  -0.168073  0  3.959246  0  0  -0.175302  0  3.98038  0  0  -0.074149  -0.163429  0  3.94505  0
C  C71  1  0.99634980  0.58993515  0.26203182  1  0  -0.15327  0  3.717639  0  0  -0.168116  0  3.95946  0  0  -0.175348  0  3.980596  0  0  -0.074122  -0.163471  0  3.945258  0
C  C72  1  0.97042322  0.51567348  0.66746549  1  0  0.17587  0  3.758682  0  0  0.169672  0  4.001916  0  0  0.176419  0  4.022355  0  0  0.125999  0.165364  0  3.98736  0
C  C73  1  0.02957807  0.48433012  0.33253302  1  0  0.175876  0  3.758878  0  0  0.16972  0  4.002083  0  0  0.17647  0  4.02252  0  0  0.126022  0.165412  0  3.987522  0
C  C74  1  0.80277739  0.57684946  0.67953233  1  0  0.171087  0  3.778245  0  0  0.166496  0  4.02494  0  0  0.172588  0  4.046158  0  0  0.122735  0.162474  0  4.010335  0
C  C75  1  0.19721806  0.42314835  0.32045791  1  0  0.171098  0  3.778241  0  0  0.166448  0  4.024975  0  0  0.172538  0  4.04619  0  0  0.122612  0.162425  0  4.010369  0
C  C76  1  0.66291975  0.51238059  0.73793445  1  0  -0.142533  0  3.690004  0  0  -0.163803  0  3.943964  0  0  -0.170497  0  3.964222  0  0  -0.080904  -0.159588  0  3.930719  0
C  C77  1  0.33708156  0.48762209  0.26206975  1  0  -0.142586  0  3.690077  0  0  -0.163811  0  3.944007  0  0  -0.170504  0  3.964267  0  0  -0.080876  -0.159605  0  3.93077  0
C  C78  1  0.50786760  0.57318563  0.74410892  1  0  -0.003682  0  3.729684  0  0  -0.021759  0  3.979457  0  0  -0.018568  0  3.9981  0  0  -0.069314  -0.02364  0  3.966831  0
C  C79  1  0.49212666  0.42681125  0.25588398  1  0  -0.00362  0  3.729745  0  0  -0.021692  0  3.979481  0  0  -0.0185  0  3.998125  0  0  -0.069257  -0.023574  0  3.966854  0
C  C80  1  0.49510479  0.69588180  0.69229993  1  0  -0.103845  0  3.688429  0  0  -0.115331  0  3.937722  0  0  -0.121741  0  3.958642  0  0  -0.078473  -0.111257  0  3.923953  0
C  C81  1  0.50489423  0.30411796  0.30769764  1  0  -0.103809  0  3.688423  0  0  -0.115292  0  3.937701  0  0  -0.121701  0  3.958614  0  0  -0.078466  -0.111217  0  3.923926  0
C  C82  1  0.63998155  0.75328138  0.63525487  1  0  0.124348  0  3.709859  0  0  0.096302  0  3.96124  0  0  0.10222  0  3.980146  0  0  0.052145  0.092443  0  3.948436  0
C  C83  1  0.36001114  0.24672130  0.36474580  1  0  0.124355  0  3.709765  0  0  0.096291  0  3.961145  0  0  0.102224  0  3.980058  0  0  0.052128  0.092431  0  3.948338  0
N  N84  1  0.09030738  0.56351194  0.58376366  1  0  -0.346715  0  3.19827  0  0  -0.276453  0  3.448802  0  0  -0.294685  0  3.468357  0  0  -0.290365  -0.263575  0  3.434612  0
N  N85  1  0.90969283  0.43648877  0.41623285  1  0  -0.346706  0  3.198097  0  0  -0.276459  0  3.448636  0  0  -0.294691  0  3.468189  0  0  -0.290361  -0.263581  0  3.434444  0
N  N86  1  0.78966948  0.69502832  0.62844321  1  0  -0.363474  0  3.2122  0  0  -0.295531  0  3.459505  0  0  -0.314346  0  3.481595  0  0  -0.295811  -0.282479  0  3.444144  0
N  N87  1  0.21032688  0.30497531  0.37155684  1  0  -0.363527  0  3.212254  0  0  -0.295573  0  3.459584  0  0  -0.314385  0  3.481664  0  0  -0.295832  -0.28252  0  3.444218  0
O  O88  1  0.13415381  0.82902720  0.63419684  1  0  -0.593121  0  2.007765  0  0  -0.519643  0  2.23746  0  0  -0.549149  0  2.232855  0  0  -0.282472  -0.498958  0  2.239768  0
O  O89  1  0.86584010  0.17097551  0.36580765  1  0  -0.593055  0  2.007873  0  0  -0.51962  0  2.237638  0  0  -0.549125  0  2.233032  0  0  -0.282469  -0.498935  0  2.239944  0
O  O90  1  0.17987435  0.00995535  0.52225780  1  0  -0.664285  0  1.984062  0  0  -0.594242  0  2.213321  0  0  -0.623663  0  2.207328  0  0  -0.301401  -0.57317  0  2.21646  0
O  O91  1  0.82012597  0.99004252  0.47774374  1  0  -0.664261  0  1.984094  0  0  -0.594211  0  2.213352  0  0  -0.623637  0  2.207366  0  0  -0.301412  -0.573141  0  2.216491  0
O  O92  1  0.64940659  0.24669956  0.59267629  1  0  -0.657671  0  1.972324  0  0  -0.5932  0  2.207756  0  0  -0.620818  0  2.200233  0  0  -0.320146  -0.573405  0  2.212091  0
O  O93  1  0.35059494  0.75329923  0.40732098  1  0  -0.657628  0  1.972406  0  0  -0.593196  0  2.207891  0  0  -0.620819  0  2.200382  0  0  -0.320184  -0.573406  0  2.212231  0
O  O94  1  0.73701211  0.19107082  0.75004416  1  0  -0.649902  0  1.919464  0  0  -0.600497  0  2.137771  0  0  -0.625257  0  2.130859  0  0  -0.329038  -0.582507  0  2.14159  0
O  O95  1  0.26298938  0.80892893  0.24995304  1  0  -0.64986  0  1.919542  0  0  -0.600449  0  2.137834  0  0  -0.625211  0  2.130932  0  0  -0.32899  -0.582458  0  2.141652  0
O  O96  1  0.51378982  0.67096119  0.97616778  1  0  -0.539354  0  2.10823  0  0  -0.488303  0  2.327159  0  0  -0.510309  0  2.313119  0  0  -0.322729  -0.473029  0  2.336301  0
O  O97  1  0.48621305  0.32903476  0.02383593  1  0  -0.539394  0  2.108122  0  0  -0.488338  0  2.327085  0  0  -0.510344  0  2.313044  0  0  -0.322769  -0.473074  0  2.336246  0
O  O98  1  0.69791178  0.50715665  0.99656865  1  0  -0.585376  0  1.994176  0  0  -0.533452  0  2.215578  0  0  -0.556234  0  2.206716  0  0  -0.289725  -0.517793  0  2.221233  0
O  O99  1  0.30209120  0.49283735  0.00343040  1  0  -0.585542  0  1.994208  0  0  -0.533531  0  2.215663  0  0  -0.556313  0  2.206801  0  0  -0.289787  -0.517876  0  2.221319  0
