# generated using pymatgen
data_CuH7C12SN2
_symmetry_space_group_name_H-M   'P 1'
_cell_length_a   3.77708266
_cell_length_b   12.73064787
_cell_length_c   19.03266007
_cell_angle_alpha   90.00004097
_cell_angle_beta   89.99994569
_cell_angle_gamma   93.85123578
_symmetry_Int_Tables_number   1
_chemical_formula_structural   CuH7C12SN2
_chemical_formula_sum   'Cu4 H28 C48 S4 N8'
_cell_volume   913.11327330
_cell_formula_units_Z   4
loop_
 _symmetry_equiv_pos_site_id
 _symmetry_equiv_pos_as_xyz
  1  'x, y, z'
loop_
 _atom_site_type_symbol
 _atom_site_label
 _atom_site_symmetry_multiplicity
 _atom_site_fract_x
 _atom_site_fract_y
 _atom_site_fract_z
 _atom_site_occupancy
 _atom_site_hle17_bader_spin_density
 _atom_site_hle17_ddec_charge
 _atom_site_hle17_ddec_spin_density
 _atom_site_hle17_ddec_sum_bond_order
 _atom_site_hle17_magmom
 _atom_site_hse06_10hf_bader_spin_density
 _atom_site_hse06_10hf_ddec_charge
 _atom_site_hse06_10hf_ddec_spin_density
 _atom_site_hse06_10hf_ddec_sum_bond_order
 _atom_site_hse06_10hf_magmom
 _atom_site_hse06_bader_spin_density
 _atom_site_hse06_ddec_charge
 _atom_site_hse06_ddec_spin_density
 _atom_site_hse06_ddec_sum_bond_order
 _atom_site_hse06_magmom
 _atom_site_pbe_bader_spin_density
 _atom_site_pbe_cm5_charge
 _atom_site_pbe_ddec_charge
 _atom_site_pbe_ddec_spin_density
 _atom_site_pbe_ddec_sum_bond_order
 _atom_site_pbe_magmom
Cu  Cu0  1  0.58432491  0.02543879  0.42759282  1  0  0.362356  0  2.182355  0  0  0.27911  0  2.672449  0  0  0.272168  0  2.632726  0  0  0.436922  0.286459  0  2.697039  0
Cu  Cu1  1  0.41565959  0.47455994  0.92759189  1  0  0.36235  0  2.182264  0  0  0.279089  0  2.672361  0  0  0.272192  0  2.632638  0  0  0.436888  0.286444  0  2.696966  0
Cu  Cu2  1  0.41567816  0.97455408  0.57240518  1  0  0.362279  0  2.182308  0  0  0.279003  0  2.672408  0  0  0.272038  0  2.632727  0  0  0.436855  0.286346  0  2.697016  0
Cu  Cu3  1  0.58433541  0.52544396  0.07240506  1  0  0.362298  0  2.1823  0  0  0.279021  0  2.672385  0  0  0.272091  0  2.632677  0  0  0.436856  0.286375  0  2.696979  0
H  H4  1  0.28463502  0.02744901  0.26602374  1  0  0.067805  0  0.964181  0  0  0.078072  0  1.030544  0  0  0.080608  0  1.028022  0  0  0.106883  0.076248  0  1.032319  0
H  H5  1  0.71535078  0.47255270  0.76602432  1  0  0.067859  0  0.964094  0  0  0.078152  0  1.030428  0  0  0.080687  0  1.027906  0  0  0.106936  0.076331  0  1.032206  0
H  H6  1  0.71538009  0.97255016  0.73397320  1  0  0.067821  0  0.964112  0  0  0.078064  0  1.030504  0  0  0.080599  0  1.027982  0  0  0.106867  0.076245  0  1.032276  0
H  H7  1  0.28464917  0.52744963  0.23397421  1  0  0.067835  0  0.964156  0  0  0.078077  0  1.030557  0  0  0.080613  0  1.028034  0  0  0.106899  0.076253  0  1.03233  0
H  H8  1  0.23130822  0.16788722  0.17440916  1  0  0.093507  0  0.963911  0  0  0.106509  0  1.023005  0  0  0.109135  0  1.022929  0  0  0.100526  0.104653  0  1.023234  0
H  H9  1  0.76867524  0.33211439  0.67440913  1  0  0.093517  0  0.963914  0  0  0.106501  0  1.023022  0  0  0.109127  0  1.022945  0  0  0.100539  0.104647  0  1.023248  0
H  H10  1  0.76868378  0.83211511  0.82559094  1  0  0.093482  0  0.963979  0  0  0.10647  0  1.023088  0  0  0.109096  0  1.023011  0  0  0.10051  0.104614  0  1.023311  0
H  H11  1  0.23132151  0.66788557  0.32559097  1  0  0.093505  0  0.963904  0  0  0.106496  0  1.023008  0  0  0.109122  0  1.022932  0  0  0.10054  0.104637  0  1.023238  0
H  H12  1  0.49601399  0.34935330  0.19794450  1  0  0.095601  0  0.980148  0  0  0.103154  0  1.051136  0  0  0.106361  0  1.049874  0  0  0.09379  0.10077  0  1.052195  0
H  H13  1  0.50396921  0.15064755  0.69794340  1  0  0.095615  0  0.980072  0  0  0.103122  0  1.051111  0  0  0.106331  0  1.049847  0  0  0.093789  0.100752  0  1.052147  0
H  H14  1  0.50396742  0.65064903  0.80205928  1  0  0.095618  0  0.980052  0  0  0.103126  0  1.051119  0  0  0.106337  0  1.049852  0  0  0.093776  0.100753  0  1.052155  0
H  H15  1  0.49604023  0.84935005  0.30205775  1  0  0.095631  0  0.980074  0  0  0.103111  0  1.051146  0  0  0.106318  0  1.049887  0  0  0.09377  0.100746  0  1.052159  0
H  H16  1  0.82766924  0.47396014  0.28373124  1  0  0.087649  0  0.98304  0  0  0.0998  0  1.04611  0  0  0.102451  0  1.045082  0  0  0.097496  0.097865  0  1.046939  0
H  H17  1  0.17232690  0.02604080  0.78372911  1  0  0.087651  0  0.983013  0  0  0.099816  0  1.046055  0  0  0.10247  0  1.04503  0  0  0.097487  0.097876  0  1.046891  0
H  H18  1  0.17233034  0.52604061  0.71627254  1  0  0.087649  0  0.982969  0  0  0.099796  0  1.046047  0  0  0.102446  0  1.045018  0  0  0.097518  0.097862  0  1.046875  0
H  H19  1  0.82768610  0.97396073  0.21627309  1  0  0.087672  0  0.982915  0  0  0.099799  0  1.046016  0  0  0.102449  0  1.044989  0  0  0.097494  0.097861  0  1.046846  0
H  H20  1  0.13606746  0.50178213  0.39808423  1  0  0.08592  0  0.962205  0  0  0.099161  0  1.023434  0  0  0.101554  0  1.022794  0  0  0.096768  0.097431  0  1.023967  0
H  H21  1  0.86391375  0.99821864  0.89808267  1  0  0.086016  0  0.9622  0  0  0.099304  0  1.023368  0  0  0.101685  0  1.02274  0  0  0.096804  0.097572  0  1.023902  0
H  H22  1  0.86392857  0.49821469  0.60191955  1  0  0.085895  0  0.962276  0  0  0.099163  0  1.023466  0  0  0.101557  0  1.022824  0  0  0.096761  0.097435  0  1.024  0
H  H23  1  0.13607880  0.00178605  0.10191848  1  0  0.085976  0  0.962211  0  0  0.099244  0  1.023394  0  0  0.10164  0  1.022749  0  0  0.096795  0.09751  0  1.023934  0
H  H24  1  0.30925063  0.42873942  0.51767126  1  0  0.085097  0  0.960696  0  0  0.098348  0  1.023922  0  0  0.100616  0  1.022081  0  0  0.098969  0.096687  0  1.025247  0
H  H25  1  0.69072014  0.07126203  0.01767061  1  0  0.085157  0  0.96068  0  0  0.098401  0  1.023917  0  0  0.100641  0  1.022109  0  0  0.098982  0.096752  0  1.025199  0
H  H26  1  0.69076001  0.57125188  0.48233042  1  0  0.085176  0  0.960701  0  0  0.098378  0  1.023968  0  0  0.100646  0  1.02213  0  0  0.098972  0.096709  0  1.025293  0
H  H27  1  0.30924208  0.92874897  0.98232843  1  0  0.085142  0  0.960725  0  0  0.098341  0  1.024  0  0  0.100621  0  1.022147  0  0  0.098963  0.096675  0  1.025329  0
H  H28  1  0.27114202  0.27684674  0.60088871  1  0  0.099001  0  0.971806  0  0  0.112879  0  1.031477  0  0  0.115092  0  1.032187  0  0  0.097929  0.111257  0  1.0312  0
H  H29  1  0.72884928  0.22315322  0.10088917  1  0  0.098983  0  0.971837  0  0  0.112865  0  1.031516  0  0  0.115077  0  1.032226  0  0  0.097921  0.111242  0  1.031249  0
H  H30  1  0.72887073  0.72314220  0.39910929  1  0  0.099066  0  0.971691  0  0  0.112935  0  1.03136  0  0  0.115147  0  1.032071  0  0  0.097971  0.111299  0  1.031106  0
H  H31  1  0.27111577  0.77685857  0.89910777  1  0  0.099035  0  0.97169  0  0  0.112896  0  1.031383  0  0  0.115107  0  1.032095  0  0  0.09795  0.111263  0  1.031122  0
C  C32  1  0.39215771  0.10794029  0.27513756  1  0  0.119522  0  3.715832  0  0  0.088424  0  3.974795  0  0  0.096078  0  3.988384  0  0  0.038143  0.083621  0  3.965464  0
C  C33  1  0.60782787  0.39206064  0.77513864  1  0  0.119476  0  3.715741  0  0  0.088355  0  3.974736  0  0  0.096011  0  3.988324  0  0  0.038117  0.083553  0  3.965415  0
C  C34  1  0.60785210  0.89205888  0.72486044  1  0  0.119669  0  3.715711  0  0  0.08857  0  3.974654  0  0  0.096226  0  3.988239  0  0  0.038179  0.083765  0  3.965327  0
C  C35  1  0.39217701  0.60794011  0.22486093  1  0  0.11954  0  3.715832  0  0  0.088446  0  3.974801  0  0  0.096108  0  3.988391  0  0  0.03814  0.083647  0  3.965469  0
C  C36  1  0.36578338  0.18656613  0.22396606  1  0  -0.129879  0  3.760676  0  0  -0.14337  0  4.016415  0  0  -0.149639  0  4.036129  0  0  -0.094399  -0.139573  0  4.003192  0
C  C37  1  0.63419936  0.31343317  0.72396659  1  0  -0.129856  0  3.760652  0  0  -0.143325  0  4.016389  0  0  -0.149594  0  4.036101  0  0  -0.094402  -0.139531  0  4.00317  0
C  C38  1  0.63421620  0.81343462  0.77603351  1  0  -0.129889  0  3.760623  0  0  -0.14335  0  4.016352  0  0  -0.149619  0  4.036065  0  0  -0.094336  -0.139551  0  4.003122  0
C  C39  1  0.36580250  0.68656601  0.27603351  1  0  -0.129801  0  3.760692  0  0  -0.143266  0  4.016386  0  0  -0.149535  0  4.036096  0  0  -0.094377  -0.139472  0  4.003164  0
C  C40  1  0.50953233  0.28753887  0.23740245  1  0  -0.05113  0  3.685156  0  0  -0.077471  0  3.933919  0  0  -0.073074  0  3.949643  0  0  -0.071631  -0.080043  0  3.92312  0
C  C41  1  0.49045621  0.21246280  0.73740296  1  0  -0.051146  0  3.685269  0  0  -0.077483  0  3.934118  0  0  -0.073091  0  3.949846  0  0  -0.071623  -0.080057  0  3.923326  0
C  C42  1  0.49046196  0.71246188  0.76259923  1  0  -0.051156  0  3.685079  0  0  -0.077534  0  3.93395  0  0  -0.07314  0  3.949675  0  0  -0.071645  -0.080101  0  3.92316  0
C  C43  1  0.50955095  0.78753637  0.26259924  1  0  -0.051182  0  3.685153  0  0  -0.077492  0  3.934005  0  0  -0.073097  0  3.949732  0  0  -0.071603  -0.08006  0  3.923218  0
C  C44  1  0.67515953  0.30943448  0.30284573  1  0  0.027456  0  3.806011  0  0  0.048295  0  4.029399  0  0  0.045199  0  4.053563  0  0  -0.005165  0.050148  0  4.013112  0
C  C45  1  0.32483124  0.19056648  0.80284522  1  0  0.027415  0  3.806158  0  0  0.048243  0  4.029498  0  0  0.045148  0  4.053664  0  0  -0.00519  0.050094  0  4.013213  0
C  C46  1  0.32484480  0.69056391  0.69715490  1  0  0.02754  0  3.806018  0  0  0.048389  0  4.029384  0  0  0.045294  0  4.053548  0  0  -0.005162  0.050238  0  4.013103  0
C  C47  1  0.67517893  0.80943426  0.19715593  1  0  0.027405  0  3.806092  0  0  0.048249  0  4.029477  0  0  0.045154  0  4.053638  0  0  -0.00519  0.050096  0  4.013197  0
C  C48  1  0.68156665  0.22526183  0.35186093  1  0  0.126924  0  3.728197  0  0  0.12081  0  3.962977  0  0  0.124495  0  3.98253  0  0  0.109602  0.118152  0  3.95014  0
C  C49  1  0.31842624  0.27473761  0.85186098  1  0  0.126876  0  3.728139  0  0  0.120821  0  3.96285  0  0  0.124509  0  3.982403  0  0  0.109587  0.11817  0  3.950014  0
C  C50  1  0.31844261  0.77473498  0.64813812  1  0  0.12689  0  3.728376  0  0  0.120762  0  3.963112  0  0  0.124449  0  3.982661  0  0  0.109601  0.11811  0  3.950269  0
C  C51  1  0.68158147  0.72526393  0.14814070  1  0  0.126917  0  3.728304  0  0  0.120719  0  3.963196  0  0  0.124411  0  3.982752  0  0  0.109602  0.118069  0  3.950356  0
C  C52  1  0.83612810  0.41009629  0.32162923  1  0  -0.125092  0  3.772968  0  0  -0.148617  0  4.028257  0  0  -0.150941  0  4.049416  0  0  -0.100465  -0.146876  0  4.013787  0
C  C53  1  0.16386243  0.08990390  0.82162871  1  0  -0.125044  0  3.77315  0  0  -0.148566  0  4.028451  0  0  -0.150893  0  4.049602  0  0  -0.100461  -0.146831  0  4.013985  0
C  C54  1  0.16387888  0.58990210  0.67837349  1  0  -0.125128  0  3.772853  0  0  -0.148653  0  4.028186  0  0  -0.150977  0  4.049343  0  0  -0.10052  -0.14692  0  4.013728  0
C  C55  1  0.83614792  0.91009763  0.17837296  1  0  -0.125041  0  3.772824  0  0  -0.148523  0  4.028142  0  0  -0.150851  0  4.049303  0  0  -0.100452  -0.146787  0  4.013682  0
C  C56  1  0.00274938  0.42552622  0.38525260  1  0  -0.108588  0  3.781185  0  0  -0.130567  0  4.03726  0  0  -0.131592  0  4.058856  0  0  -0.09403  -0.129831  0  4.02252  0
C  C57  1  0.99723052  0.07447483  0.88525083  1  0  -0.108753  0  3.781666  0  0  -0.130777  0  4.037754  0  0  -0.131792  0  4.059359  0  0  -0.094041  -0.130041  0  4.023012  0
C  C58  1  0.99725176  0.57446980  0.61475013  1  0  -0.108416  0  3.780941  0  0  -0.13042  0  4.037045  0  0  -0.131445  0  4.058641  0  0  -0.09391  -0.129685  0  4.022309  0
C  C59  1  0.00276148  0.92552749  0.11475137  1  0  -0.108614  0  3.781273  0  0  -0.13062  0  4.037361  0  0  -0.131646  0  4.058956  0  0  -0.093995  -0.129888  0  4.022632  0
C  C60  1  0.00669322  0.34324870  0.43604159  1  0  0.010583  0  3.818223  0  0  0.025706  0  4.053711  0  0  0.020809  0  4.078977  0  0  -0.01576  0.028768  0  4.03669  0
C  C61  1  0.99328595  0.15675005  0.93603986  1  0  0.010673  0  3.818276  0  0  0.025768  0  4.053808  0  0  0.020876  0  4.079067  0  0  -0.015729  0.028831  0  4.036791  0
C  C62  1  0.99331550  0.65674575  0.56395956  1  0  0.010532  0  3.818211  0  0  0.025615  0  4.053751  0  0  0.020721  0  4.079019  0  0  -0.015828  0.028681  0  4.036727  0
C  C63  1  0.00670148  0.84325543  0.06395971  1  0  0.010553  0  3.818291  0  0  0.025657  0  4.053803  0  0  0.020763  0  4.079074  0  0  -0.015799  0.02872  0  4.036783  0
C  C64  1  0.83633973  0.24325802  0.42016929  1  0  0.14719  0  3.732279  0  0  0.139716  0  3.968751  0  0  0.145893  0  3.988176  0  0  0.111319  0.135645  0  3.955969  0
C  C65  1  0.16365027  0.25674149  0.92016884  1  0  0.147242  0  3.732192  0  0  0.139776  0  3.968667  0  0  0.145948  0  3.988099  0  0  0.111314  0.135697  0  3.955894  0
C  C66  1  0.16367410  0.75673564  0.57983081  1  0  0.1471  0  3.732408  0  0  0.139654  0  3.968843  0  0  0.145828  0  3.988264  0  0  0.111292  0.13558  0  3.956066  0
C  C67  1  0.83635039  0.74326398  0.07983021  1  0  0.147178  0  3.732342  0  0  0.139754  0  3.968786  0  0  0.145925  0  3.988215  0  0  0.111319  0.135681  0  3.956005  0
C  C68  1  0.16966591  0.35416489  0.50305796  1  0  -0.072822  0  3.744281  0  0  -0.098643  0  4.000583  0  0  -0.094749  0  4.018949  0  0  -0.085717  -0.100827  0  3.987851  0
C  C69  1  0.83031268  0.14583575  0.00305679  1  0  -0.072975  0  3.744209  0  0  -0.098771  0  4.000506  0  0  -0.094859  0  4.018876  0  0  -0.085737  -0.100945  0  3.987784  0
C  C70  1  0.83034528  0.64582877  0.49694267  1  0  -0.073066  0  3.744518  0  0  -0.098856  0  4.000849  0  0  -0.094965  0  4.019217  0  0  -0.08582  -0.101029  0  3.988102  0
C  C71  1  0.16965959  0.85417289  0.99694174  1  0  -0.073053  0  3.744606  0  0  -0.098837  0  4.000927  0  0  -0.094953  0  4.019288  0  0  -0.085828  -0.101022  0  3.988193  0
C  C72  1  0.14858890  0.27076386  0.54916185  1  0  -0.144838  0  3.717806  0  0  -0.162836  0  3.967185  0  0  -0.170302  0  3.987676  0  0  -0.095594  -0.158174  0  3.953317  0
C  C73  1  0.85139976  0.22923525  0.04916176  1  0  -0.144733  0  3.7179  0  0  -0.16276  0  3.967274  0  0  -0.170221  0  3.987753  0  0  -0.095538  -0.158108  0  3.95341  0
C  C74  1  0.85142157  0.72922665  0.45083720  1  0  -0.144697  0  3.717905  0  0  -0.162664  0  3.967253  0  0  -0.170129  0  3.987744  0  0  -0.095503  -0.158  0  3.953381  0
C  C75  1  0.14857552  0.77077496  0.95083571  1  0  -0.144602  0  3.717869  0  0  -0.162573  0  3.967199  0  0  -0.170038  0  3.987696  0  0  -0.09546  -0.157916  0  3.953317  0
C  C76  1  0.95985183  0.17423148  0.53052798  1  0  0.273361  0  3.768771  0  0  0.271791  0  4.027915  0  0  0.287952  0  4.04051  0  0  0.110055  0.2614  0  4.018996  0
C  C77  1  0.04014711  0.32576603  0.03052917  1  0  0.273194  0  3.769068  0  0  0.27168  0  4.028166  0  0  0.287837  0  4.040773  0  0  0.110001  0.261326  0  4.019192  0
C  C78  1  0.04015863  0.82575903  0.46947002  1  0  0.273052  0  3.769222  0  0  0.271466  0  4.028343  0  0  0.287622  0  4.040947  0  0  0.109891  0.261114  0  4.019365  0
C  C79  1  0.95984068  0.67424102  0.96946936  1  0  0.273061  0  3.769157  0  0  0.271494  0  4.02827  0  0  0.287649  0  4.040881  0  0  0.10991  0.261148  0  4.019283  0
S  S80  1  0.91969575  0.07146161  0.59016860  1  0  -0.408181  0  2.703473  0  0  -0.385644  0  3.192086  0  0  -0.397287  0  3.167155  0  0  -0.238765  -0.379104  0  3.208689  0
S  S81  1  0.08031605  0.42853517  0.09016930  1  0  -0.408174  0  2.703603  0  0  -0.38566  0  3.192222  0  0  -0.397313  0  3.167301  0  0  -0.238771  -0.379134  0  3.2088  0
S  S82  1  0.08030695  0.92852969  0.40982940  1  0  -0.408174  0  2.70367  0  0  -0.385632  0  3.192296  0  0  -0.397278  0  3.167358  0  0  -0.238743  -0.379109  0  3.208867  0
S  S83  1  0.91968215  0.57147109  0.90982870  1  0  -0.408219  0  2.703704  0  0  -0.38568  0  3.192305  0  0  -0.39735  0  3.1674  0  0  -0.238758  -0.379161  0  3.20889  0
N  N84  1  0.54715658  0.12606632  0.33726286  1  0  -0.289207  0  3.2604  0  0  -0.233266  0  3.546446  0  0  -0.239842  0  3.553283  0  0  -0.337831  -0.229126  0  3.541542  0
N  N85  1  0.45283372  0.37393311  0.83726292  1  0  -0.289201  0  3.260453  0  0  -0.233299  0  3.546534  0  0  -0.239881  0  3.55338  0  0  -0.337855  -0.229165  0  3.541641  0
N  N86  1  0.45285780  0.87392970  0.66273514  1  0  -0.289346  0  3.260608  0  0  -0.233341  0  3.546593  0  0  -0.239917  0  3.553433  0  0  -0.337833  -0.229199  0  3.541693  0
N  N87  1  0.54717681  0.62606922  0.16273560  1  0  -0.289261  0  3.260458  0  0  -0.233299  0  3.546558  0  0  -0.239896  0  3.553421  0  0  -0.337876  -0.229168  0  3.541661  0
N  N88  1  0.80762814  0.16218678  0.46661260  1  0  -0.352212  0  3.313754  0  0  -0.291304  0  3.598442  0  0  -0.300916  0  3.601781  0  0  -0.359037  -0.285497  0  3.596076  0
N  N89  1  0.19236134  0.33781121  0.96661270  1  0  -0.352082  0  3.313586  0  0  -0.29121  0  3.598269  0  0  -0.300835  0  3.601637  0  0  -0.359  -0.285414  0  3.595895  0
N  N90  1  0.19238287  0.83780609  0.53338488  1  0  -0.351945  0  3.313708  0  0  -0.290998  0  3.598351  0  0  -0.300601  0  3.601676  0  0  -0.358909  -0.285207  0  3.595986  0
N  N91  1  0.80762838  0.66219270  0.03338582  1  0  -0.352007  0  3.313728  0  0  -0.29106  0  3.598341  0  0  -0.300669  0  3.601684  0  0  -0.358915  -0.285269  0  3.595967  0
