# generated using pymatgen
data_AlH6C24(NO3)6
_symmetry_space_group_name_H-M   'P 1'
_cell_length_a   4.16302700
_cell_length_b   29.30698563
_cell_length_c   29.30713134
_cell_angle_alpha   119.99845458
_cell_angle_beta   90.00032774
_cell_angle_gamma   90.00069259
_symmetry_Int_Tables_number   1
_chemical_formula_structural   AlH6C24(NO3)6
_chemical_formula_sum   'Al2 H12 C48 N12 O36'
_cell_volume   3096.64260359
_cell_formula_units_Z   2
loop_
 _symmetry_equiv_pos_site_id
 _symmetry_equiv_pos_as_xyz
  1  'x, y, z'
loop_
 _atom_site_type_symbol
 _atom_site_label
 _atom_site_symmetry_multiplicity
 _atom_site_fract_x
 _atom_site_fract_y
 _atom_site_fract_z
 _atom_site_occupancy
 _atom_site_pbe_bader_charge
 _atom_site_pbe_bader_spin_density
 _atom_site_pbe_cm5_charge
 _atom_site_pbe_ddec_charge
 _atom_site_pbe_ddec_spin_density
 _atom_site_pbe_ddec_sum_bond_order
 _atom_site_pbe_magmom
Al  Al0  1  0.00004520  0.50000101  0.50000093  1  2.518674  0  0.45904  1.654143  0  2.51434  0
Al  Al1  1  0.99921506  0.16666124  0.83334065  1  2.519412  0  0.459278  1.653311  0  2.514853  0
H  H2  1  0.50947328  0.21574316  0.63673317  1  0.093683  0  0.128909  0.14716  0  0.96541  0
H  H3  1  0.49020312  0.36325701  0.78423550  1  0.093742  0  0.128537  0.146549  0  0.965636  0
H  H4  1  0.49031356  0.30342282  0.54906456  1  0.119852  0  0.128885  0.146775  0  0.965947  0
H  H5  1  0.50971719  0.45091527  0.69655769  1  0.120357  0  0.128939  0.146783  0  0.965901  0
H  H6  1  0.50955097  0.92096112  0.78424075  1  0.141284  0  0.128851  0.147091  0  0.965035  0
H  H7  1  0.49015582  0.92097581  0.63673944  1  0.138149  0  0.128532  0.146542  0  0.965502  0
H  H8  1  0.49032277  0.74563025  0.69656555  1  0.119909  0  0.128918  0.146823  0  0.965775  0
H  H9  1  0.50969749  0.74563541  0.54907046  1  0.122689  0  0.128896  0.146793  0  0.965771  0
H  H10  1  0.50949441  0.36328094  0.07901923  1  0.13763  0  0.128869  0.14702  0  0.965457  0
H  H11  1  0.49020669  0.21578242  0.07904469  1  0.141533  0  0.128538  0.14656  0  0.965369  0
H  H12  1  0.49031123  0.45095288  0.25437355  1  0.122016  0  0.128918  0.146776  0  0.965917  0
H  H13  1  0.50967568  0.30345174  0.25436486  1  0.120551  0  0.128844  0.146704  0  0.965812  0
C  C14  1  0.50007227  0.45962822  0.41923726  1  1.667559  0  0.286297  0.686349  0  4.056402  0
C  C15  1  0.50005552  0.45960976  0.54037874  1  1.661946  0  0.28627  0.686241  0  4.056496  0
C  C16  1  0.50006532  0.58076685  0.54038613  1  1.700882  0  0.286339  0.686378  0  4.056365  0
C  C17  1  0.49937048  0.20707242  0.79295519  1  1.706633  0  0.286568  0.683959  0  4.057614  0
C  C18  1  0.49933906  0.08586701  0.79293060  1  1.638837  0  0.286586  0.684227  0  4.057084  0
C  C19  1  0.49936094  0.20705014  0.91413461  1  1.643397  0  0.286668  0.684483  0  4.0569  0
C  C20  1  0.49959450  0.23698767  0.76302045  1  0.001244  0  0.017611  -0.096155  0  3.817728  0
C  C21  1  0.49458874  0.21136326  0.70744598  1  0.212124  0  0.089397  0.06992  0  3.897243  0
C  C22  1  0.50236487  0.23818579  0.67956737  1  -0.004106  0  -0.063903  -0.16591  0  3.900203  0
C  C23  1  0.49984549  0.29348716  0.70649559  1  0.26941  0  0.009199  0.164169  0  4.125583  0
C  C24  1  0.49724865  0.32042460  0.76179566  1  -0.004356  0  -0.063685  -0.165405  0  3.899661  0
C  C25  1  0.50483148  0.29255809  0.78863147  1  0.214037  0  0.089536  0.069876  0  3.897397  0
C  C26  1  0.49986528  0.32132428  0.67865602  1  -0.347601  0  -0.032033  -0.090879  0  4.083071  0
C  C27  1  0.49997388  0.34533540  0.65465264  1  0.032653  0  -0.029962  -0.086353  0  4.08209  0
C  C28  1  0.50000328  0.37316623  0.62681663  1  0.278996  0  0.009203  0.163477  0  4.125933  0
C  C29  1  0.49715456  0.34625184  0.57152898  1  -0.021988  0  -0.064695  -0.166527  0  3.900287  0
C  C30  1  0.50477702  0.37412743  0.54470461  1  0.262245  0  0.090413  0.071326  0  3.898306  0
C  C31  1  0.50002608  0.42968372  0.57029834  1  -0.103334  0  0.017471  -0.098241  0  3.820698  0
C  C32  1  0.49526250  0.45527928  0.62585659  1  0.262647  0  0.09023  0.071135  0  3.897775  0
C  C33  1  0.50287662  0.42845514  0.65373004  1  -0.022789  0  -0.064769  -0.166543  0  3.900327  0
C  C34  1  0.49958341  0.02602054  0.76301361  1  0.155591  0  0.017686  -0.096136  0  3.817655  0
C  C35  1  0.49464192  0.99606216  0.78863096  1  0.146233  0  0.08973  0.0699  0  3.897256  0
C  C36  1  0.50239070  0.94135886  0.76180279  1  0.173904  0  -0.06409  -0.165857  0  3.899742  0
C  C37  1  0.49983977  0.91299549  0.70650308  1  -0.061249  0  0.008997  0.163854  0  4.126392  0
C  C38  1  0.49722211  0.94136583  0.67957221  1  0.064299  0  -0.06378  -0.165452  0  3.899471  0
C  C39  1  0.50480355  0.99606666  0.70744084  1  0.147469  0  0.089604  0.070032  0  3.897048  0
C  C40  1  0.49981049  0.85732167  0.67866026  1  -0.259833  0  -0.031937  -0.090976  0  4.08441  0
C  C41  1  0.49990891  0.80930784  0.65465478  1  -0.057993  0  -0.030012  -0.08634  0  4.082647  0
C  C42  1  0.49996130  0.75364308  0.62682338  1  0.231916  0  0.009509  0.164066  0  4.125775  0
C  C43  1  0.49714542  0.72526684  0.65373692  1  0.131158  0  -0.064743  -0.166718  0  3.900219  0
C  C44  1  0.50478848  0.67057022  0.62586344  1  0.070027  0  0.090346  0.071307  0  3.898386  0
C  C45  1  0.50004677  0.64061026  0.57030755  1  0.067699  0  0.017568  -0.098374  0  3.821349  0
C  C46  1  0.49526731  0.67057253  0.54471094  1  0.158916  0  0.090242  0.071307  0  3.898153  0
C  C47  1  0.50285594  0.72526926  0.57153412  1  0.052655  0  -0.064731  -0.166685  0  3.900235  0
C  C48  1  0.49962282  0.23699221  0.97398300  1  0.158434  0  0.017757  -0.096263  0  3.817353  0
C  C49  1  0.49462819  0.29256533  0.00393240  1  0.151094  0  0.089556  0.070719  0  3.896557  0
C  C50  1  0.50237962  0.32044749  0.05863308  1  0.066196  0  -0.06409  -0.166195  0  3.900259  0
C  C51  1  0.49984487  0.29352201  0.08700841  1  0.029181  0  0.008931  0.163818  0  4.126368  0
C  C52  1  0.49723814  0.23822103  0.05864877  1  0.173697  0  -0.063625  -0.165519  0  3.898685  0
C  C53  1  0.50485538  0.21138266  0.00394775  1  0.145866  0  0.089578  0.070151  0  3.896783  0
C  C54  1  0.49982794  0.32135974  0.14268158  1  -0.144265  0  -0.032076  -0.091086  0  4.084245  0
C  C55  1  0.49991878  0.34536432  0.19069744  1  -0.174668  0  -0.029901  -0.086163  0  4.082849  0
C  C56  1  0.49994989  0.37319651  0.24636113  1  0.140784  0  0.009432  0.16395  0  4.12644  0
C  C57  1  0.49713748  0.42848599  0.27473568  1  0.052235  0  -0.064612  -0.166508  0  3.900619  0
C  C58  1  0.50479519  0.45530643  0.32943214  1  0.159018  0  0.090469  0.071577  0  3.898759  0
C  C59  1  0.50005060  0.42970906  0.35939326  1  0.100963  0  0.01745  -0.098432  0  3.820871  0
C  C60  1  0.49527233  0.37415105  0.32943107  1  0.070359  0  0.090187  0.0712  0  3.897767  0
C  C61  1  0.50284629  0.34628036  0.27473397  1  0.13146  0  -0.064568  -0.16653  0  3.900182  0
N  N62  1  0.48430464  0.15287436  0.67272592  1  0.401387  0  0.062893  0.506655  0  4.201783  0
N  N63  1  0.51511748  0.32730055  0.84711684  1  0.408574  0  0.063002  0.50628  0  4.201555  0
N  N64  1  0.51542290  0.33937597  0.48625081  1  0.420304  0  0.062179  0.506118  0  4.202382  0
N  N65  1  0.48466275  0.51373437  0.66060904  1  0.419717  0  0.062403  0.506295  0  4.202215  0
N  N66  1  0.48442282  0.01981925  0.84711670  1  0.382367  0  0.063028  0.507232  0  4.201172  0
N  N67  1  0.51511328  0.01981417  0.67270056  1  0.36861  0  0.062974  0.506456  0  4.201496  0
N  N68  1  0.51542470  0.64686804  0.66061841  1  0.418868  0  0.062232  0.506161  0  4.202047  0
N  N69  1  0.48468150  0.64687132  0.48625517  1  0.410922  0  0.062199  0.506074  0  4.202213  0
N  N70  1  0.48433971  0.32728550  0.98016221  1  0.366704  0  0.06279  0.506442  0  4.202239  0
N  N71  1  0.51509860  0.15289866  0.98020866  1  0.380637  0  0.062679  0.506041  0  4.201474  0
N  N72  1  0.51544899  0.51376079  0.35313443  1  0.410536  0  0.062037  0.50562  0  4.203339  0
N  N73  1  0.48469014  0.33939266  0.35312790  1  0.41912  0  0.062437  0.506407  0  4.202291  0
O  O74  1  0.73969785  0.55823864  0.54702755  1  -1.237274  0  -0.2232  -0.586388  0  2.426004  0
O  O75  1  0.73970726  0.48879538  0.44176766  1  -1.239216  0  -0.223197  -0.586415  0  2.426208  0
O  O76  1  0.73969999  0.45297412  0.51121433  1  -1.235267  0  -0.223157  -0.58637  0  2.426102  0
O  O77  1  0.26043287  0.55823931  0.51121822  1  -1.238365  0  -0.223325  -0.586537  0  2.425633  0
O  O78  1  0.26043315  0.48877879  0.54702022  1  -1.234309  0  -0.223322  -0.586521  0  2.425682  0
O  O79  1  0.26043913  0.45298427  0.44176226  1  -1.236843  0  -0.223315  -0.58654  0  2.425654  0
O  O80  1  0.73887490  0.17785007  0.89159400  1  -1.244963  0  -0.223488  -0.585995  0  2.424804  0
O  O81  1  0.73890619  0.21372912  0.82215232  1  -1.241955  0  -0.223491  -0.585756  0  2.424923  0
O  O82  1  0.73887469  0.10840727  0.78627428  1  -1.24228  0  -0.223509  -0.585877  0  2.424619  0
O  O83  1  0.25970581  0.21370748  0.89162434  1  -1.245457  0  -0.22341  -0.585749  0  2.425304  0
O  O84  1  0.25969045  0.10837689  0.82209993  1  -1.240555  0  -0.223409  -0.585574  0  2.425228  0
O  O85  1  0.25971420  0.17790192  0.78629348  1  -1.243076  0  -0.223366  -0.585473  0  2.425496  0
O  O86  1  0.27608272  0.12840082  0.68140907  1  -0.395222  0  -0.094291  -0.269783  0  2.006967  0
O  O87  1  0.67948082  0.13436182  0.63598403  1  -0.386099  0  -0.117092  -0.309142  0  1.908138  0
O  O88  1  0.72336994  0.31864638  0.87160815  1  -0.399581  0  -0.094502  -0.26964  0  2.007136  0
O  O89  1  0.31990565  0.36403714  0.86560551  1  -0.389925  0  -0.116958  -0.308879  0  1.907428  0
O  O90  1  0.72366066  0.34808845  0.46179916  1  -0.398729  0  -0.094511  -0.269737  0  2.007016  0
O  O91  1  0.32077178  0.30256157  0.46773726  1  -0.415892  0  -0.116715  -0.309043  0  1.907233  0
O  O92  1  0.27644250  0.53819507  0.65190490  1  -0.398362  0  -0.094439  -0.269773  0  2.006814  0
O  O93  1  0.67934953  0.53223832  0.69741786  1  -0.415698  0  -0.116927  -0.309106  0  1.907517  0
O  O94  1  0.27623723  0.05298066  0.87159621  1  -0.404703  0  -0.0944  -0.27  0  2.006495  0
O  O95  1  0.67956411  0.00157688  0.86562144  1  -0.389989  0  -0.1172  -0.30947  0  1.907748  0
O  O96  1  0.72338154  0.05295715  0.68135606  1  -0.384843  0  -0.094439  -0.269714  0  2.007344  0
O  O97  1  0.31991487  0.00156749  0.63596068  1  -0.384452  0  -0.117062  -0.309056  0  1.907334  0
O  O98  1  0.72368268  0.61370746  0.65191129  1  -0.394498  0  -0.09456  -0.269751  0  2.006969  0
O  O99  1  0.32074815  0.66516319  0.69742620  1  -0.415906  0  -0.116732  -0.309054  0  1.907177  0
O  O100  1  0.27646816  0.61370538  0.46179412  1  -0.393887  0  -0.094298  -0.269584  0  2.006725  0
O  O101  1  0.67938155  0.66517320  0.46774993  1  -0.416203  0  -0.116916  -0.309151  0  1.907585  0
O  O102  1  0.27612480  0.31859396  0.94700159  1  -0.386761  0  -0.094236  -0.26966  0  2.006966  0
O  O103  1  0.67946404  0.36403491  0.99839408  1  -0.383842  0  -0.117082  -0.309281  0  1.908507  0
O  O104  1  0.72332281  0.12840311  0.94706200  1  -0.403076  0  -0.094352  -0.269602  0  2.007037  0
O  O105  1  0.31987008  0.13441333  0.99845993  1  -0.389515  0  -0.116939  -0.308844  0  1.907359  0
O  O106  1  0.72368376  0.53821300  0.38629752  1  -0.394131  0  -0.094547  -0.26968  0  2.007598  0
O  O107  1  0.32078573  0.53227359  0.33483354  1  -0.415799  0  -0.116649  -0.308846  0  1.907468  0
O  O108  1  0.27644847  0.34809177  0.38628874  1  -0.393961  0  -0.094494  -0.26983  0  2.0069  0
O  O109  1  0.67938312  0.30258684  0.33482651  1  -0.416171  0  -0.116896  -0.309158  0  1.907652  0
