# generated using pymatgen
data_CoH10C10(NO2)2
_symmetry_space_group_name_H-M   'P 1'
_cell_length_a   6.39077260
_cell_length_b   8.04731171
_cell_length_c   25.09399688
_cell_angle_alpha   89.52446461
_cell_angle_beta   89.95322973
_cell_angle_gamma   92.20292508
_symmetry_Int_Tables_number   1
_chemical_formula_structural   CoH10C10(NO2)2
_chemical_formula_sum   'Co4 H40 C40 N8 O16'
_cell_volume   1289.54858015
_cell_formula_units_Z   4
loop_
 _symmetry_equiv_pos_site_id
 _symmetry_equiv_pos_as_xyz
  1  'x, y, z'
loop_
 _atom_site_type_symbol
 _atom_site_label
 _atom_site_symmetry_multiplicity
 _atom_site_fract_x
 _atom_site_fract_y
 _atom_site_fract_z
 _atom_site_occupancy
 _atom_site_pbe_bader_charge
 _atom_site_pbe_bader_spin_density
 _atom_site_pbe_cm5_charge
 _atom_site_pbe_ddec_charge
 _atom_site_pbe_ddec_spin_density
 _atom_site_pbe_ddec_sum_bond_order
 _atom_site_pbe_magmom
Co  Co0  1  0.40719767  0.27946803  0.48406818  1  1.287411  2.632772  0.666408  0.908082  2.854108  2.439309  2.614
Co  Co1  1  0.58578993  0.72712521  0.98126937  1  1.29808  2.641472  0.676431  0.926044  2.863699  2.452829  2.621
Co  Co2  1  0.90239115  0.79109692  0.55876657  1  1.283524  2.622429  0.668296  0.905088  2.837797  2.428323  2.601
Co  Co3  1  0.08884419  0.19918572  0.06222750  1  1.302386  2.641252  0.678014  0.926052  2.862354  2.429471  2.621
H  H4  1  0.42858634  0.16996019  0.63434944  1  0.077882  0.003345  0.104884  0.064065  0.001374  0.969227  0.002
H  H5  1  0.56335048  0.82495480  0.13271107  1  0.048638  0.003816  0.105289  0.064323  0.001551  0.968573  0.002
H  H6  1  0.65462207  0.18701063  0.55946199  1  0.48867  0.000434  0.291416  0.297268  0.000253  0.985806  0.0
H  H7  1  0.33930991  0.80663759  0.05868686  1  0.485148  0.000434  0.29347  0.297688  0.000199  0.982949  0.0
H  H8  1  0.61205768  0.39180629  0.56812936  1  0.451418  0.001396  0.293642  0.295519  0.000884  0.960856  0.001
H  H9  1  0.38972009  0.60203079  0.06562069  1  0.465978  0.001076  0.292869  0.296584  0.00067  0.964205  0.0
H  H10  1  0.35015420  0.45900782  0.64042457  1  0.071057  0.000344  0.100871  0.121673  1e-05  0.995135  0.0
H  H11  1  0.64084981  0.53324471  0.13800139  1  0.053068  -0.00048  0.100561  0.120807  -0.000546  0.998534  0.0
H  H12  1  0.11168621  0.34303749  0.63554027  1  0.104677  0.000649  0.106943  0.12957  0.000232  0.968545  0.0
H  H13  1  0.87805190  0.65238851  0.13652473  1  0.05857  -6.7e-05  0.105863  0.127689  -0.000221  0.968615  0.0
H  H14  1  0.92675297  0.94411756  0.41254983  1  0.072445  0.003199  0.103404  0.064314  0.001335  0.985261  0.002
H  H15  1  0.06986098  0.05862832  0.91476611  1  0.079564  0.003709  0.104818  0.066553  0.001512  0.9805  0.002
H  H16  1  0.15002953  0.90815523  0.48696628  1  0.502427  -5.3e-05  0.292051  0.300734  -8.5e-05  0.998325  0.0
H  H17  1  0.84548916  0.09296017  0.98765506  1  0.495427  -6.8e-05  0.294091  0.300302  -0.000265  0.995848  0.0
H  H18  1  0.09622037  0.70691037  0.47022352  1  0.424358  0.002177  0.295858  0.291523  0.001207  0.952577  0.001
H  H19  1  0.90646106  0.29590599  0.97361361  1  0.446455  0.002386  0.296826  0.294259  0.001358  0.951289  0.001
H  H20  1  0.81765241  0.66075790  0.39702188  1  0.043817  0.000523  0.101986  0.11849  9.6e-05  0.989031  0.0
H  H21  1  0.17186229  0.34628574  0.89971760  1  0.054038  -0.000368  0.101614  0.117551  -0.000477  0.991332  0.0
H  H22  1  0.58954299  0.76996082  0.40889332  1  0.080415  0.000797  0.108188  0.133436  0.000314  0.96505  0.0
H  H23  1  0.40167055  0.23572162  0.90831086  1  0.084952  0.000116  0.107186  0.131707  -7.2e-05  0.96535  0.0
H  H24  1  0.99219195  0.38367739  0.45022786  1  0.133696  0.001352  0.117814  0.094717  0.000187  1.023916  0.001
H  H25  1  0.00737816  0.62154251  0.95059643  1  0.145404  0.001232  0.11907  0.096452  1.7e-05  1.028293  0.001
H  H26  1  0.75238444  0.36440672  0.37408730  1  0.11661  0.000758  0.107077  0.119737  0.000278  1.033144  0.0
H  H27  1  0.24965525  0.63950089  0.87453805  1  0.087554  0.000727  0.106463  0.118063  0.00035  1.034732  0.0
H  H28  1  0.21239945  0.06924854  0.29488769  1  0.067884  0.000703  0.103458  0.111673  0.000304  1.002039  0.0
H  H29  1  0.79155672  0.93233428  0.79243093  1  0.04552  0.000852  0.104352  0.113211  0.000385  1.001148  0.0
H  H30  1  0.43472563  0.10347944  0.37635258  1  0.151265  0.001531  0.115248  0.093271  0.000459  1.021723  0.001
H  H31  1  0.56656354  0.89915657  0.87360058  1  0.11524  0.001594  0.114034  0.089981  0.000456  1.016483  0.001
H  H32  1  0.89778914  0.12466211  0.24674929  1  0.048152  -0.000354  0.101991  0.101806  -0.000307  1.0096  0.0
H  H33  1  0.10647869  0.87582971  0.74516705  1  0.04711  -0.000296  0.102737  0.10338  -0.000238  1.008058  0.0
H  H34  1  0.59186586  0.36171314  0.29917633  1  0.095815  -0.000324  0.102596  0.103307  -0.000254  1.006171  0.0
H  H35  1  0.41283958  0.64094938  0.79955135  1  0.062659  -0.000391  0.101906  0.102497  -0.000335  1.007172  0.0
H  H36  1  0.04975357  0.36595377  0.17014137  1  0.087412  0.001466  0.114619  0.089077  0.000441  1.023116  0.001
H  H37  1  0.95078962  0.63041534  0.66873202  1  0.12608  0.001257  0.11517  0.089943  0.000226  1.024601  0.001
H  H38  1  0.27113460  0.40714232  0.25123035  1  0.05407  0.000845  0.103884  0.112712  0.00038  1.00366  0.0
H  H39  1  0.73363623  0.59410459  0.75123748  1  0.093883  0.000754  0.103404  0.11234  0.000342  1.004396  0.0
H  H40  1  0.74747422  0.13117532  0.17078742  1  0.104559  0.000856  0.107253  0.120296  0.000487  1.037336  0.0
H  H41  1  0.25422444  0.86747702  0.66960027  1  0.123317  0.000868  0.107736  0.121624  0.000424  1.038975  0.0
H  H42  1  0.51243971  0.11319485  0.09415782  1  0.132639  0.001277  0.12052  0.0945  5.1e-05  1.029525  0.001
H  H43  1  0.48493481  0.88089049  0.59204538  1  0.112148  0.001476  0.120363  0.093534  0.000432  1.023633  0.001
C  C44  1  0.22447200  0.09780242  0.57038891  1  1.586898  0.00227  0.215084  0.566411  0.001389  4.118375  0.001
C  C45  1  0.77228284  0.89835613  0.06916799  1  1.51908  -0.001933  0.217082  0.572328  -0.003028  4.11099  -0.002
C  C46  1  0.37234782  0.22868364  0.59744593  1  0.262136  0.007534  -0.001801  0.071724  0.003964  3.893488  0.004
C  C47  1  0.62237716  0.76773784  0.09616663  1  0.315454  0.00932  -0.000975  0.073846  0.005501  3.891221  0.005
C  C48  1  0.25368270  0.38191175  0.61310669  1  -0.089168  0.006341  -0.158145  -0.338942  0.003079  3.902696  0.004
C  C49  1  0.74112177  0.61443490  0.11232188  1  -0.032879  0.006207  -0.158651  -0.33672  0.00288  3.904645  0.004
C  C50  1  0.18569538  0.49750550  0.56812914  1  1.563251  0.005497  0.22268  0.658957  0.003894  4.091154  0.003
C  C51  1  0.81971227  0.50587990  0.06725707  1  1.578653  -0.002087  0.218261  0.652918  -0.003229  4.103784  0.0
C  C52  1  0.73074026  0.99493833  0.47884064  1  1.553744  0.001913  0.221606  0.579694  0.000953  4.09687  0.001
C  C53  1  0.27119641  0.00853420  0.98036099  1  1.531046  -0.002688  0.223149  0.585349  -0.004181  4.087931  -0.002
C  C54  1  0.86662242  0.87440987  0.44770608  1  0.284678  0.009068  -0.00187  0.077404  0.004682  3.882187  0.005
C  C55  1  0.13104979  0.12759898  0.94954243  1  0.294038  0.011109  -0.00048  0.077479  0.006332  3.880558  0.007
C  C56  1  0.73215791  0.72616517  0.42812205  1  -0.045475  0.005142  -0.157891  -0.340793  0.002458  3.904567  0.003
C  C57  1  0.26244589  0.27760603  0.92936977  1  -0.062964  0.005455  -0.159306  -0.340174  0.002586  3.908226  0.004
C  C58  1  0.66378573  0.59447093  0.46963231  1  1.570724  0.00328  0.219502  0.651787  0.002515  4.097633  0.002
C  C59  1  0.33790172  0.40407864  0.97115660  1  1.568815  -0.001207  0.216543  0.648071  -0.002039  4.10737  -0.001
C  C60  1  0.03660026  0.31840952  0.41433679  1  0.498508  -0.00846  0.04063  0.087345  -0.009032  3.942772  -0.004
C  C61  1  0.96449492  0.68606846  0.91414661  1  0.401955  -0.010311  0.041515  0.091138  -0.011133  3.94396  -0.005
C  C62  1  0.90359896  0.30725232  0.37088055  1  -0.092959  -0.00305  -0.08592  -0.172344  -0.003826  3.933545  0.0
C  C63  1  0.09853134  0.69672882  0.87081190  1  0.003524  -0.002491  -0.086717  -0.17526  -0.003615  3.936946  0.0
C  C64  1  0.96282498  0.21865276  0.32546606  1  0.000854  -0.017959  -0.004337  0.128264  -0.019151  4.053691  -0.01
C  C65  1  0.04058254  0.78427167  0.82457429  1  0.000709  -0.02108  -0.005186  0.128197  -0.022323  4.056321  -0.012
C  C66  1  0.15744845  0.14149410  0.32834905  1  -0.034766  -0.002752  -0.092922  -0.196715  -0.004069  3.979295  0.0
C  C67  1  0.84554176  0.86080769  0.82649647  1  -0.026808  -0.000141  -0.092534  -0.194923  -0.001876  3.981536  0.002
C  C68  1  0.28279064  0.16004798  0.37320871  1  0.430821  -0.009893  0.03609  0.079165  -0.010637  3.968182  -0.005
C  C69  1  0.71879762  0.84265029  0.87126967  1  0.431788  -0.012841  0.034946  0.074772  -0.013396  3.975118  -0.007
C  C70  1  0.83632727  0.20464905  0.27760878  1  -0.088604  -0.025542  -0.088638  -0.129164  -0.027651  3.978157  -0.014
C  C71  1  0.16794620  0.79710323  0.77674718  1  -0.080167  -0.022012  -0.089087  -0.130599  -0.024006  3.980846  -0.011
C  C72  1  0.65475818  0.28263610  0.26827017  1  -0.068876  -0.0191  -0.089794  -0.131083  -0.020739  3.977711  -0.009
C  C73  1  0.34965903  0.71905872  0.76804189  1  -0.008227  -0.021866  -0.089497  -0.130464  -0.023726  3.978906  -0.011
C  C74  1  0.20548471  0.31582580  0.17280658  1  0.436135  -0.014513  0.033364  0.074723  -0.015279  3.974657  -0.007
C  C75  1  0.79503759  0.68047174  0.67151646  1  0.437947  -0.013269  0.034053  0.077057  -0.014342  3.972632  -0.007
C  C76  1  0.33039828  0.33816088  0.21756301  1  -0.004324  0.001242  -0.092707  -0.193026  -0.001111  3.976364  0.003
C  C77  1  0.67269058  0.66124236  0.71702925  1  -0.079869  0.000318  -0.093718  -0.195395  -0.00152  3.97949  0.002
C  C78  1  0.52944527  0.26792279  0.22023866  1  -0.053693  -0.024342  -0.005238  0.126409  -0.02598  4.055755  -0.014
C  C79  1  0.47395973  0.73196887  0.71963798  1  0.007017  -0.021855  -0.005131  0.126447  -0.023249  4.05604  -0.012
C  C80  1  0.59434617  0.18487713  0.17421364  1  0.025994  -0.000574  -0.086074  -0.175018  -0.001821  3.934321  0.001
C  C81  1  0.40729030  0.81351051  0.67309681  1  -0.098188  -0.001837  -0.085777  -0.174388  -0.002995  3.93113  0.0
C  C82  1  0.46274578  0.17206974  0.13058607  1  0.452596  -0.01252  0.04216  0.093643  -0.013463  3.945058  -0.007
C  C83  1  0.53639604  0.82326636  0.62883855  1  0.507183  -0.010626  0.042083  0.095522  -0.011307  3.942341  -0.006
N  N84  1  0.54455595  0.27677131  0.56098821  1  -1.179052  0.07009  -0.633976  -0.631139  0.036849  3.421502  0.054
N  N85  1  0.45242801  0.71965752  0.05930297  1  -1.187009  0.070723  -0.633036  -0.635002  0.036782  3.416107  0.055
N  N86  1  0.03508613  0.81632355  0.48195111  1  -1.172201  0.073375  -0.635751  -0.63215  0.038552  3.433524  0.056
N  N87  1  0.96302622  0.18317500  0.98424902  1  -1.187154  0.076399  -0.634441  -0.631191  0.040381  3.417232  0.058
N  N88  1  0.22571885  0.24864786  0.41598206  1  -1.240689  0.036499  -0.332109  -0.246721  0.019208  3.558559  0.034
N  N89  1  0.77472638  0.75500330  0.91483324  1  -1.202997  0.039834  -0.334574  -0.249748  0.021173  3.569376  0.036
N  N90  1  0.26786855  0.23168512  0.12949936  1  -1.215103  0.042482  -0.336038  -0.252833  0.02302  3.568411  0.036
N  N91  1  0.73034267  0.76203154  0.62756015  1  -1.219089  0.040077  -0.335909  -0.251069  0.021578  3.571021  0.033
O  O92  1  0.23556088  0.09310269  0.51938801  1  -1.159697  0.077597  -0.309742  -0.542004  0.039768  2.414051  0.065
O  O93  1  0.77027366  0.90038149  0.01834556  1  -1.118339  0.078619  -0.304087  -0.535573  0.040492  2.433075  0.067
O  O94  1  0.10548718  0.00462925  0.59853108  1  -1.174417  0.061624  -0.303547  -0.547167  0.031182  2.233117  0.053
O  O95  1  0.88816683  0.99321307  0.09752557  1  -1.167854  0.064914  -0.309622  -0.561807  0.033273  2.260144  0.056
O  O96  1  0.20478740  0.46257987  0.51933958  1  -1.151732  0.072869  -0.298434  -0.551778  0.037516  2.279258  0.063
O  O97  1  0.80297065  0.54316779  0.01845026  1  -1.167427  0.056746  -0.300131  -0.553787  0.029114  2.254666  0.049
O  O98  1  0.10922932  0.63079729  0.58588443  1  -1.162556  0.085132  -0.321417  -0.576639  0.043985  2.407085  0.069
O  O99  1  0.90430756  0.37542947  0.08500360  1  -1.170474  0.100555  -0.323759  -0.577431  0.052355  2.43867  0.084
O  O100  1  0.73961235  0.98641052  0.52977915  1  -1.122898  0.075924  -0.303267  -0.536089  0.038816  2.374272  0.063
O  O101  1  0.27142346  0.01894587  0.03103605  1  -1.120234  0.074905  -0.299877  -0.535328  0.038701  2.381277  0.063
O  O102  1  0.61865751  0.09158827  0.45247759  1  -1.167883  0.065956  -0.299447  -0.550394  0.034011  2.3166  0.057
O  O103  1  0.38127220  0.91166492  0.95353792  1  -1.171368  0.073441  -0.30677  -0.560386  0.038023  2.333942  0.063
O  O104  1  0.69657889  0.61200445  0.51908765  1  -1.167195  0.070742  -0.29929  -0.554575  0.036154  2.289086  0.062
O  O105  1  0.30853649  0.38263833  0.02061565  1  -1.153876  0.059153  -0.298456  -0.553148  0.029933  2.255192  0.053
O  O106  1  0.57322723  0.46659966  0.44856955  1  -1.159945  0.078579  -0.324881  -0.576571  0.040962  2.369872  0.063
O  O107  1  0.43247390  0.53108322  0.94987269  1  -1.168816  0.086543  -0.328469  -0.582554  0.045293  2.384571  0.071
