# generated using pymatgen
data_SmH8(CO)8
_symmetry_space_group_name_H-M   'P 1'
_cell_length_a   8.94710757
_cell_length_b   10.51984452
_cell_length_c   12.25242160
_cell_angle_alpha   89.99963507
_cell_angle_beta   90.00053034
_cell_angle_gamma   102.59744657
_symmetry_Int_Tables_number   1
_chemical_formula_structural   SmH8(CO)8
_chemical_formula_sum   'Sm4 H32 C32 O32'
_cell_volume   1125.46246349
_cell_formula_units_Z   4
loop_
 _symmetry_equiv_pos_site_id
 _symmetry_equiv_pos_as_xyz
  1  'x, y, z'
loop_
 _atom_site_type_symbol
 _atom_site_label
 _atom_site_symmetry_multiplicity
 _atom_site_fract_x
 _atom_site_fract_y
 _atom_site_fract_z
 _atom_site_occupancy
 _atom_site_hle17_bader_spin_density
 _atom_site_hle17_ddec_charge
 _atom_site_hle17_ddec_spin_density
 _atom_site_hle17_ddec_sum_bond_order
 _atom_site_hle17_magmom
 _atom_site_hse06_10hf_bader_spin_density
 _atom_site_hse06_10hf_ddec_charge
 _atom_site_hse06_10hf_ddec_spin_density
 _atom_site_hse06_10hf_ddec_sum_bond_order
 _atom_site_hse06_10hf_magmom
 _atom_site_hse06_bader_spin_density
 _atom_site_hse06_ddec_charge
 _atom_site_hse06_ddec_spin_density
 _atom_site_hse06_ddec_sum_bond_order
 _atom_site_hse06_magmom
 _atom_site_pbe_bader_spin_density
 _atom_site_pbe_cm5_charge
 _atom_site_pbe_ddec_charge
 _atom_site_pbe_ddec_spin_density
 _atom_site_pbe_ddec_sum_bond_order
 _atom_site_pbe_magmom
Sm  Sm0  1  0.61797625  0.31508960  0.40249309  1  0  2.292544  0  1.610008  0  0  2.137191  0  2.075832  0  0  2.247368  0  1.910307  0  0  1.503208  2.103766  0  2.107392  0
Sm  Sm1  1  0.38202601  0.68491147  0.90249367  1  0  2.29255  0  1.609984  0  0  2.137229  0  2.07576  0  0  2.247376  0  1.910285  0  0  1.503221  2.103796  0  2.107325  0
Sm  Sm2  1  0.93489789  0.11950548  0.50265612  1  0  2.299208  0  1.616451  0  0  2.142962  0  2.082546  0  0  2.251453  0  1.919361  0  0  1.496867  2.109034  0  2.115158  0
Sm  Sm3  1  0.06510183  0.88049674  0.00265851  1  0  2.299199  0  1.616429  0  0  2.142954  0  2.082516  0  0  2.251438  0  1.919334  0  0  1.496848  2.108993  0  2.115173  0
H  H4  1  0.65810407  0.35236327  0.13986912  1  0  0.42231  0  0.858376  0  0  0.39795  0  0.920245  0  0  0.405309  0  0.91016  0  0  0.308835  0.392948  0  0.92719  0
H  H5  1  0.34189969  0.64763918  0.63987045  1  0  0.422367  0  0.858346  0  0  0.398007  0  0.920173  0  0  0.405365  0  0.910089  0  0  0.308879  0.393006  0  0.927114  0
H  H6  1  0.56306461  0.44183908  0.19714050  1  0  0.450696  0  0.806568  0  0  0.427924  0  0.866136  0  0  0.437514  0  0.85203  0  0  0.326665  0.421177  0  0.876186  0
H  H7  1  0.43693930  0.55816112  0.69714214  1  0  0.450673  0  0.806591  0  0  0.427904  0  0.866163  0  0  0.437492  0  0.852059  0  0  0.326659  0.421156  0  0.876213  0
H  H8  1  0.29917212  0.12797355  0.37575985  1  0  0.456837  0  0.840418  0  0  0.423426  0  0.907599  0  0  0.43553  0  0.889907  0  0  0.304973  0.414979  0  0.920016  0
H  H9  1  0.70083431  0.87202765  0.87576156  1  0  0.456922  0  0.840295  0  0  0.423487  0  0.907505  0  0  0.43559  0  0.889816  0  0  0.305021  0.41504  0  0.919922  0
H  H10  1  0.31269574  0.23030358  0.28033277  1  0  0.441117  0  0.807069  0  0  0.424374  0  0.859908  0  0  0.432832  0  0.850397  0  0  0.333133  0.418539  0  0.866857  0
H  H11  1  0.68730875  0.76969911  0.78033331  1  0  0.441092  0  0.807077  0  0  0.424357  0  0.859907  0  0  0.432813  0  0.850414  0  0  0.333123  0.418521  0  0.866856  0
H  H12  1  0.01474829  0.06796106  0.75006302  1  0  0.446974  0  0.84823  0  0  0.416436  0  0.909813  0  0  0.427883  0  0.893304  0  0  0.301024  0.408548  0  0.921233  0
H  H13  1  0.98525063  0.93203888  0.25006482  1  0  0.447055  0  0.848118  0  0  0.416565  0  0.909639  0  0  0.428012  0  0.89313  0  0  0.301103  0.408672  0  0.921069  0
H  H14  1  0.83810556  0.04326009  0.72541768  1  0  0.436376  0  0.822474  0  0  0.413861  0  0.886966  0  0  0.422786  0  0.874915  0  0  0.321847  0.407458  0  0.89464  0
H  H15  1  0.16188963  0.95674389  0.22541786  1  0  0.436361  0  0.822519  0  0  0.413849  0  0.887001  0  0  0.422773  0  0.874935  0  0  0.32186  0.407446  0  0.894676  0
H  H16  1  0.25025706  0.32163681  0.54838054  1  0  0.461089  0  0.830878  0  0  0.428425  0  0.896072  0  0  0.440616  0  0.87821  0  0  0.305153  0.420086  0  0.908308  0
H  H17  1  0.74974191  0.67836029  0.04837887  1  0  0.461062  0  0.830927  0  0  0.428388  0  0.896128  0  0  0.440577  0  0.878271  0  0  0.305131  0.420049  0  0.908364  0
H  H18  1  0.16062890  0.29775291  0.66205089  1  0  0.440011  0  0.808013  0  0  0.42764  0  0.853023  0  0  0.435447  0  0.843685  0  0  0.33617  0.422293  0  0.859215  0
H  H19  1  0.83936988  0.70224652  0.16205052  1  0  0.440034  0  0.807984  0  0  0.427665  0  0.852994  0  0  0.435473  0  0.843649  0  0  0.336184  0.422317  0  0.859189  0
H  H20  1  0.52183523  0.75565306  0.35487975  1  0  0.111464  0  0.934977  0  0  0.121129  0  0.992731  0  0  0.124982  0  0.990253  0  0  0.110691  0.11836  0  0.994447  0
H  H21  1  0.47816050  0.24434243  0.85488338  1  0  0.111396  0  0.934992  0  0  0.121051  0  0.992761  0  0  0.124902  0  0.990283  0  0  0.11064  0.118283  0  0.994478  0
H  H22  1  0.38658123  0.93771824  0.38107443  1  0  0.104755  0  0.954379  0  0  0.11443  0  1.01659  0  0  0.117313  0  1.015629  0  0  0.111384  0.112374  0  1.017218  0
H  H23  1  0.61341369  0.06227712  0.88107508  1  0  0.104747  0  0.954344  0  0  0.114401  0  1.016591  0  0  0.117284  0  1.015631  0  0  0.111375  0.112345  0  1.017218  0
H  H24  1  0.01276530  0.67408005  0.53630443  1  0  0.11081  0  0.957624  0  0  0.119684  0  1.018855  0  0  0.122766  0  1.017182  0  0  0.109184  0.117426  0  1.020036  0
H  H25  1  0.98723079  0.32591518  0.03630466  1  0  0.110791  0  0.957663  0  0  0.119695  0  1.018846  0  0  0.122778  0  1.017168  0  0  0.109164  0.117433  0  1.020027  0
H  H26  1  0.14924571  0.49210175  0.51318832  1  0  0.10147  0  0.968972  0  0  0.108561  0  1.035916  0  0  0.111875  0  1.034072  0  0  0.108635  0.10619  0  1.037173  0
H  H27  1  0.85075226  0.50789750  0.01318908  1  0  0.101527  0  0.968952  0  0  0.108595  0  1.035914  0  0  0.111908  0  1.034071  0  0  0.108672  0.106222  0  1.037172  0
H  H28  1  0.16110103  0.36783362  0.18542737  1  0  0.125365  0  0.922726  0  0  0.136606  0  0.977296  0  0  0.141484  0  0.972673  0  0  0.117645  0.133104  0  0.980599  0
H  H29  1  0.83890299  0.63216761  0.68543133  1  0  0.125414  0  0.922627  0  0  0.136614  0  0.977247  0  0  0.141491  0  0.972624  0  0  0.11763  0.133112  0  0.980555  0
H  H30  1  0.03985355  0.61600414  0.22971875  1  0  0.126254  0  0.9337  0  0  0.134007  0  0.994844  0  0  0.138531  0  0.991825  0  0  0.116681  0.130835  0  0.996781  0
H  H31  1  0.96015148  0.38399881  0.72972080  1  0  0.12625  0  0.933736  0  0  0.134027  0  0.994867  0  0  0.138551  0  0.991849  0  0  0.116683  0.130841  0  0.99682  0
H  H32  1  0.49788487  0.90595456  0.70435548  1  0  0.127937  0  0.978614  0  0  0.133054  0  1.044256  0  0  0.137319  0  1.041457  0  0  0.113137  0.129731  0  1.04692  0
H  H33  1  0.50210993  0.09404465  0.20436023  1  0  0.128  0  0.978492  0  0  0.133066  0  1.044201  0  0  0.137332  0  1.0414  0  0  0.113141  0.129746  0  1.046859  0
H  H34  1  0.29443783  0.10322725  0.66010941  1  0  0.129464  0  0.958805  0  0  0.133448  0  1.025453  0  0  0.138634  0  1.021902  0  0  0.114652  0.129701  0  1.028078  0
H  H35  1  0.70556058  0.89677511  0.16010951  1  0  0.129474  0  0.958763  0  0  0.133419  0  1.025451  0  0  0.138603  0  1.021904  0  0  0.11466  0.129673  0  1.028078  0
C  C36  1  0.34547605  0.61384966  0.43396023  1  0  -0.053955  0  3.751758  0  0  -0.031966  0  3.981856  0  0  -0.037828  0  4.003215  0  0  -0.00939  -0.027956  0  3.966843  0
C  C37  1  0.65451499  0.38614543  0.93395694  1  0  -0.054169  0  3.75197  0  0  -0.032218  0  3.982055  0  0  -0.038078  0  4.003415  0  0  -0.009457  -0.028209  0  3.967042  0
C  C38  1  0.41052579  0.73892201  0.39479479  1  0  -0.054591  0  3.69179  0  0  -0.076722  0  3.937274  0  0  -0.077788  0  3.956629  0  0  -0.073083  -0.075704  0  3.923701  0
C  C39  1  0.58946766  0.26107133  0.89479337  1  0  -0.05444  0  3.69193  0  0  -0.076555  0  3.937399  0  0  -0.077618  0  3.956753  0  0  -0.073019  -0.07554  0  3.923825  0
C  C40  1  0.33452378  0.83987615  0.40912775  1  0  -0.062351  0  3.706131  0  0  -0.085774  0  3.955841  0  0  -0.086503  0  3.976121  0  0  -0.076337  -0.085102  0  3.941635  0
C  C41  1  0.66547110  0.16012198  0.90912903  1  0  -0.062427  0  3.706277  0  0  -0.085837  0  3.956025  0  0  -0.086567  0  3.976306  0  0  -0.076353  -0.085164  0  3.941816  0
C  C42  1  0.19207257  0.81656842  0.46184998  1  0  -0.050308  0  3.745971  0  0  -0.026537  0  3.976279  0  0  -0.032945  0  3.998235  0  0  -0.009549  -0.022236  0  3.960869  0
C  C43  1  0.80792291  0.18342943  0.96184883  1  0  -0.050161  0  3.745953  0  0  -0.026422  0  3.976298  0  0  -0.032831  0  3.998257  0  0  -0.009545  -0.022121  0  3.960886  0
C  C44  1  0.12513683  0.69080782  0.49823310  1  0  -0.063251  0  3.712028  0  0  -0.085562  0  3.95352  0  0  -0.086192  0  3.97335  0  0  -0.076664  -0.084733  0  3.939492  0
C  C45  1  0.87485743  0.30918789  0.99823417  1  0  -0.063287  0  3.712143  0  0  -0.085606  0  3.953619  0  0  -0.086236  0  3.973449  0  0  -0.076601  -0.084773  0  3.939586  0
C  C46  1  0.20162773  0.59004421  0.48527049  1  0  -0.107514  0  3.765085  0  0  -0.12444  0  4.009704  0  0  -0.126018  0  4.029482  0  0  -0.086866  -0.123185  0  3.995744  0
C  C47  1  0.79836304  0.40995159  0.98527375  1  0  -0.107474  0  3.765159  0  0  -0.124383  0  4.009794  0  0  -0.125965  0  4.029585  0  0  -0.086902  -0.123123  0  3.995822  0
C  C48  1  0.43073997  0.50756500  0.42188402  1  0  0.661623  0  3.903787  0  0  0.613315  0  4.197035  0  0  0.646491  0  4.19486  0  0  0.205419  0.590301  0  4.202047  0
C  C49  1  0.56925384  0.49243697  0.92188365  1  0  0.661708  0  3.903981  0  0  0.613533  0  4.197017  0  0  0.6467  0  4.19485  0  0  0.205465  0.590517  0  4.202034  0
C  C50  1  0.10970577  0.92325648  0.48205357  1  0  0.651114  0  3.922492  0  0  0.602802  0  4.216468  0  0  0.63524  0  4.215726  0  0  0.199491  0.580176  0  4.220624  0
C  C51  1  0.89028856  0.07674030  0.98205193  1  0  0.650979  0  3.922598  0  0  0.602677  0  4.216585  0  0  0.635114  0  4.215845  0  0  0.199329  0.580051  0  4.220734  0
C  C52  1  0.99109127  0.36745960  0.31573177  1  0  0.742719  0  3.874358  0  0  0.703693  0  4.161207  0  0  0.738889  0  4.153209  0  0  0.227736  0.680098  0  4.168265  0
C  C53  1  0.00891671  0.63254191  0.81573256  1  0  0.742323  0  3.874769  0  0  0.703452  0  4.16139  0  0  0.73865  0  4.153394  0  0  0.227539  0.679849  0  4.168457  0
C  C54  1  0.09223866  0.42844959  0.22515382  1  0  -0.138253  0  3.614663  0  0  -0.16141  0  3.871183  0  0  -0.16411  0  3.881149  0  0  -0.066495  -0.159389  0  3.86326  0
C  C55  1  0.90777044  0.57155629  0.72515204  1  0  -0.138251  0  3.614716  0  0  -0.161396  0  3.871196  0  0  -0.164098  0  3.881166  0  0  -0.066448  -0.159375  0  3.863275  0
C  C56  1  0.10388073  0.55115290  0.19102312  1  0  -0.163555  0  3.634612  0  0  -0.183873  0  3.891416  0  0  -0.190241  0  3.904797  0  0  -0.076549  -0.179223  0  3.881364  0
C  C57  1  0.89612549  0.44885220  0.69102438  1  0  -0.163488  0  3.634647  0  0  -0.183852  0  3.891482  0  0  -0.190221  0  3.904865  0  0  -0.076572  -0.179195  0  3.881431  0
C  C58  1  0.20032654  0.60079260  0.09590008  1  0  0.724767  0  3.888367  0  0  0.686226  0  4.169455  0  0  0.720842  0  4.1655  0  0  0.212707  0.662407  0  4.176235  0
C  C59  1  0.79967982  0.39920910  0.59590014  1  0  0.724769  0  3.888224  0  0  0.686215  0  4.169356  0  0  0.720833  0  4.1654  0  0  0.212707  0.662411  0  4.176113  0
C  C60  1  0.55834102  0.05522714  0.57740678  1  0  0.742539  0  3.858835  0  0  0.703498  0  4.143153  0  0  0.738679  0  4.135287  0  0  0.230781  0.679987  0  4.149849  0
C  C61  1  0.44165681  0.94477274  0.07740565  1  0  0.742604  0  3.858882  0  0  0.703571  0  4.143195  0  0  0.738751  0  4.13533  0  0  0.230856  0.680059  0  4.149889  0
C  C62  1  0.45787490  0.98515725  0.66485028  1  0  -0.144851  0  3.600894  0  0  -0.165015  0  3.850674  0  0  -0.168639  0  3.862904  0  0  -0.069668  -0.162267  0  3.841233  0
C  C63  1  0.54212742  0.01484702  0.16485329  1  0  -0.144877  0  3.600741  0  0  -0.165028  0  3.85055  0  0  -0.168651  0  3.86278  0  0  -0.069687  -0.16228  0  3.841112  0
C  C64  1  0.33184496  0.02238222  0.69941790  1  0  -0.167526  0  3.629485  0  0  -0.184939  0  3.881136  0  0  -0.192281  0  3.893928  0  0  -0.075555  -0.179597  0  3.871192  0
C  C65  1  0.66815724  0.97761992  0.19941812  1  0  -0.167522  0  3.629473  0  0  -0.184894  0  3.881129  0  0  -0.192236  0  3.893922  0  0  -0.07554  -0.179558  0  3.871191  0
C  C66  1  0.24401829  0.96178849  0.79504756  1  0  0.734694  0  3.86295  0  0  0.692926  0  4.144574  0  0  0.72847  0  4.138989  0  0  0.224766  0.668764  0  4.151478  0
C  C67  1  0.75598251  0.03821217  0.29504698  1  0  0.734616  0  3.863035  0  0  0.692861  0  4.14464  0  0  0.728405  0  4.139055  0  0  0.224706  0.668701  0  4.151547  0
O  O68  1  0.54004472  0.52050542  0.35307999  1  0  -0.701245  0  1.936118  0  0  -0.650839  0  2.163034  0  0  -0.680823  0  2.150036  0  0  -0.378365  -0.634445  0  2.170831  0
O  O69  1  0.45995054  0.47949690  0.85308059  1  0  -0.701227  0  1.936373  0  0  -0.650886  0  2.163228  0  0  -0.680863  0  2.150236  0  0  -0.378336  -0.634492  0  2.171026  0
O  O70  1  0.39583837  0.40496558  0.48139078  1  0  -0.711944  0  2.02796  0  0  -0.653778  0  2.260845  0  0  -0.685108  0  2.248868  0  0  -0.353613  -0.636138  0  2.268179  0
O  O71  1  0.60416195  0.59503703  0.98138845  1  0  -0.711979  0  2.028002  0  0  -0.653853  0  2.26082  0  0  -0.685177  0  2.24885  0  0  -0.353655  -0.636207  0  2.268141  0
O  O72  1  0.15986003  0.03681044  0.43968903  1  0  -0.728136  0  2.05436  0  0  -0.668028  0  2.296902  0  0  -0.700096  0  2.285875  0  0  -0.375879  -0.649956  0  2.303664  0
O  O73  1  0.84013616  0.96318265  0.93969282  1  0  -0.728038  0  2.05447  0  0  -0.667892  0  2.296969  0  0  -0.699958  0  2.285945  0  0  -0.375738  -0.649819  0  2.303729  0
O  O74  1  0.98976867  0.90201960  0.54067278  1  0  -0.674877  0  1.915451  0  0  -0.629688  0  2.141329  0  0  -0.658834  0  2.130133  0  0  -0.370597  -0.613884  0  2.147759  0
O  O75  1  0.01022738  0.09797950  0.04067091  1  0  -0.67487  0  1.915459  0  0  -0.629697  0  2.141361  0  0  -0.658842  0  2.130162  0  0  -0.370581  -0.61389  0  2.14779  0
O  O76  1  0.87041920  0.40884333  0.33526371  1  0  -0.740664  0  1.990691  0  0  -0.691962  0  2.232931  0  0  -0.725654  0  2.219124  0  0  -0.392692  -0.674526  0  2.23968  0
O  O77  1  0.12958876  0.59115710  0.83526391  1  0  -0.74047  0  1.990822  0  0  -0.691826  0  2.232988  0  0  -0.725508  0  2.219164  0  0  -0.39259  -0.674386  0  2.239736  0
O  O78  1  0.03593873  0.27599788  0.36566096  1  0  -0.728611  0  1.983423  0  0  -0.682348  0  2.234391  0  0  -0.715639  0  2.219975  0  0  -0.393905  -0.664627  0  2.241329  0
O  O79  1  0.96406297  0.72399851  0.86566199  1  0  -0.728504  0  1.983454  0  0  -0.682286  0  2.234327  0  0  -0.715569  0  2.219896  0  0  -0.393849  -0.664557  0  2.241267  0
O  O80  1  0.18333408  0.70771717  0.05117551  1  0  -0.854002  0  2.1806  0  0  -0.791415  0  2.437275  0  0  -0.83267  0  2.423968  0  0  -0.449304  -0.772838  0  2.44455  0
O  O81  1  0.81667401  0.29228476  0.55117545  1  0  -0.853974  0  2.180472  0  0  -0.791367  0  2.437149  0  0  -0.832625  0  2.423843  0  0  -0.449289  -0.772799  0  2.444415  0
O  O82  1  0.29397848  0.53847040  0.05654589  1  0  -0.669642  0  1.923468  0  0  -0.625491  0  2.145767  0  0  -0.655103  0  2.134234  0  0  -0.369649  -0.609793  0  2.152274  0
O  O83  1  0.70602556  0.46152859  0.55654335  1  0  -0.669675  0  1.923479  0  0  -0.625516  0  2.145802  0  0  -0.655131  0  2.134264  0  0  -0.369656  -0.609821  0  2.152305  0
O  O84  1  0.51460419  0.14537381  0.52572517  1  0  -0.716491  0  2.01192  0  0  -0.666458  0  2.261755  0  0  -0.700219  0  2.248709  0  0  -0.394613  -0.648832  0  2.268109  0
O  O85  1  0.48539580  0.85462828  0.02572565  1  0  -0.71652  0  2.011977  0  0  -0.666473  0  2.261788  0  0  -0.70023  0  2.248744  0  0  -0.394644  -0.648842  0  2.268129  0
O  O86  1  0.68459490  0.01917692  0.56371450  1  0  -0.734526  0  1.971578  0  0  -0.681737  0  2.210999  0  0  -0.714836  0  2.195715  0  0  -0.396167  -0.664246  0  2.218639  0
O  O87  1  0.31540389  0.98082303  0.06371314  1  0  -0.734594  0  1.971653  0  0  -0.6818  0  2.211062  0  0  -0.714898  0  2.195776  0  0  -0.396198  -0.664304  0  2.218701  0
O  O88  1  0.13593786  0.01202938  0.83174866  1  0  -0.698762  0  1.997558  0  0  -0.639996  0  2.220281  0  0  -0.671347  0  2.207388  0  0  -0.350314  -0.622437  0  2.227398  0
O  O89  1  0.86406173  0.98796915  0.33174933  1  0  -0.698742  0  1.997593  0  0  -0.640001  0  2.220309  0  0  -0.671353  0  2.207416  0  0  -0.350319  -0.622444  0  2.22743  0
O  O90  1  0.27770688  0.86420087  0.84353468  1  0  -0.815262  0  2.140235  0  0  -0.753467  0  2.392229  0  0  -0.794012  0  2.380423  0  0  -0.412427  -0.735079  0  2.39839  0
O  O91  1  0.72229422  0.13579857  0.34353498  1  0  -0.815227  0  2.140239  0  0  -0.753414  0  2.392192  0  0  -0.793963  0  2.380387  0  0  -0.412391  -0.735026  0  2.398347  0
O  O92  1  0.58495635  0.35472323  0.19865725  1  0  -0.867196  0  1.845335  0  0  -0.821635  0  2.026598  0  0  -0.845586  0  1.994372  0  0  -0.608215  -0.809694  0  2.045805  0
O  O93  1  0.41505143  0.64527890  0.69865581  1  0  -0.867227  0  1.845311  0  0  -0.821668  0  2.026547  0  0  -0.845615  0  1.994328  0  0  -0.608249  -0.809727  0  2.04576  0
O  O94  1  0.37403782  0.18589821  0.32612241  1  0  -0.898865  0  1.850712  0  0  -0.855235  0  2.055991  0  0  -0.87985  0  2.021139  0  0  -0.625455  -0.842717  0  2.07701  0
O  O95  1  0.62596668  0.81410229  0.82612311  1  0  -0.898925  0  1.850613  0  0  -0.855304  0  2.055946  0  0  -0.879916  0  2.021117  0  0  -0.625498  -0.842785  0  2.076964  0
O  O96  1  0.93591915  0.09989938  0.70594905  1  0  -0.897529  0  1.824565  0  0  -0.852548  0  2.019856  0  0  -0.878215  0  1.985584  0  0  -0.628262  -0.839376  0  2.039152  0
O  O97  1  0.06407779  0.90010372  0.20595051  1  0  -0.897572  0  1.824553  0  0  -0.852619  0  2.019724  0  0  -0.878284  0  1.985437  0  0  -0.628331  -0.839442  0  2.039025  0
O  O98  1  0.16151258  0.26497636  0.58803950  1  0  -0.898255  0  1.823456  0  0  -0.852754  0  2.020443  0  0  -0.877757  0  1.985369  0  0  -0.621165  -0.840342  0  2.040484  0
O  O99  1  0.83848563  0.73502444  0.08803893  1  0  -0.89825  0  1.82345  0  0  -0.852737  0  2.02045  0  0  -0.877739  0  1.985371  0  0  -0.621157  -0.840322  0  2.040489  0
