# generated using pymatgen
data_NaH21C23S(NO3)2
_symmetry_space_group_name_H-M   'P 1'
_cell_length_a   6.00773828
_cell_length_b   8.61774607
_cell_length_c   21.40000000
_cell_angle_alpha   99.66944185
_cell_angle_beta   90.00000000
_cell_angle_gamma   90.00000000
_symmetry_Int_Tables_number   1
_chemical_formula_structural   NaH21C23S(NO3)2
_chemical_formula_sum   'Na2 H42 C46 S2 N4 O12'
_cell_volume   1092.20531361
_cell_formula_units_Z   2
loop_
 _symmetry_equiv_pos_site_id
 _symmetry_equiv_pos_as_xyz
  1  'x, y, z'
loop_
 _atom_site_type_symbol
 _atom_site_label
 _atom_site_symmetry_multiplicity
 _atom_site_fract_x
 _atom_site_fract_y
 _atom_site_fract_z
 _atom_site_occupancy
 _atom_site_hle17_bader_spin_density
 _atom_site_hle17_ddec_charge
 _atom_site_hle17_ddec_spin_density
 _atom_site_hle17_ddec_sum_bond_order
 _atom_site_hle17_magmom
 _atom_site_hse06_10hf_bader_spin_density
 _atom_site_hse06_10hf_ddec_charge
 _atom_site_hse06_10hf_ddec_spin_density
 _atom_site_hse06_10hf_ddec_sum_bond_order
 _atom_site_hse06_10hf_magmom
 _atom_site_hse06_bader_spin_density
 _atom_site_hse06_ddec_charge
 _atom_site_hse06_ddec_spin_density
 _atom_site_hse06_ddec_sum_bond_order
 _atom_site_hse06_magmom
 _atom_site_pbe_bader_charge
 _atom_site_pbe_bader_spin_density
 _atom_site_pbe_cm5_charge
 _atom_site_pbe_ddec_charge
 _atom_site_pbe_ddec_spin_density
 _atom_site_pbe_ddec_sum_bond_order
 _atom_site_pbe_magmom
Na  Na0  1  0.93679014  0.51069675  0.95282978  1  0  0.907389  0  0.37109  0  0  0.859473  0  0.528396  0  0  0.872208  0  0.504137  0  0.88917  0  0.650217  0.849916  0  0.545961  0
Na  Na1  1  0.43678168  0.48929908  0.04716704  1  0  0.907409  0  0.371074  0  0  0.859467  0  0.528414  0  0  0.872196  0  0.504135  0  0.889167  0  0.650211  0.849912  0  0.545978  0
H  H2  1  0.57538791  0.84980600  0.89193771  1  0  0.09347  0  0.918379  0  0  0.106344  0  0.97541  0  0  0.10788  0  0.974591  0  0.074058  0  0.119077  0.104917  0  0.976793  0
H  H3  1  0.07537446  0.15019454  0.10805896  1  0  0.093374  0  0.918499  0  0  0.1064  0  0.975323  0  0  0.107935  0  0.974504  0  0.073661  0  0.119084  0.104972  0  0.976706  0
H  H4  1  0.93498414  0.87797800  0.95666986  1  0  0.096255  0  0.932661  0  0  0.0957  0  1.006297  0  0  0.098673  0  1.003471  0  0.136412  0  0.115072  0.093483  0  1.00867  0
H  H5  1  0.43496069  0.12202608  0.04333266  1  0  0.096244  0  0.932629  0  0  0.095704  0  1.006245  0  0  0.098675  0  1.003422  0  0.136857  0  0.115075  0.093492  0  1.00861  0
H  H6  1  0.91100673  0.15565049  0.93381631  1  0  0.107893  0  0.937301  0  0  0.112246  0  1.002693  0  0  0.115655  0  0.999995  0  0.124779  0  0.13009  0.109716  0  1.004827  0
H  H7  1  0.41098828  0.84435476  0.06618535  1  0  0.107822  0  0.937297  0  0  0.112211  0  1.002631  0  0  0.115614  0  0.999947  0  0.124794  0  0.130101  0.109683  0  1.004759  0
H  H8  1  0.29129931  0.73003764  0.74067412  1  0  0.103285  0  0.971389  0  0  0.124177  0  1.035828  0  0  0.124765  0  1.037388  0  0.014624  0  0.081882  0.123767  0  1.034648  0
H  H9  1  0.79129612  0.26996173  0.25932388  1  0  0.10326  0  0.971417  0  0  0.124177  0  1.035825  0  0  0.124766  0  1.037386  0  0.014545  0  0.081894  0.123766  0  1.034646  0
H  H10  1  0.56071850  0.76807037  0.77504567  1  0  0.103042  0  0.970021  0  0  0.120804  0  1.039929  0  0  0.121876  0  1.040789  0  0.031581  0  0.081915  0.119898  0  1.039563  0
H  H11  1  0.06071503  0.23192900  0.22495139  1  0  0.103067  0  0.970013  0  0  0.120839  0  1.039906  0  0  0.121913  0  1.040763  0  0.031679  0  0.081935  0.11992  0  1.039553  0
H  H12  1  0.34618186  0.91188139  0.79089762  1  0  0.105645  0  0.962781  0  0  0.124984  0  1.026413  0  0  0.126274  0  1.026478  0  0.009275  0  0.083746  0.124015  0  1.02637  0
H  H13  1  0.84617534  0.08811915  0.20909952  1  0  0.105665  0  0.962731  0  0  0.124962  0  1.026413  0  0  0.126254  0  1.026479  0  0.009307  0  0.083725  0.123994  0  1.026368  0
H  H14  1  0.30858035  0.47452270  0.86686245  1  0  0.120268  0  0.966627  0  0  0.13708  0  1.031358  0  0  0.140044  0  1.029496  0  0.072514  0  0.101119  0.134949  0  1.03263  0
H  H15  1  0.80858216  0.52548490  0.13313750  1  0  0.120235  0  0.966631  0  0  0.137068  0  1.031342  0  0  0.140031  0  1.029481  0  0.072473  0  0.101109  0.134936  0  1.032614  0
H  H16  1  0.55029528  0.52126140  0.82672847  1  0  0.11564  0  0.966578  0  0  0.134215  0  1.034135  0  0  0.135524  0  1.034492  0  0.047699  0  0.09265  0.133189  0  1.034059  0
H  H17  1  0.05029513  0.47873914  0.17327148  1  0  0.115658  0  0.966551  0  0  0.134212  0  1.034133  0  0  0.135519  0  1.034494  0  0.047713  0  0.09265  0.133186  0  1.034055  0
H  H18  1  0.29555881  0.47614477  0.78428805  1  0  0.101508  0  0.973404  0  0  0.124748  0  1.033972  0  0  0.124689  0  1.036734  0  0.054828  0  0.082847  0.124779  0  1.032057  0
H  H19  1  0.79556229  0.52385813  0.21571158  1  0  0.101541  0  0.973409  0  0  0.124793  0  1.033951  0  0  0.124735  0  1.036713  0  0.054761  0  0.082867  0.124823  0  1.03204  0
H  H20  1  0.90834017  0.97577660  0.80371193  1  0  0.271579  0  0.965355  0  0  0.244671  0  1.052074  0  0  0.252294  0  1.046793  0  0.491793  0  0.292557  0.239279  0  1.055867  0
H  H21  1  0.40834668  0.02421805  0.19629135  1  0  0.271583  0  0.965335  0  0  0.244649  0  1.052074  0  0  0.252272  0  1.046794  0  0.491849  0  0.292557  0.239258  0  1.055865  0
H  H22  1  0.57422608  0.26252469  0.76239327  1  0  0.141397  0  0.905804  0  0  0.149742  0  0.962388  0  0  0.153665  0  0.960341  0  0.11874  0  0.127941  0.146961  0  0.963968  0
H  H23  1  0.07424092  0.73746409  0.23761101  1  0  0.141391  0  0.905869  0  0  0.149737  0  0.962461  0  0  0.153659  0  0.960419  0  0.118853  0  0.127928  0.146956  0  0.964042  0
H  H24  1  0.15418614  0.14529302  0.70482743  1  0  0.098693  0  0.970152  0  0  0.104635  0  1.039849  0  0  0.108247  0  1.037727  0  0.088771  0  0.099532  0.10211  0  1.041378  0
H  H25  1  0.65419627  0.85471106  0.29517602  1  0  0.098736  0  0.970177  0  0  0.104645  0  1.039882  0  0  0.108253  0  1.037769  0  0.088774  0  0.099525  0.102121  0  1.04141  0
H  H26  1  0.38237351  0.30260324  0.64238778  1  0  0.085472  0  0.967272  0  0  0.093877  0  1.031024  0  0  0.097037  0  1.029505  0  0.088591  0  0.09707  0.09143  0  1.032575  0
H  H27  1  0.88239530  0.69740671  0.35761420  1  0  0.085521  0  0.967373  0  0  0.093922  0  1.031122  0  0  0.097081  0  1.029609  0  0.089054  0  0.097041  0.091455  0  1.032693  0
H  H28  1  0.24108740  0.55811348  0.61927063  1  0  0.078554  0  0.98368  0  0  0.090291  0  1.044543  0  0  0.092554  0  1.044398  0  0.051006  0  0.094129  0.088785  0  1.044535  0
H  H29  1  0.74112583  0.44189295  0.38073205  1  0  0.078639  0  0.983564  0  0  0.090303  0  1.044497  0  0  0.09256  0  1.044348  0  0.050728  0  0.094129  0.088798  0  1.044486  0
H  H30  1  0.86533397  0.65476086  0.65878857  1  0  0.097776  0  0.96023  0  0  0.106807  0  1.021392  0  0  0.110091  0  1.019705  0  0.077827  0  0.098995  0.104539  0  1.02254  0
H  H31  1  0.36537544  0.34523733  0.34121589  1  0  0.09778  0  0.960201  0  0  0.106831  0  1.021349  0  0  0.11012  0  1.019663  0  0.077849  0  0.099021  0.104558  0  1.022502  0
H  H32  1  0.63463817  0.49350375  0.71934957  1  0  0.095526  0  0.971083  0  0  0.107438  0  1.034135  0  0  0.109664  0  1.034021  0  0.101486  0  0.103124  0.105633  0  1.034729  0
H  H33  1  0.13466299  0.50648620  0.28065619  1  0  0.095666  0  0.970947  0  0  0.1075  0  1.03408  0  0  0.109728  0  1.033963  0  0.101758  0  0.1032  0.105708  0  1.034669  0
H  H34  1  0.18633635  0.87535773  0.64229871  1  0  0.124541  0  0.949513  0  0  0.133462  0  1.01214  0  0  0.136662  0  1.01055  0  0.112558  0  0.110456  0.131192  0  1.013318  0
H  H35  1  0.68633815  0.12462986  0.35769896  1  0  0.124462  0  0.949567  0  0  0.133404  0  1.012189  0  0  0.136601  0  1.010607  0  0.112567  0  0.110476  0.131133  0  1.013367  0
H  H36  1  0.12527177  0.70449180  0.53707988  1  0  0.088929  0  0.944108  0  0  0.103303  0  0.99618  0  0  0.105695  0  0.995602  0  0.063499  0  0.103703  0.101475  0  0.996792  0
H  H37  1  0.62526858  0.29550404  0.46291648  1  0  0.0889  0  0.944118  0  0  0.103267  0  0.996201  0  0  0.105661  0  0.995621  0  0.063588  0  0.10367  0.101439  0  0.996815  0
H  H38  1  0.42002163  0.68272686  0.45394417  1  0  0.088042  0  0.974468  0  0  0.096786  0  1.037448  0  0  0.09887  0  1.038014  0  0.084746  0  0.095632  0.095303  0  1.037101  0
H  H39  1  0.92001511  0.31727721  0.54605134  1  0  0.088086  0  0.97442  0  0  0.096796  0  1.037419  0  0  0.098878  0  1.037987  0  0.084811  0  0.095637  0.095312  0  1.037073  0
H  H40  1  0.77192111  0.83510260  0.47539366  1  0  0.087953  0  0.95617  0  0  0.097552  0  1.017819  0  0  0.099681  0  1.01815  0  0.062832  0  0.099382  0.096074  0  1.017596  0
H  H41  1  0.27192762  0.16491089  0.52460389  1  0  0.0878  0  0.956228  0  0  0.097425  0  1.01785  0  0  0.099556  0  1.018178  0  0.062558  0  0.099311  0.095946  0  1.017627  0
H  H42  1  0.83076189  0.00679198  0.57988884  1  0  0.112947  0  0.952351  0  0  0.121678  0  1.016245  0  0  0.124139  0  1.016509  0  0.092683  0  0.105415  0.119869  0  1.016204  0
H  H43  1  0.33076507  0.99320856  0.42011017  1  0  0.112811  0  0.95244  0  0  0.121586  0  1.016289  0  0  0.124051  0  1.016553  0  0.091719  0  0.105386  0.119776  0  1.016247  0
C  C44  1  0.30931108  0.70989477  0.84019766  1  0  0.186568  0  3.499793  0  0  0.216741  0  3.7416  0  0  0.218165  0  3.760506  0  -0.009923  0  0.0118  0.215646  0  3.728618  0
C  C45  1  0.80930623  0.29010812  0.15980010  1  0  0.186648  0  3.49963  0  0  0.216759  0  3.741521  0  0  0.218187  0  3.760425  0  -0.010221  0  0.01182  0.215664  0  3.728537  0
C  C46  1  0.41324037  0.80205498  0.90272892  1  0  -0.051216  0  3.557137  0  0  -0.073095  0  3.784314  0  0  -0.073126  0  3.795915  0  0.323425  0  0.018988  -0.072851  0  3.776528  0
C  C47  1  0.91322553  0.19794792  0.09726791  1  0  -0.051058  0  3.557096  0  0  -0.07301  0  3.784167  0  0  -0.073042  0  3.79577  0  0.324065  0  0.01905  -0.072756  0  3.776359  0
C  C48  1  0.02468649  0.90252211  0.91484728  1  0  0.041944  0  3.525763  0  0  0.018102  0  3.790233  0  0  0.02308  0  3.799787  0  0.195225  0  0.02431  0.014329  0  3.784762  0
C  C49  1  0.52466833  0.09748078  0.08515469  1  0  0.041888  0  3.525819  0  0  0.018029  0  3.790242  0  0  0.02301  0  3.799796  0  0.194824  0  0.02428  0.014246  0  3.784796  0
C  C50  1  0.99751516  0.07101208  0.89805784  1  0  0.019314  0  3.580813  0  0  -0.013201  0  3.833191  0  0  -0.010767  0  3.840991  0  0.331774  0  0.026639  -0.014845  0  3.828229  0
C  C51  1  0.49750503  0.92899082  0.10194320  1  0  0.019262  0  3.580743  0  0  -0.013217  0  3.833119  0  0  -0.010782  0  3.840905  0  0.331707  0  0.02659  -0.014863  0  3.828162  0
C  C52  1  0.25671225  0.07674229  0.90124075  1  0  0.492094  0  3.743897  0  0  0.446759  0  4.051183  0  0  0.47557  0  4.048187  0  1.435961  0  0.249823  0.427137  0  4.052693  0
C  C53  1  0.75668742  0.92327355  0.09875696  1  0  0.492327  0  3.743245  0  0  0.446851  0  4.050724  0  0  0.475678  0  4.047704  0  1.436254  0  0.249872  0.427239  0  4.052219  0
C  C54  1  0.38090541  0.78505620  0.78337447  1  0  -0.359447  0  3.685528  0  0  -0.442937  0  3.925128  0  0  -0.445654  0  3.935908  0  -0.023224  0  -0.256592  -0.440542  0  3.917449  0
C  C55  1  0.88090056  0.21494552  0.21662321  1  0  -0.359507  0  3.685433  0  0  -0.443005  0  3.925066  0  0  -0.44572  0  3.935833  0  -0.023294  0  -0.256643  -0.440598  0  3.917397  0
C  C56  1  0.36838322  0.53516553  0.82907173  1  0  -0.360583  0  3.661537  0  0  -0.440456  0  3.892504  0  0  -0.443992  0  3.902534  0  -0.107286  0  -0.248414  -0.437588  0  3.885349  0
C  C57  1  0.86838170  0.46483854  0.17092752  1  0  -0.360581  0  3.661481  0  0  -0.440463  0  3.892514  0  0  -0.444  0  3.902545  0  -0.10689  0  -0.248411  -0.437597  0  3.885361  0
C  C58  1  0.44183350  0.70078387  0.95510992  1  0  0.670103  0  3.927817  0  0  0.627485  0  4.229169  0  0  0.659224  0  4.221072  0  1.623506  0  0.194737  0.605921  0  4.233805  0
C  C59  1  0.94182865  0.29921432  0.04488566  1  0  0.670012  0  3.928061  0  0  0.6275  0  4.229222  0  0  0.659237  0  4.221131  0  1.622863  0  0.19475  0.605933  0  4.233862  0
C  C60  1  0.84231865  0.21405327  0.82013810  1  0  0.614101  0  3.773302  0  0  0.568899  0  4.063275  0  0  0.598681  0  4.061251  0  1.452927  0  0.25433  0.548688  0  4.064157  0
C  C61  1  0.34231851  0.78594492  0.17986402  1  0  0.614199  0  3.773076  0  0  0.568947  0  4.06317  0  0  0.598731  0  4.061145  0  1.453175  0  0.254315  0.548742  0  4.064038  0
C  C62  1  0.73966604  0.20890690  0.75397411  1  0  -0.296021  0  3.665436  0  0  -0.305651  0  3.889919  0  0  -0.314052  0  3.89628  0  0.002646  0  -0.070762  -0.29992  0  3.885655  0
C  C63  1  0.23967589  0.79108540  0.24602808  1  0  -0.296148  0  3.665707  0  0  -0.305773  0  3.890085  0  0  -0.314189  0  3.896476  0  0.002316  0  -0.070782  -0.30005  0  3.885849  0
C  C64  1  0.87825397  0.30836289  0.71566100  1  0  0.096786  0  3.733323  0  0  0.113547  0  3.969799  0  0  0.113111  0  3.995126  0  -0.018628  0  -0.005861  0.113785  0  3.952789  0
C  C65  1  0.37827380  0.69163648  0.28434213  1  0  0.097015  0  3.733696  0  0  0.113891  0  3.969934  0  0  0.113457  0  3.995259  0  -0.01803  0  -0.005807  0.114128  0  3.952928  0
C  C66  1  0.08928152  0.25559028  0.69384200  1  0  -0.129211  0  3.739707  0  0  -0.152056  0  3.992944  0  0  -0.154988  0  4.014059  0  -0.046763  0  -0.098289  -0.150015  0  3.978642  0
C  C67  1  0.58929165  0.74441027  0.30616122  1  0  -0.129315  0  3.740088  0  0  -0.15212  0  3.993231  0  0  -0.155053  0  4.014348  0  -0.046887  0  -0.098237  -0.150077  0  3.978918  0
C  C68  1  0.21815531  0.34470527  0.65884532  1  0  -0.074552  0  3.796174  0  0  -0.08638  0  4.04894  0  0  -0.087935  0  4.069075  0  -0.11177  0  -0.09648  -0.085211  0  4.035558  0
C  C69  1  0.71817709  0.65530233  0.34115790  1  0  -0.074686  0  3.796342  0  0  -0.086535  0  4.049079  0  0  -0.088094  0  4.069213  0  -0.112249  0  -0.09651  -0.085349  0  4.035704  0
C  C70  1  0.13817513  0.48806428  0.64587932  1  0  -0.0827  0  3.794285  0  0  -0.095025  0  4.036535  0  0  -0.096527  0  4.05709  0  -0.091298  0  -0.09549  -0.093827  0  4.022279  0
C  C71  1  0.63820357  0.51193744  0.35412304  1  0  -0.082706  0  3.794253  0  0  -0.094982  0  4.036559  0  0  -0.096479  0  4.057117  0  -0.091281  0  -0.095467  -0.09378  0  4.022288  0
C  C72  1  0.92795321  0.54161850  0.66759932  1  0  -0.069938  0  3.767823  0  0  -0.079459  0  4.012546  0  0  -0.081247  0  4.032454  0  -0.039288  0  -0.090965  -0.078086  0  3.998767  0
C  C73  1  0.42798635  0.45838204  0.33240530  1  0  -0.069916  0  3.76797  0  0  -0.07943  0  4.012633  0  0  -0.081229  0  4.032546  0  -0.038724  0  -0.090982  -0.078055  0  3.998859  0
C  C74  1  0.79787930  0.45135464  0.70207623  1  0  -0.112385  0  3.726414  0  0  -0.135747  0  3.974661  0  0  -0.137414  0  3.995571  0  -0.042008  0  -0.089772  -0.134608  0  3.960922  0
C  C75  1  0.29790246  0.54864237  0.29792814  1  0  -0.11257  0  3.726348  0  0  -0.135944  0  3.974654  0  0  -0.13761  0  3.99556  0  -0.042792  0  -0.089819  -0.134818  0  3.960924  0
C  C76  1  0.71329173  0.05053020  0.71161920  1  0  0.642757  0  3.704532  0  0  0.591  0  4.007007  0  0  0.624723  0  3.996383  0  1.470236  0  0.252799  0.567957  0  4.013874  0
C  C77  1  0.21330157  0.94946210  0.28838299  1  0  0.642703  0  3.704519  0  0  0.591042  0  4.006925  0  0  0.624707  0  3.996314  0  1.47003  0  0.2528  0.567993  0  4.013804  0
C  C78  1  0.51272706  0.94687832  0.61642271  1  0  0.270236  0  3.774171  0  0  0.259584  0  4.037306  0  0  0.268897  0  4.054157  0  0.317143  0  0.077392  0.253146  0  4.025947  0
C  C79  1  0.01272525  0.05311045  0.38357550  1  0  0.270285  0  3.77389  0  0  0.259701  0  4.037053  0  0  0.26896  0  4.053904  0  0.317178  0  0.077503  0.253257  0  4.025701  0
C  C80  1  0.31360887  0.86419275  0.60549305  1  0  -0.173659  0  3.729699  0  0  -0.197004  0  3.983398  0  0  -0.201389  0  4.003207  0  -0.003337  0  -0.095986  -0.194029  0  3.97004  0
C  C81  1  0.81360235  0.13579837  0.39450625  1  0  -0.173677  0  3.729528  0  0  -0.197037  0  3.983214  0  0  -0.20143  0  4.00304  0  -0.003352  0  -0.0961  -0.194057  0  3.969857  0
C  C82  1  0.28120399  0.76899558  0.54651292  1  0  -0.056468  0  3.788318  0  0  -0.066633  0  4.033523  0  0  -0.067816  0  4.055005  0  -0.041728  0  -0.089785  -0.065687  0  4.018924  0
C  C83  1  0.78119582  0.23099437  0.45348490  1  0  -0.056455  0  3.788238  0  0  -0.066607  0  4.033418  0  0  -0.067788  0  4.054894  0  -0.041923  0  -0.089735  -0.065663  0  4.018817  0
C  C84  1  0.44602975  0.75680533  0.49991175  1  0  -0.089501  0  3.78276  0  0  -0.104145  0  4.028352  0  0  -0.106791  0  4.050495  0  -0.071866  0  -0.098142  -0.10229  0  4.013204  0
C  C85  1  0.94602656  0.24319403  0.50008718  1  0  -0.089554  0  3.782696  0  0  -0.104163  0  4.028283  0  0  -0.106808  0  4.050424  0  -0.071777  0  -0.098127  -0.102308  0  4.013135  0
C  C86  1  0.64440224  0.84138489  0.51200223  1  0  -0.054536  0  3.784185  0  0  -0.064083  0  4.029306  0  0  -0.065573  0  4.051784  0  -0.044098  0  -0.089734  -0.062973  0  4.013937  0
C  C87  1  0.14440376  0.15861330  0.48799288  1  0  -0.054428  0  3.784448  0  0  -0.063999  0  4.029548  0  0  -0.065488  0  4.052028  0  -0.043759  0  -0.089685  -0.062889  0  4.014176  0
C  C88  1  0.67900095  0.93765206  0.57047997  1  0  -0.177435  0  3.754054  0  0  -0.199699  0  4.004848  0  0  -0.204184  0  4.025588  0  0.013852  0  -0.098913  -0.1966  0  3.990826  0
C  C89  1  0.17899415  0.06234730  0.42952036  1  0  -0.177327  0  3.754262  0  0  -0.199611  0  4.005  0  0  -0.204111  0  4.025766  0  0.014784  0  -0.098944  -0.196509  0  3.990977  0
S  S90  1  0.00278807  0.73152787  0.85196697  1  0  -0.109208  0  2.183234  0  0  -0.107878  0  2.519762  0  0  -0.110923  0  2.516498  0  -0.06143  0  -0.00169  -0.106041  0  2.523389  0
S  S91  1  0.50277656  0.26847620  0.14803368  1  0  -0.109254  0  2.183163  0  0  -0.107913  0  2.519666  0  0  -0.110958  0  2.516397  0  -0.061493  0  -0.001688  -0.106076  0  2.523295  0
N  N92  1  0.26482345  0.93382525  0.92346365  1  0  -0.241196  0  3.245215  0  0  -0.173199  0  3.487761  0  0  -0.193928  0  3.506321  0  -1.096547  0  -0.275382  -0.158715  0  3.474383  0
N  N93  1  0.76480529  0.06618000  0.07653521  1  0  -0.241283  0  3.245462  0  0  -0.173229  0  3.488014  0  0  -0.193962  0  3.506573  0  -1.096621  0  -0.275399  -0.15875  0  3.47463  0
N  N94  1  0.90795733  0.07717194  0.83643570  1  0  -0.435371  0  3.391861  0  0  -0.384915  0  3.644819  0  0  -0.406416  0  3.653587  0  -1.25184  0  -0.41558  -0.370229  0  3.638759  0
N  N95  1  0.40795885  0.92283095  0.16356721  1  0  -0.435328  0  3.391509  0  0  -0.384844  0  3.64451  0  0  -0.406366  0  3.653315  0  -1.252182  0  -0.415561  -0.370159  0  3.638448  0
O  O96  1  0.40196658  0.16100285  0.88569002  1  0  -0.475357  0  1.942947  0  0  -0.433113  0  2.149214  0  0  -0.452739  0  2.143989  0  -1.14694  0  -0.263858  -0.419428  0  2.152512  0
O  O97  1  0.90196672  0.83900358  0.11430845  1  0  -0.475438  0  1.942125  0  0  -0.433191  0  2.148496  0  0  -0.452822  0  2.143262  0  -1.147137  0  -0.263903  -0.419507  0  2.151788  0
O  O98  1  0.63774416  0.67640808  0.97275463  1  0  -0.725209  0  1.920264  0  0  -0.684243  0  2.162426  0  0  -0.706664  0  2.150376  0  -1.22316  0  -0.420192  -0.668418  0  2.17036  0
O  O99  1  0.13771738  0.32359364  0.02724259  1  0  -0.725027  0  1.920677  0  0  -0.6841  0  2.162763  0  0  -0.706509  0  2.150692  0  -1.223315  0  -0.420046  -0.66828  0  2.170705  0
O  O100  1  0.26568734  0.65089991  0.97793022  1  0  -0.743403  0  1.929143  0  0  -0.699238  0  2.169446  0  0  -0.720923  0  2.155299  0  -1.227792  0  -0.443387  -0.683848  0  2.178794  0
O  O101  1  0.76566418  0.34909946  0.02206357  1  0  -0.743501  0  1.928899  0  0  -0.699378  0  2.169114  0  0  -0.721066  0  2.154966  0  -1.227101  0  -0.443529  -0.683985  0  2.178463  0
O  O102  1  0.85733595  0.34341750  0.85534934  1  0  -0.588096  0  1.927706  0  0  -0.554653  0  2.167054  0  0  -0.574356  0  2.158899  0  -1.167124  0  -0.338256  -0.540912  0  2.172426  0
O  O103  1  0.35732415  0.65658186  0.14464959  1  0  -0.588185  0  1.927684  0  0  -0.554705  0  2.167043  0  0  -0.574402  0  2.158879  0  -1.16709  0  -0.338253  -0.540965  0  2.172409  0
O  O104  1  0.83721357  0.93704231  0.70801817  1  0  -0.510102  0  1.980165  0  0  -0.469099  0  2.205424  0  0  -0.487679  0  2.197208  0  -1.151296  0  -0.256077  -0.456379  0  2.210869  0
O  O105  1  0.33721509  0.06295116  0.29198410  1  0  -0.510073  0  1.980256  0  0  -0.469065  0  2.205447  0  0  -0.487651  0  2.197258  0  -1.151221  0  -0.256025  -0.456341  0  2.210895  0
O  O106  1  0.53272294  0.05540936  0.67302539  1  0  -0.344117  0  2.339101  0  0  -0.270233  0  2.567845  0  0  -0.292569  0  2.567683  0  -1.078831  0  -0.137778  -0.254857  0  2.567737  0
O  O107  1  0.03272446  0.94457941  0.32697469  1  0  -0.343968  0  2.338821  0  0  -0.270285  0  2.567679  0  0  -0.292454  0  2.567409  0  -1.078911  0  -0.137838  -0.254905  0  2.567575  0
