# generated using pymatgen
data_ZrCdH6(C2O5)3
_symmetry_space_group_name_H-M   'P 1'
_cell_length_a   8.86531060
_cell_length_b   10.08342604
_cell_length_c   16.62970000
_cell_angle_alpha   90.00000000
_cell_angle_beta   90.00000000
_cell_angle_gamma   105.61663191
_symmetry_Int_Tables_number   1
_chemical_formula_structural   ZrCdH6(C2O5)3
_chemical_formula_sum   'Zr4 Cd4 H24 C24 O60'
_cell_volume   1431.69617518
_cell_formula_units_Z   4
loop_
 _symmetry_equiv_pos_site_id
 _symmetry_equiv_pos_as_xyz
  1  'x, y, z'
loop_
 _atom_site_type_symbol
 _atom_site_label
 _atom_site_symmetry_multiplicity
 _atom_site_fract_x
 _atom_site_fract_y
 _atom_site_fract_z
 _atom_site_occupancy
 _atom_site_hle17_bader_spin_density
 _atom_site_hle17_ddec_charge
 _atom_site_hle17_ddec_spin_density
 _atom_site_hle17_ddec_sum_bond_order
 _atom_site_hle17_magmom
 _atom_site_hse06_10hf_bader_spin_density
 _atom_site_hse06_10hf_ddec_charge
 _atom_site_hse06_10hf_ddec_spin_density
 _atom_site_hse06_10hf_ddec_sum_bond_order
 _atom_site_hse06_10hf_magmom
 _atom_site_hse06_bader_spin_density
 _atom_site_hse06_ddec_charge
 _atom_site_hse06_ddec_spin_density
 _atom_site_hse06_ddec_sum_bond_order
 _atom_site_hse06_magmom
 _atom_site_pbe_bader_charge
 _atom_site_pbe_bader_spin_density
 _atom_site_pbe_cm5_charge
 _atom_site_pbe_ddec_charge
 _atom_site_pbe_ddec_spin_density
 _atom_site_pbe_ddec_sum_bond_order
 _atom_site_pbe_magmom
Zr  Zr0  1  0.18973253  0.88502121  0.40765378  1  0  2.36557  0  2.298552  0  0  2.267156  0  2.702745  0  0  2.359887  0  2.64615  0  2.64097  0  1.622395  2.201798  0  2.74112  0
Zr  Zr1  1  0.81026927  0.61497812  0.90765438  1  0  2.365499  0  2.298705  0  0  2.267085  0  2.702916  0  0  2.35982  0  2.646318  0  2.641054  0  1.622343  2.201727  0  2.741292  0
Zr  Zr2  1  0.81026744  0.11498178  0.59234562  1  0  2.365581  0  2.298582  0  0  2.267149  0  2.702782  0  0  2.359877  0  2.646187  0  2.641004  0  1.622383  2.201792  0  2.741157  0
Zr  Zr3  1  0.18973219  0.38501869  0.09234622  1  0  2.365519  0  2.298646  0  0  2.267089  0  2.70285  0  0  2.359817  0  2.646255  0  2.640949  0  1.622353  2.201732  0  2.741224  0
Cd  Cd4  1  0.44608195  0.52997619  0.62800712  1  0  1.260566  0  1.532579  0  0  1.084742  0  1.968278  0  0  1.141907  0  1.91147  0  1.374231  0  0.788403  1.042118  0  2.008443  0
Cd  Cd5  1  0.55391903  0.97002417  0.12800592  1  0  1.26057  0  1.532558  0  0  1.084734  0  1.968252  0  0  1.141899  0  1.911445  0  1.374231  0  0.788384  1.042111  0  2.008416  0
Cd  Cd6  1  0.55391996  0.47002577  0.37199348  1  0  1.260537  0  1.532541  0  0  1.084731  0  1.96824  0  0  1.141892  0  1.911433  0  1.374247  0  0.788394  1.042107  0  2.008404  0
Cd  Cd7  1  0.44607905  0.02997264  0.87199348  1  0  1.260518  0  1.532558  0  0  1.084709  0  1.96826  0  0  1.141869  0  1.911452  0  1.374211  0  0.788394  1.042087  0  2.008423  0
H  H8  1  0.42952206  0.50813438  0.80223516  1  0  0.426253  0  0.870258  0  0  0.39581  0  0.933295  0  0  0.406875  0  0.917026  0  0.64149  0  0.290806  0.387817  0  0.945073  0
H  H9  1  0.57047667  0.99186599  0.30223456  1  0  0.426252  0  0.870256  0  0  0.395807  0  0.933298  0  0  0.406871  0  0.917029  0  0.641479  0  0.290802  0.387813  0  0.945076  0
H  H10  1  0.57047728  0.49186655  0.19776484  1  0  0.426239  0  0.870278  0  0  0.395795  0  0.933318  0  0  0.406859  0  0.91705  0  0.641468  0  0.290799  0.387801  0  0.945096  0
H  H11  1  0.42952349  0.00813391  0.69776484  1  0  0.426232  0  0.870285  0  0  0.395787  0  0.933328  0  0  0.406851  0  0.917061  0  0.641472  0  0.290795  0.387793  0  0.945106  0
H  H12  1  0.33569835  0.61535810  0.78475318  1  0  0.42771  0  0.862303  0  0  0.398567  0  0.921801  0  0  0.409189  0  0.906328  0  0.628621  0  0.291598  0.390874  0  0.933018  0
H  H13  1  0.66430182  0.88464330  0.28475318  1  0  0.427682  0  0.862338  0  0  0.398537  0  0.921841  0  0  0.40916  0  0.906367  0  0.62863  0  0.291591  0.390844  0  0.933058  0
H  H14  1  0.66430243  0.38464386  0.21524682  1  0  0.427694  0  0.862324  0  0  0.398548  0  0.921829  0  0  0.40917  0  0.906356  0  0.628626  0  0.291594  0.390854  0  0.933046  0
H  H15  1  0.33569802  0.11535557  0.71524682  1  0  0.427715  0  0.862294  0  0  0.398571  0  0.921795  0  0  0.409194  0  0.90632  0  0.628642  0  0.291606  0.390877  0  0.933011  0
H  H16  1  0.22964135  0.98924633  0.24676873  1  0  0.452832  0  0.841199  0  0  0.419797  0  0.906278  0  0  0.432082  0  0.888661  0  0.671688  0  0.30833  0.411102  0  0.918758  0
H  H17  1  0.77035851  0.51075404  0.74676873  1  0  0.452823  0  0.841212  0  0  0.419786  0  0.906295  0  0  0.432071  0  0.888677  0  0.671686  0  0.308322  0.411091  0  0.918775  0
H  H18  1  0.77035623  0.01075254  0.75323127  1  0  0.452826  0  0.841202  0  0  0.4198  0  0.906268  0  0  0.432081  0  0.888657  0  0.671663  0  0.308328  0.411106  0  0.918748  0
H  H19  1  0.22964372  0.48924895  0.25323187  1  0  0.452812  0  0.841225  0  0  0.419794  0  0.906283  0  0  0.432078  0  0.888668  0  0.671658  0  0.30832  0.411098  0  0.918764  0
H  H20  1  0.06325969  0.99904018  0.27928826  1  0  0.459355  0  0.775847  0  0  0.442053  0  0.82487  0  0  0.451491  0  0.814721  0  0.640523  0  0.343959  0.435301  0  0.832257  0
H  H21  1  0.93674034  0.50095709  0.77928826  1  0  0.459397  0  0.775775  0  0  0.442071  0  0.824838  0  0  0.451509  0  0.814687  0  0.640638  0  0.343979  0.435318  0  0.832225  0
H  H22  1  0.93673820  0.00095972  0.72071114  1  0  0.459408  0  0.775775  0  0  0.442082  0  0.824837  0  0  0.451521  0  0.814684  0  0.640708  0  0.343964  0.43533  0  0.832224  0
H  H23  1  0.06326175  0.49904178  0.22071174  1  0  0.459383  0  0.775816  0  0  0.442056  0  0.824879  0  0  0.451495  0  0.814728  0  0.640654  0  0.343947  0.435303  0  0.832268  0
H  H24  1  0.13138436  0.98162831  0.56850575  1  0  0.471988  0  0.80844  0  0  0.437504  0  0.875231  0  0  0.450614  0  0.85601  0  0.672385  0  0.314334  0.428238  0  0.888821  0
H  H25  1  0.86861518  0.51837102  0.06850635  1  0  0.472001  0  0.808436  0  0  0.437548  0  0.875163  0  0  0.450657  0  0.855945  0  0.672382  0  0.314375  0.428287  0  0.888752  0
H  H26  1  0.86861160  0.01837262  0.43149365  1  0  0.47186  0  0.808616  0  0  0.437415  0  0.87533  0  0  0.450524  0  0.856112  0  0.672421  0  0.314287  0.428155  0  0.888918  0
H  H27  1  0.13138835  0.48162888  0.93149486  1  0  0.47193  0  0.808514  0  0  0.437486  0  0.875229  0  0  0.450593  0  0.856012  0  0.672399  0  0.314348  0.428224  0  0.888819  0
H  H28  1  0.22080702  0.85941570  0.57628340  1  0  0.48219  0  0.758342  0  0  0.457532  0  0.818207  0  0  0.468418  0  0.802306  0  0.672045  0  0.344351  0.449845  0  0.828353  0
H  H29  1  0.77919509  0.64058466  0.07628280  1  0  0.482194  0  0.758347  0  0  0.457533  0  0.818208  0  0  0.468421  0  0.802304  0  0.672048  0  0.344335  0.449849  0  0.828365  0
H  H30  1  0.77919407  0.14058729  0.42371540  1  0  0.48218  0  0.75832  0  0  0.457526  0  0.818206  0  0  0.468412  0  0.802307  0  0.672009  0  0.34436  0.449843  0  0.828331  0
H  H31  1  0.22080588  0.35941421  0.92371600  1  0  0.48218  0  0.758315  0  0  0.457519  0  0.818218  0  0  0.468406  0  0.802316  0  0.672028  0  0.344354  0.449836  0  0.828342  0
C  C32  1  0.39155032  0.68955909  0.43450934  1  0  0.576394  0  3.87186  0  0  0.527731  0  4.171329  0  0  0.560036  0  4.162229  0  1.627434  0  0.221859  0.505699  0  4.177165  0
C  C33  1  0.60845116  0.81043922  0.93450934  1  0  0.576477  0  3.871893  0  0  0.527828  0  4.171327  0  0  0.560139  0  4.16223  0  1.626998  0  0.221907  0.505796  0  4.177162  0
C  C34  1  0.60845222  0.31044493  0.56549186  1  0  0.576472  0  3.87169  0  0  0.52776  0  4.171251  0  0  0.560064  0  4.162154  0  1.627594  0  0.221852  0.505728  0  4.177083  0
C  C35  1  0.39154741  0.18955554  0.06549126  1  0  0.576449  0  3.871812  0  0  0.527726  0  4.171384  0  0  0.56003  0  4.162288  0  1.627451  0  0.221819  0.505695  0  4.177215  0
C  C36  1  0.34630139  0.67277639  0.34472660  1  0  0.574288  0  3.854718  0  0  0.524097  0  4.154487  0  0  0.556715  0  4.144194  0  1.584406  0  0.226771  0.501744  0  4.161249  0
C  C37  1  0.65370185  0.82722398  0.84472660  1  0  0.574277  0  3.854674  0  0  0.524073  0  4.154472  0  0  0.556675  0  4.144197  0  1.584415  0  0.226754  0.50172  0  4.161235  0
C  C38  1  0.65370228  0.32722763  0.65527460  1  0  0.574394  0  3.854651  0  0  0.524094  0  4.154577  0  0  0.556714  0  4.144286  0  1.584427  0  0.226843  0.501742  0  4.161336  0
C  C39  1  0.34629817  0.17277181  0.15527460  1  0  0.574402  0  3.854606  0  0  0.524122  0  4.154515  0  0  0.556742  0  4.144224  0  1.584441  0  0.22685  0.501769  0  4.161275  0
C  C40  1  0.69795634  0.80189650  0.59886168  1  0  0.552606  0  3.907306  0  0  0.507485  0  4.211273  0  0  0.538758  0  4.202548  0  1.603508  0  0.210261  0.486232  0  4.216534  0
C  C41  1  0.30204352  0.69810387  0.09886107  1  0  0.552732  0  3.907124  0  0  0.507598  0  4.21112  0  0  0.538871  0  4.202395  0  1.603563  0  0.210322  0.486344  0  4.216383  0
C  C42  1  0.30204332  0.19810546  0.40113772  1  0  0.552798  0  3.907027  0  0  0.507591  0  4.211135  0  0  0.538864  0  4.202409  0  1.603521  0  0.210313  0.486337  0  4.216398  0
C  C43  1  0.69795794  0.30189294  0.90113832  1  0  0.552602  0  3.907292  0  0  0.507383  0  4.211416  0  0  0.538656  0  4.202691  0  1.60355  0  0.210192  0.486128  0  4.216678  0
C  C44  1  0.55168047  0.84868272  0.62315977  1  0  0.552535  0  3.902429  0  0  0.501748  0  4.212354  0  0  0.533172  0  4.203229  0  1.568196  0  0.212741  0.48017  0  4.217973  0
C  C45  1  0.44831745  0.65131867  0.12316037  1  0  0.552614  0  3.902267  0  0  0.501798  0  4.212231  0  0  0.533223  0  4.203104  0  1.568168  0  0.21273  0.480221  0  4.21785  0
C  C46  1  0.44832000  0.15131821  0.37683963  1  0  0.552503  0  3.902308  0  0  0.501721  0  4.212267  0  0  0.533146  0  4.203142  0  1.568201  0  0.212726  0.480144  0  4.217886  0
C  C47  1  0.55168045  0.34868123  0.87683903  1  0  0.552609  0  3.902188  0  0  0.501843  0  4.212141  0  0  0.533269  0  4.203015  0  1.568221  0  0.21277  0.480266  0  4.217761  0
C  C48  1  0.16558662  0.23378080  0.61532319  1  0  0.558291  0  3.873545  0  0  0.510084  0  4.175231  0  0  0.540514  0  4.167211  0  1.585492  0  0.222391  0.489352  0  4.180014  0
C  C49  1  0.83441383  0.26621863  0.11532319  1  0  0.55821  0  3.873678  0  0  0.51004  0  4.175311  0  0  0.54047  0  4.16729  0  1.585513  0  0.222353  0.489309  0  4.18009  0
C  C50  1  0.83441322  0.76621807  0.38467681  1  0  0.558161  0  3.873777  0  0  0.510009  0  4.17539  0  0  0.54044  0  4.167371  0  1.585697  0  0.222304  0.489274  0  4.180166  0
C  C51  1  0.16558583  0.73378333  0.88467681  1  0  0.558072  0  3.873786  0  0  0.509881  0  4.175509  0  0  0.540311  0  4.167491  0  1.585641  0  0.222249  0.48915  0  4.180288  0
C  C52  1  0.10473824  0.35806010  0.59035340  1  0  0.572065  0  3.886879  0  0  0.5275  0  4.185777  0  0  0.559533  0  4.177005  0  1.623504  0  0.221461  0.505475  0  4.191433  0
C  C53  1  0.89526252  0.14194037  0.09035280  1  0  0.572099  0  3.886865  0  0  0.527524  0  4.185747  0  0  0.559557  0  4.176974  0  1.623638  0  0.221451  0.505502  0  4.191398  0
C  C54  1  0.89526336  0.64194083  0.40964599  1  0  0.572081  0  3.886875  0  0  0.527501  0  4.185777  0  0  0.559534  0  4.177006  0  1.623604  0  0.221492  0.505499  0  4.191391  0
C  C55  1  0.10473569  0.85806056  0.90964960  1  0  0.572281  0  3.886754  0  0  0.527649  0  4.185783  0  0  0.559683  0  4.17701  0  1.623861  0  0.221528  0.505633  0  4.191422  0
O  O56  1  0.46346296  0.61319667  0.46664221  1  0  -0.553327  0  2.095237  0  0  -0.496738  0  2.345778  0  0  -0.525607  0  2.339192  0  -1.119592  0  -0.273062  -0.476651  0  2.34979  0
O  O57  1  0.53653852  0.88680163  0.96664221  1  0  -0.553364  0  2.095284  0  0  -0.496779  0  2.345821  0  0  -0.525649  0  2.339236  0  -1.119536  0  -0.273054  -0.476691  0  2.349833  0
O  O58  1  0.53653927  0.38680632  0.53335779  1  0  -0.553394  0  2.095275  0  0  -0.496721  0  2.345764  0  0  -0.525594  0  2.339185  0  -1.119652  0  -0.273039  -0.476632  0  2.349774  0
O  O59  1  0.46346150  0.11319415  0.03335779  1  0  -0.553408  0  2.095319  0  0  -0.49672  0  2.345799  0  0  -0.525593  0  2.339221  0  -1.119633  0  -0.273041  -0.476631  0  2.349807  0
O  O60  1  0.34559533  0.78510865  0.46961942  1  0  -0.637834  0  2.092306  0  0  -0.595821  0  2.34233  0  0  -0.626831  0  2.334887  0  -1.155405  0  -0.360736  -0.574462  0  2.346976  0
O  O61  1  0.65440358  0.71488863  0.96961821  1  0  -0.637874  0  2.092341  0  0  -0.595881  0  2.342388  0  0  -0.626892  0  2.334945  0  -1.155011  0  -0.360786  -0.574521  0  2.347035  0
O  O62  1  0.65440464  0.21489434  0.53038239  1  0  -0.63792  0  2.092241  0  0  -0.595849  0  2.34222  0  0  -0.626847  0  2.334773  0  -1.155491  0  -0.360781  -0.57449  0  2.346863  0
O  O63  1  0.34559531  0.28510715  0.03038239  1  0  -0.637881  0  2.09231  0  0  -0.595811  0  2.342294  0  0  -0.626809  0  2.334847  0  -1.155349  0  -0.360751  -0.574453  0  2.346938  0
O  O64  1  0.27380347  0.75714091  0.31814104  1  0  -0.619114  0  2.053438  0  0  -0.581166  0  2.300533  0  0  -0.610979  0  2.293133  0  -1.146907  0  -0.349576  -0.560339  0  2.305346  0
O  O65  1  0.72620153  0.74286151  0.81814104  1  0  -0.619119  0  2.05346  0  0  -0.581144  0  2.300528  0  0  -0.610953  0  2.293136  0  -1.146927  0  -0.349558  -0.560317  0  2.305341  0
O  O66  1  0.72620020  0.24286311  0.68185956  1  0  -0.619153  0  2.053481  0  0  -0.581134  0  2.300569  0  0  -0.610946  0  2.293168  0  -1.1469  0  -0.349579  -0.560306  0  2.305381  0
O  O67  1  0.27379944  0.25713736  0.18185956  1  0  -0.619135  0  2.053428  0  0  -0.581146  0  2.300535  0  0  -0.610958  0  2.293134  0  -1.146875  0  -0.349569  -0.560318  0  2.305347  0
O  O68  1  0.37707519  0.57799090  0.30417025  1  0  -0.572544  0  2.102133  0  0  -0.504142  0  2.330954  0  0  -0.532393  0  2.321511  0  -1.152388  0  -0.281227  -0.484257  0  2.337416  0
O  O69  1  0.62292692  0.92200947  0.80417085  1  0  -0.572539  0  2.102081  0  0  -0.504143  0  2.330925  0  0  -0.532382  0  2.321483  0  -1.152367  0  -0.281241  -0.484264  0  2.337393  0
O  O70  1  0.62292735  0.42201312  0.69582915  1  0  -0.572632  0  2.102193  0  0  -0.504155  0  2.331016  0  0  -0.532422  0  2.321584  0  -1.152463  0  -0.281281  -0.484277  0  2.337484  0
O  O71  1  0.37707310  0.07798632  0.19582915  1  0  -0.572654  0  2.102181  0  0  -0.504181  0  2.331  0  0  -0.532447  0  2.321568  0  -1.15247  0  -0.281294  -0.484303  0  2.337469  0
O  O72  1  0.81631889  0.90161856  0.57794368  1  0  -0.661486  0  2.079307  0  0  -0.622955  0  2.330788  0  0  -0.653326  0  2.322324  0  -1.173881  0  -0.375842  -0.601624  0  2.335803  0
O  O73  1  0.18367984  0.59838181  0.07794488  1  0  -0.661532  0  2.079281  0  0  -0.622994  0  2.330775  0  0  -0.653365  0  2.322309  0  -1.173881  0  -0.375865  -0.601661  0  2.335787  0
O  O74  1  0.18367901  0.09838134  0.42205512  1  0  -0.661569  0  2.079198  0  0  -0.623018  0  2.330732  0  0  -0.653389  0  2.322265  0  -1.173877  0  -0.37589  -0.601687  0  2.335748  0
O  O75  1  0.81632113  0.40161706  0.92205572  1  0  -0.661501  0  2.079254  0  0  -0.622945  0  2.330792  0  0  -0.653316  0  2.322325  0  -1.173887  0  -0.375864  -0.601612  0  2.335804  0
O  O76  1  0.69564967  0.67836170  0.60127242  1  0  -0.514085  0  2.024989  0  0  -0.465431  0  2.257022  0  0  -0.489837  0  2.247547  0  -1.112706  0  -0.280962  -0.447776  0  2.26298  0
O  O77  1  0.30434905  0.82163867  0.10126942  1  0  -0.514163  0  2.024871  0  0  -0.465483  0  2.256904  0  0  -0.48989  0  2.247431  0  -1.112828  0  -0.280972  -0.447827  0  2.262861  0
O  O78  1  0.30435224  0.32164026  0.39872818  1  0  -0.514197  0  2.024946  0  0  -0.465501  0  2.257016  0  0  -0.489907  0  2.247542  0  -1.112757  0  -0.28099  -0.447847  0  2.262976  0
O  O79  1  0.69564758  0.17835711  0.89872698  1  0  -0.514089  0  2.025137  0  0  -0.465386  0  2.257197  0  0  -0.489794  0  2.247725  0  -1.11281  0  -0.280904  -0.44773  0  2.263154  0
O  O80  1  0.57504856  0.98125658  0.62362941  1  0  -0.68981  0  2.113434  0  0  -0.642067  0  2.360414  0  0  -0.673207  0  2.352593  0  -1.148597  0  -0.361226  -0.620239  0  2.365269  0
O  O81  1  0.42495048  0.51874482  0.12362941  1  0  -0.689855  0  2.113304  0  0  -0.642092  0  2.360281  0  0  -0.673234  0  2.352462  0  -1.148558  0  -0.361212  -0.620266  0  2.365136  0
O  O82  1  0.42494965  0.01874435  0.37637059  1  0  -0.689819  0  2.113398  0  0  -0.642051  0  2.36036  0  0  -0.67319  0  2.352535  0  -1.148564  0  -0.361217  -0.620224  0  2.365214  0
O  O83  1  0.57505111  0.48125611  0.87637059  1  0  -0.689822  0  2.113374  0  0  -0.642079  0  2.360352  0  0  -0.673219  0  2.352526  0  -1.148551  0  -0.361223  -0.620254  0  2.365209  0
O  O84  1  0.42625548  0.76397633  0.64091415  1  0  -0.527678  0  2.009967  0  0  -0.474709  0  2.243243  0  0  -0.499034  0  2.232697  0  -1.1398  0  -0.27915  -0.457226  0  2.249878  0
O  O85  1  0.57374212  0.73602404  0.14091415  1  0  -0.527697  0  2.009931  0  0  -0.474722  0  2.243228  0  0  -0.499046  0  2.232681  0  -1.139769  0  -0.27915  -0.457238  0  2.249864  0
O  O86  1  0.57374354  0.23602357  0.35908525  1  0  -0.527634  0  2.009888  0  0  -0.474675  0  2.243175  0  0  -0.498998  0  2.232629  0  -1.139803  0  -0.27912  -0.457191  0  2.24981  0
O  O87  1  0.42625659  0.26397483  0.85908525  1  0  -0.527687  0  2.009889  0  0  -0.474714  0  2.243153  0  0  -0.49904  0  2.232607  0  -1.139803  0  -0.27914  -0.457231  0  2.249789  0
O  O88  1  0.35690845  0.53108110  0.76293980  1  0  -0.833752  0  1.832052  0  0  -0.778882  0  2.010526  0  0  -0.800151  0  1.975653  0  -1.239609  0  -0.591105  -0.76394  0  2.035297  0
O  O89  1  0.64309028  0.96891926  0.26293920  1  0  -0.833712  0  1.832064  0  0  -0.778838  0  2.010537  0  0  -0.800108  0  1.975665  0  -1.239607  0  -0.591088  -0.763904  0  2.035325  0
O  O90  1  0.64309120  0.46892086  0.23706020  1  0  -0.833704  0  1.832058  0  0  -0.778827  0  2.010524  0  0  -0.800098  0  1.975653  0  -1.239594  0  -0.591092  -0.763898  0  2.035321  0
O  O91  1  0.35690925  0.03107858  0.73706080  1  0  -0.833717  0  1.832045  0  0  -0.778842  0  2.010513  0  0  -0.800113  0  1.975642  0  -1.239611  0  -0.591097  -0.763914  0  2.035314  0
O  O92  1  0.06439518  0.11551621  0.60159835  1  0  -0.691159  0  2.103225  0  0  -0.637467  0  2.345219  0  0  -0.66834  0  2.335462  0  -1.188653  0  -0.355573  -0.616096  0  2.35145  0
O  O93  1  0.93560527  0.38448322  0.10159895  1  0  -0.69105  0  2.103259  0  0  -0.637397  0  2.345249  0  0  -0.668268  0  2.335492  0  -1.188646  0  -0.355553  -0.616033  0  2.351481  0
O  O94  1  0.93560353  0.88448266  0.39840165  1  0  -0.691074  0  2.103276  0  0  -0.637422  0  2.345247  0  0  -0.668294  0  2.335489  0  -1.188835  0  -0.355556  -0.616061  0  2.351481  0
O  O95  1  0.06439745  0.61551771  0.89840105  1  0  -0.691042  0  2.103354  0  0  -0.637377  0  2.345355  0  0  -0.668248  0  2.335599  0  -1.188837  0  -0.355536  -0.616014  0  2.351589  0
O  O96  1  0.29567970  0.25087654  0.64714216  1  0  -0.535237  0  2.028072  0  0  -0.483494  0  2.248313  0  0  -0.507651  0  2.240876  0  -1.147977  0  -0.268514  -0.466517  0  2.252944  0
O  O97  1  0.70432043  0.24912186  0.14714216  1  0  -0.535245  0  2.028161  0  0  -0.483508  0  2.248378  0  0  -0.507666  0  2.240941  0  -1.147995  0  -0.268489  -0.466529  0  2.253004  0
O  O98  1  0.70432176  0.74912027  0.35285543  1  0  -0.535188  0  2.028177  0  0  -0.483451  0  2.248378  0  0  -0.50761  0  2.240944  0  -1.147991  0  -0.268464  -0.466473  0  2.253006  0
O  O99  1  0.29567678  0.75088318  0.85285483  1  0  -0.535183  0  2.028134  0  0  -0.483418  0  2.248351  0  0  -0.507577  0  2.240919  0  -1.147957  0  -0.268433  -0.46644  0  2.252976  0
O  O100  1  0.19290243  0.47723807  0.58767747  1  0  -0.515905  0  2.021219  0  0  -0.459941  0  2.254725  0  0  -0.486234  0  2.24354  0  -1.121128  0  -0.281382  -0.441617  0  2.261942  0
O  O101  1  0.80709947  0.02276240  0.08767687  1  0  -0.515916  0  2.021262  0  0  -0.459947  0  2.254767  0  0  -0.48624  0  2.243581  0  -1.12126  0  -0.281382  -0.441624  0  2.261982  0
O  O102  1  0.80710030  0.52276286  0.41232434  1  0  -0.515877  0  2.021233  0  0  -0.459929  0  2.254763  0  0  -0.486221  0  2.243577  0  -1.12133  0  -0.281376  -0.441612  0  2.261967  0
O  O103  1  0.19289956  0.97723750  0.91232554  1  0  -0.515931  0  2.021186  0  0  -0.45997  0  2.254756  0  0  -0.486259  0  2.243564  0  -1.121238  0  -0.281406  -0.441647  0  2.261966  0
O  O104  1  0.95726724  0.32508268  0.57552511  1  0  -0.648634  0  2.062331  0  0  -0.610505  0  2.303456  0  0  -0.640514  0  2.29434  0  -1.159818  0  -0.362642  -0.589705  0  2.309246  0
O  O105  1  0.04273352  0.17491778  0.07552391  1  0  -0.648642  0  2.062287  0  0  -0.610511  0  2.30341  0  0  -0.64052  0  2.294293  0  -1.159814  0  -0.362641  -0.589712  0  2.309198  0
O  O106  1  0.04273517  0.67491722  0.42447308  1  0  -0.648654  0  2.062266  0  0  -0.610517  0  2.303391  0  0  -0.640525  0  2.294275  0  -1.159729  0  -0.362683  -0.589725  0  2.309168  0
O  O107  1  0.95726487  0.82508006  0.92447909  1  0  -0.648705  0  2.062278  0  0  -0.610541  0  2.303441  0  0  -0.64055  0  2.294322  0  -1.160124  0  -0.362645  -0.589744  0  2.309227  0
O  O108  1  0.13616950  0.94202246  0.28086015  1  0  -0.858432  0  1.880723  0  0  -0.817649  0  2.070472  0  0  -0.840837  0  2.041234  0  -1.254589  0  -0.599915  -0.801109  0  2.090429  0
O  O109  1  0.86383116  0.55797688  0.78085955  1  0  -0.858456  0  1.88067  0  0  -0.817649  0  2.070444  0  0  -0.840838  0  2.041205  0  -1.254708  0  -0.599926  -0.801109  0  2.090403  0
O  O110  1  0.86382839  0.05797744  0.71913925  1  0  -0.858492  0  1.880662  0  0  -0.817689  0  2.070427  0  0  -0.840878  0  2.041193  0  -1.254786  0  -0.599923  -0.801149  0  2.090386  0
O  O111  1  0.13617156  0.44202405  0.21914045  1  0  -0.858444  0  1.880714  0  0  -0.817642  0  2.070454  0  0  -0.840832  0  2.041219  0  -1.254728  0  -0.59989  -0.801101  0  2.090414  0
O  O112  1  0.17428046  0.91282522  0.53936331  1  0  -0.873599  0  1.860184  0  0  -0.83086  0  2.06688  0  0  -0.854265  0  2.02974  0  -1.273426  0  -0.598725  -0.81421  0  2.091254  0
O  O113  1  0.82571588  0.58717103  0.03936271  1  0  -0.873629  0  1.860233  0  0  -0.830898  0  2.066932  0  0  -0.854305  0  2.029786  0  -1.273428  0  -0.598733  -0.814262  0  2.091305  0
O  O114  1  0.82571373  0.08717365  0.46063669  1  0  -0.873473  0  1.860355  0  0  -0.830767  0  2.067087  0  0  -0.854172  0  2.029944  0  -1.273428  0  -0.598679  -0.81413  0  2.091431  0
O  O115  1  0.17428509  0.41282784  0.96063729  1  0  -0.873532  0  1.860235  0  0  -0.830816  0  2.066969  0  0  -0.854222  0  2.029828  0  -1.273417  0  -0.598725  -0.81418  0  2.09131  0
