# generated using pymatgen
data_CuSiH24C24(N2F)6
_symmetry_space_group_name_H-M   'P 1'
_cell_length_a   8.07066669
_cell_length_b   13.63791001
_cell_length_c   13.63807734
_cell_angle_alpha   90.00140858
_cell_angle_beta   89.99923852
_cell_angle_gamma   90.00048737
_symmetry_Int_Tables_number   1
_chemical_formula_structural   CuSiH24C24(N2F)6
_chemical_formula_sum   'Cu1 Si1 H24 C24 N12 F6'
_cell_volume   1501.10261298
_cell_formula_units_Z   1
loop_
 _symmetry_equiv_pos_site_id
 _symmetry_equiv_pos_as_xyz
  1  'x, y, z'
loop_
 _atom_site_type_symbol
 _atom_site_label
 _atom_site_symmetry_multiplicity
 _atom_site_fract_x
 _atom_site_fract_y
 _atom_site_fract_z
 _atom_site_occupancy
 _atom_site_pbe_bader_charge
 _atom_site_pbe_bader_spin_density
 _atom_site_pbe_cm5_charge
 _atom_site_pbe_ddec_charge
 _atom_site_pbe_ddec_spin_density
 _atom_site_pbe_ddec_sum_bond_order
 _atom_site_pbe_magmom
Cu  Cu0  1  0.50002605  0.49999388  0.50001157  1  1.077859  0.559939  0.797112  0.699388  0.725138  2.305582  0.557
Si  Si1  1  0.99997442  0.50003584  0.50000038  1  3.165161  -0.000201  0.250528  1.733954  -0.000353  3.92359  0.0
H  H2  1  0.25207191  0.65252519  0.54216994  1  0.162523  0.002592  0.114851  0.118464  0.001185  1.052564  0.002
H  H3  1  0.74796743  0.65253938  0.45778802  1  0.162397  0.002594  0.114872  0.118462  0.001187  1.052484  0.002
H  H4  1  0.25210418  0.34744955  0.45780166  1  0.162679  0.00259  0.11491  0.118564  0.001185  1.052595  0.002
H  H5  1  0.74793465  0.34743648  0.54227419  1  0.163016  0.002592  0.114963  0.118561  0.001186  1.052474  0.002
H  H6  1  0.25209537  0.45782956  0.65255628  1  0.16261  0.00259  0.114904  0.118612  0.001185  1.052524  0.002
H  H7  1  0.74794346  0.54221769  0.65256705  1  0.162595  0.002591  0.114964  0.118565  0.001185  1.052674  0.002
H  H8  1  0.25211046  0.54217305  0.34747032  1  0.162487  0.002591  0.114884  0.118543  0.001185  1.052649  0.002
H  H9  1  0.74792889  0.45772445  0.34745409  1  0.163022  0.002591  0.114875  0.118339  0.001185  1.0528  0.002
H  H10  1  0.78664414  0.91676884  0.43533780  1  0.453737  0.000288  0.299194  0.291225  0.000193  0.966279  0.0
H  H11  1  0.88621390  0.80598372  0.42899570  1  0.456644  7.1e-05  0.314401  0.316562  3.9e-05  0.928086  0.0
H  H12  1  0.21336913  0.91673741  0.56461859  1  0.452443  0.000288  0.299318  0.291049  0.000193  0.966507  0.0
H  H13  1  0.11381642  0.80595192  0.57093157  1  0.457585  7e-05  0.31433  0.316524  3.9e-05  0.928106  0.0
H  H14  1  0.78662083  0.08321016  0.56469990  1  0.453633  0.000288  0.299291  0.29125  0.000192  0.966535  0.0
H  H15  1  0.88618455  0.19398700  0.57104560  1  0.45685  7e-05  0.314444  0.316761  3.9e-05  0.927821  0.0
H  H16  1  0.21335115  0.08324227  0.43531886  1  0.453591  0.000288  0.299279  0.291166  0.000193  0.966202  0.0
H  H17  1  0.11382242  0.19402797  0.42902648  1  0.457235  7.1e-05  0.314395  0.316725  3.9e-05  0.927676  0.0
H  H18  1  0.78663268  0.56463869  0.91678477  1  0.453893  0.000288  0.299331  0.291281  0.000193  0.966588  0.0
H  H19  1  0.88620936  0.57098974  0.80599244  1  0.456865  7e-05  0.314338  0.316591  3.9e-05  0.927726  0.0
H  H20  1  0.21337803  0.43536299  0.91675982  1  0.453588  0.000288  0.299362  0.291396  0.000193  0.966443  0.0
H  H21  1  0.11382238  0.42905688  0.80597400  1  0.457523  7.1e-05  0.31426  0.316539  3.9e-05  0.928063  0.0
H  H22  1  0.78661370  0.43528971  0.08323827  1  0.453623  0.000288  0.29932  0.291205  0.000193  0.966593  0.0
H  H23  1  0.88617794  0.42894139  0.19402027  1  0.456553  7e-05  0.314412  0.316635  3.9e-05  0.927921  0.0
H  H24  1  0.21339305  0.56464895  0.08326562  1  0.45287  0.000288  0.299392  0.291298  0.000193  0.966459  0.0
H  H25  1  0.11382885  0.57095234  0.19405371  1  0.457325  7e-05  0.314331  0.316647  3.9e-05  0.927907  0.0
C  C26  1  0.36051080  0.69619176  0.52338147  1  0.543227  -0.001512  0.014164  -0.0826  -0.001435  3.931674  -0.001
C  C27  1  0.35348855  0.79882256  0.52262899  1  0.379284  0.00606  0.104326  0.245772  0.003931  4.094218  0.005
C  C28  1  0.50001734  0.85198697  0.49998143  1  0.190808  -0.002937  -0.02528  -0.079626  -0.003313  4.09399  -0.002
C  C29  1  0.64654910  0.79882937  0.47732817  1  0.384285  0.006062  0.10442  0.246025  0.003932  4.094307  0.005
C  C30  1  0.63952667  0.69620438  0.47655630  1  0.543627  -0.001513  0.014284  -0.082569  -0.001435  3.93156  -0.001
C  C31  1  0.50000318  0.95502328  0.50000836  1  -0.19024  -0.001145  -0.052492  -0.101535  -0.001263  4.188702  -0.001
C  C32  1  0.49999688  0.04494689  0.49998984  1  -0.418734  -0.001188  -0.052436  -0.101604  -0.001263  4.188285  -0.001
C  C33  1  0.50001865  0.14798247  0.50002044  1  0.184878  -0.002939  -0.02504  -0.079698  -0.003313  4.093325  -0.002
C  C34  1  0.35347747  0.20115271  0.47735720  1  0.384507  0.006064  0.104272  0.245636  0.003932  4.094225  0.005
C  C35  1  0.36050859  0.30378795  0.47661492  1  0.542912  -0.001509  0.014224  -0.082464  -0.001434  3.931422  -0.001
C  C36  1  0.63951477  0.30377239  0.52348331  1  0.543246  -0.001512  0.014079  -0.082666  -0.001435  3.931672  -0.001
C  C37  1  0.64654075  0.20114524  0.52269599  1  0.383351  0.006064  0.104346  0.245962  0.003932  4.094308  0.005
C  C38  1  0.36050737  0.47661112  0.69621765  1  0.542862  -0.00151  0.014169  -0.082445  -0.001435  3.931197  -0.001
C  C39  1  0.35348700  0.47736394  0.79885166  1  0.384319  0.006064  0.104285  0.2457  0.003932  4.094688  0.005
C  C40  1  0.50001598  0.50002168  0.85199667  1  0.184657  -0.002937  -0.025105  -0.07955  -0.003311  4.093673  -0.002
C  C41  1  0.64654118  0.52267297  0.79885177  1  0.383935  0.006065  0.104178  0.245689  0.003933  4.094297  0.005
C  C42  1  0.63953793  0.52344747  0.69622224  1  0.543267  -0.001512  0.014285  -0.082379  -0.001436  3.931362  -0.001
C  C43  1  0.50002972  0.49999141  0.95504858  1  -0.419073  -0.001186  -0.052467  -0.101722  -0.001261  4.188024  -0.001
C  C44  1  0.50001866  0.49999122  0.04497162  1  -0.189603  -0.001144  -0.052243  -0.101391  -0.001262  4.188092  -0.001
C  C45  1  0.50002744  0.49997563  0.14802867  1  0.190565  -0.002936  -0.025399  -0.079521  -0.003311  4.094144  -0.002
C  C46  1  0.35350752  0.52263333  0.20117486  1  0.379204  0.006063  0.104403  0.245736  0.003932  4.094378  0.005
C  C47  1  0.36051945  0.52338472  0.30380881  1  0.543036  -0.001513  0.014083  -0.082671  -0.001435  3.931718  -0.001
C  C48  1  0.63952457  0.47651170  0.30379758  1  0.542617  -0.001511  0.014324  -0.082436  -0.001435  3.931705  -0.001
C  C49  1  0.64653876  0.47729137  0.20117092  1  0.383304  0.006062  0.104206  0.245795  0.003931  4.094387  0.005
N  N50  1  0.50002708  0.64835386  0.49996280  1  -1.19902  0.096048  -0.342949  -0.167829  0.064024  3.719121  0.084
N  N51  1  0.50002130  0.35162291  0.50005447  1  -1.198336  0.09605  -0.342804  -0.167838  0.064022  3.718483  0.084
N  N52  1  0.50002690  0.50003750  0.64838219  1  -1.197997  0.096069  -0.342982  -0.168158  0.064036  3.718449  0.084
N  N53  1  0.50002396  0.49994587  0.35163948  1  -1.198412  0.096068  -0.342759  -0.167672  0.064035  3.718877  0.084
N  N54  1  0.79416940  0.84652452  0.45956686  1  -1.245259  0.001791  -0.588211  -0.611094  0.001058  3.331459  0.001
N  N55  1  0.20585776  0.84650492  0.54037387  1  -1.245142  0.001792  -0.588133  -0.61066  0.001058  3.33146  0.001
N  N56  1  0.79415008  0.15344718  0.54047811  1  -1.245001  0.001792  -0.58834  -0.611247  0.001059  3.331465  0.001
N  N57  1  0.20586252  0.15347178  0.45959737  1  -1.245881  0.001793  -0.588203  -0.610913  0.001059  3.331277  0.001
N  N58  1  0.79415559  0.54043253  0.84654800  1  -1.245607  0.001792  -0.588193  -0.611018  0.001058  3.331325  0.001
N  N59  1  0.20588021  0.45960629  0.84653617  1  -1.245844  0.001791  -0.588126  -0.611036  0.001058  3.331854  0.001
N  N60  1  0.79414035  0.45950472  0.15346764  1  -1.244419  0.001791  -0.588233  -0.611012  0.001058  3.331608  0.001
N  N61  1  0.20588096  0.54039974  0.15348639  1  -1.244969  0.001792  -0.588263  -0.611128  0.001059  3.331295  0.001
F  F62  1  0.21259379  0.50002833  0.50002079  1  -0.83075  -0.00159  -0.19881  -0.527233  -0.001706  1.342635  -0.001
F  F63  1  0.78739264  0.50003203  0.50002141  1  -0.83078  -0.001591  -0.198745  -0.52726  -0.001706  1.34316  -0.001
F  F64  1  0.99999709  0.58930722  0.41053139  1  -0.837804  0.000319  -0.259563  -0.552737  0.000258  1.051329  0.0
F  F65  1  0.99998645  0.41067281  0.58943491  1  -0.838038  0.00032  -0.259887  -0.552989  0.000258  1.050989  0.0
F  F66  1  0.99999636  0.58944140  0.58935425  1  -0.837273  0.000319  -0.259725  -0.552891  0.000258  1.051262  0.0
F  F67  1  0.99997726  0.41052103  0.41070663  1  -0.838018  0.00032  -0.259921  -0.553028  0.000258  1.050745  0.0
