# generated using pymatgen
data_Zn2H23C42N11O6
_symmetry_space_group_name_H-M   'P 1'
_cell_length_a   19.99308943
_cell_length_b   19.07044079
_cell_length_c   21.45527568
_cell_angle_alpha   106.19210532
_cell_angle_beta   108.70055958
_cell_angle_gamma   113.19907021
_symmetry_Int_Tables_number   1
_chemical_formula_structural   Zn2H23C42N11O6
_chemical_formula_sum   'Zn4 H46 C84 N22 O12'
_cell_volume   6303.79582841
_cell_formula_units_Z   2
loop_
 _symmetry_equiv_pos_site_id
 _symmetry_equiv_pos_as_xyz
  1  'x, y, z'
loop_
 _atom_site_type_symbol
 _atom_site_label
 _atom_site_symmetry_multiplicity
 _atom_site_fract_x
 _atom_site_fract_y
 _atom_site_fract_z
 _atom_site_occupancy
 _atom_site_pbe_bader_charge
 _atom_site_pbe_bader_spin_density
 _atom_site_pbe_cm5_charge
 _atom_site_pbe_ddec_charge
 _atom_site_pbe_ddec_spin_density
 _atom_site_pbe_ddec_sum_bond_order
 _atom_site_pbe_magmom
Zn  Zn0  1  0.90383430  0.88824056  0.52420034  1  1.226631  0  0.732263  0.660955  0  2.333483  0
Zn  Zn1  1  0.12160726  0.09028892  0.48510997  1  1.187766  0  0.749904  0.645576  0  2.314064  0
Zn  Zn2  1  0.14950361  0.99735386  0.60949858  1  1.22676  0  0.766705  0.691884  0  2.459133  0
Zn  Zn3  1  0.91818105  0.99790564  0.41443230  1  1.188137  0  0.758203  0.690771  0  2.243495  0
H  H4  1  0.15964109  0.26177268  0.44252221  1  0.112998  0  0.12033  0.112796  0  0.987138  0
H  H5  1  0.11146868  0.24506702  0.60830903  1  0.136137  0  0.130968  0.133964  0  0.98105  0
H  H6  1  0.75791403  0.91388206  0.53651881  1  0.092894  0  0.112451  0.095695  0  1.050887  0
H  H7  1  0.91864656  0.17270624  0.43206265  1  0.090911  0  0.114349  0.105327  0  1.006473  0
H  H8  1  0.09786939  0.10952074  0.78923678  1  0.112283  0  0.112705  0.100686  0  1.028538  0
H  H9  1  0.71498432  0.71552075  0.40005687  1  0.101692  0  0.1267  0.1249  0  0.972885  0
H  H10  1  0.23257597  0.05497820  0.41966855  1  0.089446  0  0.120026  0.109144  0  1.013834  0
H  H11  1  0.13649645  0.82259233  0.57464812  1  0.074661  0  0.119489  0.107923  0  0.99211  0
H  H12  1  0.88731251  0.00871516  0.25937363  1  0.077891  0  0.12113  0.104738  0  0.993358  0
H  H13  1  0.13311170  0.04667695  0.34259621  1  0.091932  0  0.114583  0.097133  0  1.050424  0
H  H14  1  0.89942145  0.74579362  0.40072813  1  0.144072  0  0.123205  0.120019  0  1.001305  0
H  H15  1  0.77041629  0.83901887  0.26611365  1  0.073306  0  0.116764  0.107134  0  0.993255  0
H  H16  1  0.25079927  0.92589463  0.55490993  1  0.07468  0  0.118362  0.101597  0  1.009212  0
H  H17  1  0.29321737  0.85533181  0.48888429  1  0.021779  0  0.094001  0.092854  0  1.027787  0
H  H18  1  0.31208646  0.01293666  0.37683114  1  0.058143  0  0.101018  0.105577  0  1.008865  0
H  H19  1  0.51767653  0.02116666  0.30833185  1  0.067355  0  0.102828  0.105318  0  0.991336  0
H  H20  1  0.63700289  0.00531266  0.36635989  1  0.040124  0  0.096918  0.099405  0  1.011792  0
H  H21  1  0.61809451  0.84670222  0.47720997  1  0.067407  0  0.101946  0.10968  0  1.00759  0
H  H22  1  0.49026034  0.77562803  0.48687883  1  0.048409  0  0.103741  0.10703  0  0.989529  0
H  H23  1  0.36926977  0.77852331  0.49112678  1  0.049763  0  0.097174  0.096809  0  1.009778  0
H  H24  1  0.14443312  0.73697117  0.46481058  1  0.027717  0  0.094485  0.093155  0  1.029988  0
H  H25  1  0.87918054  0.58955876  0.38085630  1  0.07821  0  0.104462  0.111816  0  0.998149  0
H  H26  1  0.80257742  0.42955109  0.32126215  1  0.084442  0  0.105964  0.11031  0  0.986458  0
H  H27  1  0.80804552  0.30041107  0.31409407  1  0.057478  0  0.100428  0.102766  0  0.99619  0
H  H28  1  0.89366838  0.24043331  0.35627629  1  0.045392  0  0.094225  0.095263  0  1.018201  0
H  H29  1  0.15964637  0.38818712  0.44272123  1  0.056359  0  0.098876  0.102594  0  1.010509  0
H  H30  1  0.60609573  0.80086422  0.24027358  1  0.102689  0  0.118122  0.131792  0  0.998002  0
H  H31  1  0.33384931  0.32393559  0.81424905  1  0.071192  0  0.103318  0.103864  0  0.992294  0
H  H32  1  0.10336466  0.31800477  0.75207071  1  0.089286  0  0.107277  0.110576  0  0.986884  0
H  H33  1  0.31824548  0.57757491  0.99711043  1  0.122209  0  0.109001  0.124464  0  1.017282  0
H  H34  1  0.46421760  0.48455943  0.13505344  1  0.097114  0  0.123151  0.136992  0  0.968975  0
H  H35  1  0.39988456  0.45037270  0.93401587  1  0.067735  0  0.104635  0.10505  0  0.996607  0
H  H36  1  0.38174861  0.46355489  0.03151804  1  0.066809  0  0.101404  0.095238  0  1.015588  0
H  H37  1  0.17024939  0.44573077  0.87298665  1  0.05978  0  0.109335  0.112527  0  0.982645  0
H  H38  1  0.06110167  0.18054769  0.85012958  1  0.036757  0  0.102383  0.101394  0  1.011528  0
H  H39  1  0.92717746  0.10620094  0.22279226  1  0.076073  0  0.109801  0.110398  0  0.995728  0
H  H40  1  0.09542610  0.21851825  0.07494037  1  0.099531  0  0.106529  0.115444  0  1.022921  0
H  H41  1  0.83465370  0.00744706  0.89050138  1  0.066487  0  0.10301  0.1003  0  0.993439  0
H  H42  1  0.93561971  0.17005093  0.13928788  1  0.097985  0  0.114551  0.120093  0  0.976666  0
H  H43  1  0.83146156  0.94581373  0.77134227  1  0.138079  0  0.102248  0.114819  0  1.044114  0
H  H44  1  0.90694391  0.10615345  0.01670426  1  0.044072  0  0.101996  0.09466  0  1.005176  0
H  H45  1  0.06611411  0.24004882  0.96936568  1  0.080149  0  0.106991  0.109551  0  0.986752  0
H  H46  1  0.39666790  0.02423748  0.31247073  1  0.071405  0  0.105939  0.110454  0  0.987515  0
H  H47  1  0.22675752  0.53178819  0.44686446  1  0.084441  0  0.102058  0.104926  0  0.991541  0
H  H48  1  0.22139355  0.66115594  0.45504425  1  0.046193  0  0.097778  0.097781  0  1.014262  0
H  H49  1  0.76969822  0.02634280  0.38857580  1  0.078596  0  0.110676  0.095663  0  1.011842  0
C  C50  1  0.91005415  0.94541258  0.66881781  1  0.765472  0  0.174982  0.079313  0  3.949207  0
C  C51  1  0.10169889  0.23028653  0.44357151  1  0.361064  0  0.008633  -0.048109  0  3.974791  0
C  C52  1  0.18730698  0.16086747  0.70174367  1  0.794896  0  0.186629  0.081174  0  3.996017  0
C  C53  1  0.78028731  0.00201759  0.42863432  1  0.347096  0  -0.005196  -0.068691  0  4.00188  0
C  C54  1  0.13206130  0.20924158  0.63203996  1  0.371143  0  0.024582  -0.03446  0  3.86017  0
C  C55  1  0.77586994  0.94510652  0.50454585  1  0.411075  0  0.004209  -0.03826  0  3.969242  0
C  C56  1  0.97818515  0.18363099  0.43715525  1  0.414381  0  -0.002611  -0.064698  0  3.999119  0
C  C57  1  0.03859519  0.05447090  0.74283253  1  0.397151  0  0.002999  -0.062698  0  3.981516  0
C  C58  1  0.96076267  0.01826467  0.74078567  1  0.033691  0  -0.007579  -0.039254  0  3.972954  0
C  C59  1  0.03497052  0.24334709  0.42506866  1  -0.018536  0  -0.039636  -0.040901  0  4.086807  0
C  C60  1  0.17682256  0.23137794  0.70709675  1  0.096135  0  -0.000134  -0.031094  0  3.979892  0
C  C61  1  0.72611277  0.95812209  0.45124544  1  0.072895  0  -0.038053  -0.031212  0  4.076979  0
C  C62  1  0.74231976  0.75481637  0.37652215  1  0.429681  0  0.016711  -0.036705  0  3.94618  0
C  C63  1  0.22964262  0.02804037  0.45775645  1  0.38541  0  0.012679  -0.039274  0  3.942178  0
C  C64  1  0.08026143  0.81732544  0.53869530  1  0.403193  0  0.007292  -0.05421  0  4.000081  0
C  C65  1  0.94593920  0.01381059  0.28829285  1  0.459935  0  0.018272  -0.030388  0  3.961646  0
C  C66  1  0.07090746  0.03242509  0.33019221  1  0.416643  0  0.004346  -0.042924  0  3.963594  0
C  C67  1  0.95915884  0.77787251  0.45023209  1  0.403316  0  0.015563  -0.029035  0  3.931485  0
C  C68  1  0.77096390  0.81972086  0.30932108  1  0.399856  0  0.004934  -0.051144  0  3.991151  0
C  C69  1  0.23876501  0.96196125  0.52633053  1  0.430842  0  0.013234  -0.040504  0  3.987462  0
C  C70  1  0.70568477  0.75238899  0.30756556  1  0.075253  0  -0.042137  -0.050622  0  4.118245  0
C  C71  1  0.25633419  0.97294334  0.47017611  1  0.029246  0  -0.027438  -0.018303  0  4.051855  0
C  C72  1  0.01647097  0.75171788  0.46748012  1  0.017831  0  -0.030925  -0.025366  0  4.059942  0
C  C73  1  0.01732333  0.04502083  0.27965592  1  0.020393  0  -0.035012  -0.035329  0  4.052789  0
C  C74  1  0.31867822  0.88332699  0.45777781  1  -0.054066  0  -0.095322  -0.191652  0  3.94845  0
C  C75  1  0.29964981  0.94058963  0.43888760  1  0.017803  0  -0.013958  0.082651  0  4.086068  0
C  C76  1  0.32884623  0.97122377  0.39476957  1  -0.033139  0  -0.089561  -0.183945  0  3.929081  0
C  C77  1  0.38477052  0.95476234  0.37744398  1  -0.006096  0  -0.007587  0.08401  0  4.050116  0
C  C78  1  0.41220247  0.90572902  0.40541528  1  0.005911  0  0.000836  -0.001097  0  3.922653  0
C  C79  1  0.37462710  0.86529260  0.44212517  1  -0.000225  0  -0.010621  0.081893  0  4.059378  0
C  C80  1  0.42146844  0.99179525  0.33825121  1  -0.063041  0  -0.089667  -0.13342  0  4.008815  0
C  C81  1  0.48835368  0.99013808  0.33600191  1  -0.046916  0  -0.090972  -0.133484  0  4.015363  0
C  C82  1  0.52418945  0.95139290  0.37274314  1  -0.039474  0  -0.010213  0.080826  0  4.056381  0
C  C83  1  0.48163105  0.90405579  0.40309628  1  0.000757  0  -0.000807  -0.000673  0  3.921462  0
C  C84  1  0.51408466  0.86201466  0.43745776  1  -0.025633  0  -0.01009  0.080678  0  4.060439  0
C  C85  1  0.46829337  0.81218346  0.46493049  1  -0.024119  0  -0.090955  -0.131916  0  4.014053  0
C  C86  1  0.40138610  0.81380346  0.46717525  1  -0.057199  0  -0.095282  -0.139502  0  4.025431  0
C  C87  1  0.60241722  0.96451263  0.38558728  1  0.008368  0  -0.095611  -0.192776  0  3.947803  0
C  C88  1  0.63935631  0.93213600  0.42733958  1  -0.073778  0  -0.013725  0.088447  0  4.094233  0
C  C89  1  0.59220422  0.87643064  0.44846768  1  -0.016131  0  -0.092069  -0.190015  0  3.931382  0
C  C90  1  0.08660539  0.67480939  0.43910172  1  -0.050333  0  -0.093314  -0.189129  0  3.942741  0
C  C91  1  0.01248916  0.67226078  0.42908349  1  0.046379  0  -0.009868  0.090762  0  4.073405  0
C  C92  1  0.93734003  0.59213846  0.39057861  1  -0.081694  0  -0.086914  -0.182064  0  3.926129  0
C  C93  1  0.93661158  0.51515829  0.37113718  1  -0.031523  0  -0.008713  0.081984  0  4.051378  0
C  C94  1  0.01378932  0.51899573  0.39041243  1  0.00961  0  -0.000104  -0.002176  0  3.922269  0
C  C95  1  0.08895655  0.59960482  0.42065890  1  -0.020798  0  -0.010817  0.079605  0  4.055431  0
C  C96  1  0.86191246  0.43300683  0.33943219  1  -0.033084  0  -0.089815  -0.131225  0  4.012567  0
C  C97  1  0.86502686  0.36170796  0.33547058  1  -0.030689  0  -0.095792  -0.142382  0  4.0289  0
C  C98  1  0.94303106  0.36629035  0.36252283  1  -0.046579  0  -0.012082  0.080448  0  4.065046  0
C  C99  1  0.01695917  0.44480586  0.38586880  1  -0.019395  0  -0.000487  -0.001798  0  3.921396  0
C  C100  1  0.09510672  0.45025947  0.41083522  1  -0.023292  0  -0.009845  0.082609  0  4.055284  0
C  C101  1  0.16796520  0.52925072  0.43204047  1  -0.057833  0  -0.093265  -0.136519  0  4.016764  0
C  C102  1  0.16496106  0.60076024  0.43665167  1  -0.05395  0  -0.092757  -0.132909  0  4.017334  0
C  C103  1  0.95001592  0.29908826  0.37165690  1  0.002462  0  -0.098688  -0.196268  0  3.956417  0
C  C104  1  0.02782948  0.30754100  0.40371698  1  -0.032183  0  -0.016534  0.085699  0  4.099616  0
C  C105  1  0.09893394  0.38138795  0.41920369  1  -0.041359  0  -0.095118  -0.192701  0  3.944546  0
C  C106  1  0.61966845  0.69631793  0.24792599  1  0.091044  0  0.011586  0.074193  0  4.010255  0
C  C107  1  0.57654274  0.73118653  0.21659600  1  0.028653  0  -0.07074  -0.159338  0  3.929755  0
C  C108  1  0.49605880  0.67946468  0.15632265  1  0.156825  0  0.085353  0.037086  0  3.874711  0
C  C109  1  0.45327390  0.58812550  0.12086344  1  0.149257  0  0.004937  0.08759  0  3.988444  0
C  C110  1  0.49420759  0.55428865  0.15774574  1  0.027023  0  -0.069435  -0.162052  0  3.925005  0
C  C111  1  0.57369565  0.60610562  0.21817210  1  0.141578  0  0.084457  0.039256  0  3.923893  0
C  C112  1  0.33411002  0.41992303  0.89516054  1  -0.07539  0  -0.086351  -0.11894  0  3.97461  0
C  C113  1  0.29713590  0.34918825  0.82748840  1  -0.00063  0  -0.091428  -0.122989  0  4.022531  0
C  C114  1  0.16858186  0.34706957  0.79192247  1  -0.097075  0  -0.086643  -0.126145  0  3.980049  0
C  C115  1  0.20622513  0.41893924  0.86023270  1  -0.004945  0  -0.083977  -0.124601  0  3.961165  0
C  C116  1  0.28880817  0.45475745  0.91438436  1  -0.003635  0  -0.006828  0.112464  0  4.023081  0
C  C117  1  0.38421218  0.52461010  0.04628529  1  -0.103398  0  -0.091404  -0.132593  0  4.001727  0
C  C118  1  0.33020285  0.52556323  0.98926360  1  -0.014755  0  -0.080243  -0.116362  0  3.924875  0
C  C119  1  0.21301197  0.30983931  0.77530598  1  0.016342  0  -0.011062  0.07619  0  4.04896  0
C  C120  1  0.94942393  0.05504843  0.80327903  1  0.034315  0  -0.00212  0.095574  0  4.010741  0
C  C121  1  0.01236942  0.14077948  0.85930575  1  0.013445  0  -0.086626  -0.122147  0  3.972599  0
C  C122  1  0.01494457  0.17501793  0.92661437  1  -0.055502  0  -0.088293  -0.124874  0  3.981392  0
C  C123  1  0.95337938  0.12548480  0.94091392  1  -0.014553  0  -0.012633  0.100714  0  4.056628  0
C  C124  1  0.88477957  0.04527024  0.88157195  1  -0.084301  0  -0.08535  -0.117302  0  3.975916  0
C  C125  1  0.88302342  0.00995663  0.81451589  1  -0.046647  0  -0.09163  -0.129809  0  3.972886  0
C  C126  1  0.98129491  0.15353609  0.16119858  1  -0.061098  0  -0.080765  -0.120647  0  3.972498  0
C  C127  1  0.97548460  0.11559295  0.20704779  1  0.011934  0  -0.076501  -0.101021  0  3.967406  0
C  C128  1  0.09698863  0.11292496  0.21972014  1  0.210379  0  0.084819  -0.013648  0  3.904884  0
C  C129  1  0.10675171  0.15690676  0.17779197  1  0.28755  0  0.085045  -0.019818  0  3.870191  0
C  C130  1  0.04475973  0.17157738  0.14145260  1  0.015277  0  0.006846  0.094826  0  4.003427  0
C  C131  1  0.96345995  0.14366538  0.01487017  1  -0.032067  0  -0.076409  -0.099711  0  3.970488  0
C  C132  1  0.03828612  0.18646945  0.07732327  1  -0.042292  0  -0.09544  -0.147361  0  3.964916  0
C  C133  1  0.03011562  0.08869173  0.23461690  1  0.045182  0  0.003426  0.049092  0  4.012511  0
N  N134  1  0.95604019  0.94413190  0.63385726  1  -0.709559  0  -0.262672  -0.207335  0  3.648719  0
N  N135  1  0.08460035  0.16761854  0.46422797  1  -0.815382  0  -0.287692  -0.187072  0  3.660386  0
N  N136  1  0.15086675  0.10383743  0.63019352  1  -0.745924  0  -0.273102  -0.220433  0  3.749898  0
N  N137  1  0.85527150  0.01196768  0.46492401  1  -0.804192  0  -0.300964  -0.199922  0  3.636176  0
N  N138  1  0.11786449  0.13215734  0.58691628  1  -0.681172  0  -0.22364  -0.125574  0  3.485189  0
N  N139  1  0.85269627  0.97576137  0.51180964  1  -0.757197  0  -0.265847  -0.217004  0  3.408686  0
N  N140  1  0.00833968  0.13828551  0.46047082  1  -0.762151  0  -0.273965  -0.238056  0  3.518111  0
N  N141  1  0.03458389  0.01039700  0.67907025  1  -0.646732  0  -0.227473  -0.167639  0  3.317933  0
N  N142  1  0.82242313  0.81984745  0.41592568  1  -0.80418  0  -0.27319  -0.154658  0  3.61692  0
N  N143  1  0.19833871  0.04778983  0.50276742  1  -0.788215  0  -0.28056  -0.18339  0  3.581881  0
N  N144  1  0.06256246  0.87791464  0.56210650  1  -0.79834  0  -0.302562  -0.197576  0  3.620536  0
N  N145  1  0.95793196  0.98775753  0.34061672  1  -0.813848  0  -0.283687  -0.175558  0  3.604597  0
N  N146  1  0.03605369  0.00009541  0.36804465  1  -0.753928  0  -0.275257  -0.213197  0  3.411383  0
N  N147  1  0.98740639  0.85411936  0.50656947  1  -0.800853  0  -0.270138  -0.211657  0  3.502562  0
N  N148  1  0.84126451  0.85977954  0.37470631  1  -0.763462  0  -0.26774  -0.21859  0  3.477092  0
N  N149  1  0.20428270  0.00623231  0.54540481  1  -0.808243  0  -0.279586  -0.195819  0  3.58711  0
N  N150  1  0.82552580  0.87718071  0.62756276  1  0.265795  0  0.042515  0.49832  0  4.229021  0
N  N151  1  0.22361318  0.13674981  0.75371824  1  0.256286  0  0.056234  0.502475  0  4.17669  0
N  N152  1  0.61153141  0.56132694  0.24687764  1  0.405875  0  0.060012  0.519184  0  4.215802  0
N  N153  1  0.45844203  0.72567475  0.13124710  1  0.365705  0  0.057038  0.521164  0  4.200986  0
N  N154  1  0.16038815  0.09300743  0.25167732  1  0.411315  0  0.056598  0.519934  0  4.254284  0
N  N155  1  0.17948484  0.18116488  0.16594427  1  0.393541  0  0.055434  0.518846  0  4.223203  0
O  O156  1  0.80084008  0.82220026  0.56274492  1  -0.538393  0  -0.166998  -0.382628  0  1.956943  0
O  O157  1  0.77781314  0.87277861  0.65389722  1  -0.476216  0  -0.138381  -0.333695  0  1.905604  0
O  O158  1  0.22487041  0.06818380  0.72767088  1  -0.525312  0  -0.159324  -0.349755  0  2.002035  0
O  O159  1  0.25206575  0.17967614  0.82080359  1  -0.408524  0  -0.09963  -0.28266  0  1.909694  0
O  O160  1  0.67890613  0.57710930  0.24948907  1  -0.440866  0  -0.129313  -0.327329  0  1.873949  0
O  O161  1  0.57199010  0.51009910  0.26509149  1  -0.448507  0  -0.134922  -0.328297  0  1.83791  0
O  O162  1  0.38155551  0.68953232  0.10323573  1  -0.442735  0  -0.129574  -0.328795  0  1.909251  0
O  O163  1  0.50567173  0.79856347  0.14111587  1  -0.457086  0  -0.149465  -0.350978  0  1.858082  0
O  O164  1  0.22783244  0.15402652  0.30651118  1  -0.452702  0  -0.137113  -0.331818  0  1.850107  0
O  O165  1  0.13988512  0.01698451  0.22416172  1  -0.413598  0  -0.108687  -0.295743  0  1.885282  0
O  O166  1  0.19981388  0.12758001  0.15175415  1  -0.443322  0  -0.129183  -0.317761  0  1.874372  0
O  O167  1  0.21518576  0.25392311  0.17080129  1  -0.438569  0  -0.13079  -0.324681  0  1.872032  0
