# generated using pymatgen
data_CdH11C15N4O5
_symmetry_space_group_name_H-M   'P 1'
_cell_length_a   9.08919489
_cell_length_b   9.21239499
_cell_length_c   18.03509493
_cell_angle_alpha   90.00004175
_cell_angle_beta   100.50712247
_cell_angle_gamma   89.99990520
_symmetry_Int_Tables_number   1
_chemical_formula_structural   CdH11C15N4O5
_chemical_formula_sum   'Cd4 H44 C60 N16 O20'
_cell_volume   1484.81556638
_cell_formula_units_Z   4
loop_
 _symmetry_equiv_pos_site_id
 _symmetry_equiv_pos_as_xyz
  1  'x, y, z'
loop_
 _atom_site_type_symbol
 _atom_site_label
 _atom_site_symmetry_multiplicity
 _atom_site_fract_x
 _atom_site_fract_y
 _atom_site_fract_z
 _atom_site_occupancy
 _atom_site_hle17_bader_spin_density
 _atom_site_hle17_ddec_charge
 _atom_site_hle17_ddec_spin_density
 _atom_site_hle17_ddec_sum_bond_order
 _atom_site_hle17_magmom
 _atom_site_hse06_10hf_bader_spin_density
 _atom_site_hse06_10hf_ddec_charge
 _atom_site_hse06_10hf_ddec_spin_density
 _atom_site_hse06_10hf_ddec_sum_bond_order
 _atom_site_hse06_10hf_magmom
 _atom_site_hse06_bader_spin_density
 _atom_site_hse06_ddec_charge
 _atom_site_hse06_ddec_spin_density
 _atom_site_hse06_ddec_sum_bond_order
 _atom_site_hse06_magmom
 _atom_site_pbe_bader_spin_density
 _atom_site_pbe_cm5_charge
 _atom_site_pbe_ddec_charge
 _atom_site_pbe_ddec_spin_density
 _atom_site_pbe_ddec_sum_bond_order
 _atom_site_pbe_magmom
Cd  Cd0  1  0.84826339  0.56397439  0.17910087  1  0  1.124243  0  1.627006  0  0  0.931169  0  2.06436  0  0  0.991696  0  2.011149  0  0  0.768988  0.888192  0  2.100539  0
Cd  Cd1  1  0.65173566  0.06397438  0.32089834  1  0  1.12421  0  1.627056  0  0  0.93114  0  2.064409  0  0  0.991665  0  2.011201  0  0  0.768971  0.888171  0  2.100598  0
Cd  Cd2  1  0.15173627  0.43602497  0.82089902  1  0  1.12423  0  1.627036  0  0  0.93116  0  2.06439  0  0  0.991689  0  2.011176  0  0  0.768983  0.888187  0  2.100578  0
Cd  Cd3  1  0.34826289  0.93602498  0.67910088  1  0  1.12424  0  1.627036  0  0  0.93116  0  2.064389  0  0  0.99169  0  2.011177  0  0  0.768977  0.888182  0  2.100571  0
H  H4  1  0.68065034  0.41861825  0.27365431  1  0  0.431096  0  0.867672  0  0  0.401026  0  0.929458  0  0  0.411892  0  0.913819  0  0  0.290433  0.393363  0  0.940497  0
H  H5  1  0.81934927  0.91861729  0.22634509  1  0  0.431163  0  0.867587  0  0  0.401093  0  0.929375  0  0  0.411958  0  0.913732  0  0  0.290471  0.393434  0  0.94041  0
H  H6  1  0.31934932  0.58137785  0.72634557  1  0  0.431132  0  0.867623  0  0  0.40106  0  0.929407  0  0  0.411925  0  0.91377  0  0  0.290459  0.393395  0  0.940448  0
H  H7  1  0.18065041  0.08137772  0.77365424  1  0  0.431144  0  0.86762  0  0  0.401071  0  0.929402  0  0  0.411937  0  0.913764  0  0  0.290467  0.393408  0  0.940439  0
H  H8  1  0.62636253  0.35015939  0.19565435  1  0  0.426703  0  0.869634  0  0  0.397872  0  0.930254  0  0  0.408483  0  0.914706  0  0  0.293284  0.390244  0  0.941454  0
H  H9  1  0.87363719  0.85015845  0.30434504  1  0  0.426698  0  0.869636  0  0  0.397866  0  0.930258  0  0  0.408475  0  0.914712  0  0  0.293287  0.390242  0  0.941453  0
H  H10  1  0.37363713  0.64983780  0.80434554  1  0  0.426735  0  0.869597  0  0  0.397903  0  0.930219  0  0  0.408513  0  0.914672  0  0  0.2933  0.390278  0  0.941415  0
H  H11  1  0.12636137  0.14983657  0.69565418  1  0  0.426717  0  0.869612  0  0  0.397884  0  0.930235  0  0  0.408493  0  0.91469  0  0  0.293298  0.390255  0  0.941436  0
H  H12  1  0.70551244  0.27149132  0.08902720  1  0  0.07327  0  0.962731  0  0  0.082605  0  1.025975  0  0  0.084601  0  1.024283  0  0  0.113504  0.080748  0  1.028076  0
H  H13  1  0.79448848  0.77149392  0.41097449  1  0  0.073266  0  0.962748  0  0  0.082627  0  1.02597  0  0  0.084624  0  1.024274  0  0  0.113516  0.080774  0  1.028075  0
H  H14  1  0.29448944  0.72850369  0.91097456  1  0  0.073243  0  0.962797  0  0  0.082598  0  1.026021  0  0  0.084596  0  1.024327  0  0  0.113504  0.080742  0  1.028125  0
H  H15  1  0.20551116  0.22850652  0.58902650  1  0  0.07328  0  0.96273  0  0  0.082614  0  1.025977  0  0  0.084611  0  1.024282  0  0  0.113513  0.080763  0  1.028076  0
H  H16  1  0.76255676  0.09378895  0.99373885  1  0  0.096313  0  0.979843  0  0  0.103634  0  1.046375  0  0  0.104637  0  1.049529  0  0  0.101451  0.102969  0  1.043969  0
H  H17  1  0.73744057  0.59379323  0.50626172  1  0  0.096344  0  0.979787  0  0  0.103673  0  1.046307  0  0  0.104676  0  1.049461  0  0  0.101453  0.103006  0  1.043896  0
H  H18  1  0.23744624  0.90620716  0.00626247  1  0  0.096308  0  0.979821  0  0  0.103633  0  1.046348  0  0  0.104635  0  1.049503  0  0  0.101448  0.102965  0  1.043941  0
H  H19  1  0.26255797  0.40620938  0.49373861  1  0  0.096336  0  0.979827  0  0  0.103659  0  1.046357  0  0  0.104662  0  1.049511  0  0  0.101455  0.102997  0  1.043946  0
H  H20  1  0.00932706  0.11414254  0.94941572  1  0  0.095806  0  0.953696  0  0  0.104759  0  1.017432  0  0  0.107082  0  1.016511  0  0  0.105389  0.10333  0  1.017608  0
H  H21  1  0.49067039  0.61414322  0.55058333  1  0  0.09579  0  0.953733  0  0  0.10474  0  1.017473  0  0  0.107064  0  1.016552  0  0  0.105384  0.103315  0  1.017646  0
H  H22  1  0.99067483  0.88585899  0.05058493  1  0  0.095809  0  0.953705  0  0  0.104757  0  1.017442  0  0  0.107081  0  1.01652  0  0  0.105378  0.103327  0  1.017614  0
H  H23  1  0.50932929  0.38585722  0.44941600  1  0  0.095797  0  0.953712  0  0  0.104743  0  1.017453  0  0  0.107068  0  1.016531  0  0  0.10538  0.103318  0  1.017624  0
H  H24  1  0.18510920  0.31263191  0.00292438  1  0  0.104334  0  0.992097  0  0  0.114082  0  1.055455  0  0  0.116402  0  1.055559  0  0  0.10593  0.112264  0  1.055672  0
H  H25  1  0.31488850  0.81263243  0.49707326  1  0  0.104321  0  0.992098  0  0  0.114076  0  1.055439  0  0  0.116396  0  1.055543  0  0  0.105949  0.11226  0  1.055654  0
H  H26  1  0.81489160  0.68737071  0.99707506  1  0  0.104319  0  0.992129  0  0  0.114071  0  1.055474  0  0  0.116389  0  1.055577  0  0  0.105938  0.112252  0  1.05569  0
H  H27  1  0.68511117  0.18736693  0.50292607  1  0  0.104338  0  0.992063  0  0  0.114093  0  1.055409  0  0  0.116412  0  1.055513  0  0  0.105963  0.112281  0  1.055627  0
H  H28  1  0.35997511  0.47950915  0.06660154  1  0  0.147316  0  0.941257  0  0  0.158232  0  0.996015  0  0  0.16205  0  0.994233  0  0  0.116495  0.155159  0  0.998165  0
H  H29  1  0.14002229  0.97950878  0.43339780  1  0  0.147361  0  0.941256  0  0  0.158286  0  0.995994  0  0  0.162104  0  0.99421  0  0  0.116519  0.155211  0  0.998146  0
H  H30  1  0.64002341  0.52049563  0.93339990  1  0  0.14736  0  0.941184  0  0  0.158296  0  0.995913  0  0  0.162115  0  0.994129  0  0  0.116538  0.155224  0  0.998064  0
H  H31  1  0.85997628  0.02048949  0.56660087  1  0  0.147316  0  0.941244  0  0  0.158236  0  0.995999  0  0  0.162055  0  0.994214  0  0  0.116483  0.155162  0  0.998142  0
H  H32  1  0.43750817  0.71480953  0.16052142  1  0  0.134938  0  0.966111  0  0  0.143007  0  1.027835  0  0  0.146392  0  1.024655  0  0  0.128387  0.140468  0  1.03026  0
H  H33  1  0.06248856  0.21481078  0.33947664  1  0  0.134909  0  0.966082  0  0  0.142971  0  1.027814  0  0  0.14636  0  1.02463  0  0  0.128368  0.140425  0  1.030238  0
H  H34  1  0.56248926  0.28519634  0.83947825  1  0  0.134925  0  0.966051  0  0  0.142989  0  1.027789  0  0  0.146375  0  1.024608  0  0  0.128362  0.140447  0  1.030221  0
H  H35  1  0.93750999  0.78518858  0.66052314  1  0  0.134929  0  0.966068  0  0  0.142994  0  1.027797  0  0  0.146382  0  1.024614  0  0  0.128373  0.140454  0  1.030218  0
H  H36  1  0.31161863  0.81828335  0.26950065  1  0  0.139582  0  0.907423  0  0  0.148581  0  0.970089  0  0  0.150078  0  0.969365  0  0  0.138043  0.147188  0  0.971503  0
H  H37  1  0.18837794  0.31828207  0.23049688  1  0  0.139521  0  0.907448  0  0  0.148502  0  0.970144  0  0  0.149995  0  0.969423  0  0  0.13801  0.147115  0  0.971554  0
H  H38  1  0.68837990  0.18171709  0.73050024  1  0  0.139586  0  0.907409  0  0  0.148579  0  0.970084  0  0  0.150077  0  0.969361  0  0  0.13804  0.147187  0  0.971496  0
H  H39  1  0.81162284  0.68171729  0.76950311  1  0  0.13956  0  0.907394  0  0  0.14855  0  0.970099  0  0  0.15005  0  0.969375  0  0  0.138019  0.147159  0  0.971512  0
H  H40  1  0.11663969  0.78319491  0.26293632  1  0  0.135357  0  0.91208  0  0  0.143238  0  0.977521  0  0  0.14532  0  0.975954  0  0  0.13668  0.141722  0  0.979059  0
H  H41  1  0.38336029  0.28319332  0.23706208  1  0  0.135334  0  0.912062  0  0  0.143219  0  0.977492  0  0  0.145296  0  0.975928  0  0  0.136672  0.141704  0  0.979033  0
H  H42  1  0.88335997  0.21680770  0.73706412  1  0  0.135386  0  0.912062  0  0  0.14326  0  0.977505  0  0  0.145344  0  0.975936  0  0  0.136687  0.14174  0  0.979045  0
H  H43  1  0.61663825  0.71680713  0.76293825  1  0  0.135323  0  0.912066  0  0  0.143204  0  0.977523  0  0  0.14529  0  0.975953  0  0  0.136673  0.141694  0  0.979057  0
H  H44  1  0.09493300  0.71622116  0.44237295  1  0  0.10478  0  0.951139  0  0  0.113004  0  1.017404  0  0  0.116838  0  1.014871  0  0  0.107324  0.110107  0  1.019902  0
H  H45  1  0.40507270  0.21622687  0.05762487  1  0  0.104776  0  0.951068  0  0  0.113011  0  1.017318  0  0  0.116845  0  1.014783  0  0  0.10731  0.110114  0  1.019816  0
H  H46  1  0.90507227  0.28378037  0.55762692  1  0  0.104778  0  0.951138  0  0  0.113018  0  1.017386  0  0  0.116851  0  1.014854  0  0  0.107324  0.110122  0  1.019883  0
H  H47  1  0.59492699  0.78377574  0.94237391  1  0  0.104812  0  0.95111  0  0  0.113032  0  1.017378  0  0  0.116866  0  1.014843  0  0  0.107315  0.110136  0  1.019876  0
C  C48  1  0.81134406  0.27608937  0.06891839  1  0  0.153095  0  3.692847  0  0  0.122479  0  3.942675  0  0  0.130545  0  3.960068  0  0  0.05294  0.116813  0  3.931211  0
C  C49  1  0.68865464  0.77608675  0.43108142  1  0  0.153094  0  3.692884  0  0  0.122461  0  3.942712  0  0  0.130528  0  3.960105  0  0  0.05296  0.116796  0  3.931249  0
C  C50  1  0.18865340  0.72391324  0.93107961  1  0  0.153038  0  3.692965  0  0  0.122412  0  3.942763  0  0  0.130477  0  3.960157  0  0  0.05288  0.116749  0  3.931299  0
C  C51  1  0.31134502  0.22391044  0.56891847  1  0  0.153004  0  3.693076  0  0  0.122388  0  3.942903  0  0  0.130456  0  3.960291  0  0  0.052885  0.116723  0  3.931436  0
C  C52  1  0.84377262  0.17680242  0.01585582  1  0  -0.113585  0  3.711803  0  0  -0.128433  0  3.967775  0  0  -0.13483  0  3.98939  0  0  -0.082531  -0.123363  0  3.952595  0
C  C53  1  0.65622511  0.67680535  0.48414441  1  0  -0.113585  0  3.711865  0  0  -0.128448  0  3.967858  0  0  -0.134847  0  3.989474  0  0  -0.082551  -0.123378  0  3.952673  0
C  C54  1  0.15622818  0.82319693  0.98414306  1  0  -0.113543  0  3.711712  0  0  -0.128393  0  3.967685  0  0  -0.134792  0  3.989302  0  0  -0.082516  -0.123323  0  3.952501  0
C  C55  1  0.34377343  0.32319617  0.51585536  1  0  -0.113584  0  3.711844  0  0  -0.128446  0  3.967827  0  0  -0.134845  0  3.989444  0  0  -0.082534  -0.123376  0  3.952641  0
C  C56  1  0.98024193  0.18817030  0.99155129  1  0  0.010757  0  3.708306  0  0  -0.012198  0  3.966815  0  0  -0.007516  0  3.98298  0  0  -0.066801  -0.015516  0  3.954755  0
C  C57  1  0.51975527  0.68817061  0.50844820  1  0  0.010731  0  3.70835  0  0  -0.012251  0  3.966919  0  0  -0.007567  0  3.983081  0  0  -0.066818  -0.015571  0  3.95486  0
C  C58  1  0.01975883  0.81182905  0.00845036  1  0  0.010756  0  3.708197  0  0  -0.012204  0  3.966715  0  0  -0.00752  0  3.982879  0  0  -0.066801  -0.015521  0  3.954651  0
C  C59  1  0.48024327  0.31182875  0.49155158  1  0  0.010731  0  3.708334  0  0  -0.012213  0  3.966848  0  0  -0.007531  0  3.983015  0  0  -0.066792  -0.015529  0  3.954787  0
C  C60  1  0.07908612  0.29713115  0.02148317  1  0  -0.134345  0  3.689478  0  0  -0.157482  0  3.943425  0  0  -0.163978  0  3.963092  0  0  -0.082054  -0.153547  0  3.929742  0
C  C61  1  0.42091268  0.79713364  0.47851678  1  0  -0.134256  0  3.6894  0  0  -0.15739  0  3.943346  0  0  -0.163886  0  3.963012  0  0  -0.082042  -0.153455  0  3.92966  0
C  C62  1  0.92091464  0.70286929  0.97851848  1  0  -0.134338  0  3.68952  0  0  -0.157473  0  3.943469  0  0  -0.163966  0  3.963133  0  0  -0.082079  -0.153538  0  3.929782  0
C  C63  1  0.57908588  0.20286463  0.52148244  1  0  -0.134248  0  3.689375  0  0  -0.157407  0  3.943349  0  0  -0.163903  0  3.963016  0  0  -0.082055  -0.153476  0  3.929672  0
C  C64  1  0.04013873  0.39141941  0.07521777  1  0  0.188124  0  3.806155  0  0  0.187314  0  4.046101  0  0  0.194668  0  4.065633  0  0  0.117496  0.182296  0  4.032358  0
C  C65  1  0.45986213  0.89142284  0.42478353  1  0  0.188099  0  3.806101  0  0  0.187297  0  4.04605  0  0  0.194651  0  4.065584  0  0  0.117509  0.182281  0  4.032316  0
C  C66  1  0.95985978  0.60857995  0.92478367  1  0  0.188082  0  3.806132  0  0  0.187252  0  4.046063  0  0  0.194606  0  4.065596  0  0  0.117526  0.182233  0  4.032331  0
C  C67  1  0.54013753  0.10857651  0.57521635  1  0  0.188109  0  3.806063  0  0  0.187292  0  4.046009  0  0  0.194646  0  4.065542  0  0  0.117524  0.182282  0  4.032265  0
C  C68  1  0.14215677  0.50595634  0.10876173  1  0  0.117113  0  3.840308  0  0  0.103534  0  4.104305  0  0  0.109819  0  4.126044  0  0  0.093074  0.099612  0  4.089303  0
C  C69  1  0.35784476  0.00595718  0.39123672  1  0  0.117156  0  3.840228  0  0  0.103538  0  4.104264  0  0  0.109823  0  4.126006  0  0  0.093102  0.099609  0  4.089281  0
C  C70  1  0.85784289  0.49404519  0.89123871  1  0  0.117201  0  3.840278  0  0  0.103691  0  4.104194  0  0  0.109977  0  4.125934  0  0  0.093125  0.099766  0  4.089206  0
C  C71  1  0.64215604  0.99404218  0.60876217  1  0  0.11716  0  3.840321  0  0  0.103592  0  4.104298  0  0  0.109874  0  4.126044  0  0  0.093113  0.099665  0  4.089302  0
C  C72  1  0.29169776  0.53466970  0.10128085  1  0  -0.212311  0  3.698046  0  0  -0.232723  0  3.963003  0  0  -0.242108  0  3.983319  0  0  -0.101842  -0.226529  0  3.949824  0
C  C73  1  0.20830036  0.03467080  0.39871783  1  0  -0.212391  0  3.697869  0  0  -0.232808  0  3.962828  0  0  -0.242193  0  3.983143  0  0  -0.101876  -0.226614  0  3.949644  0
C  C74  1  0.70830078  0.46533508  0.89871948  1  0  -0.212369  0  3.697816  0  0  -0.232825  0  3.962762  0  0  -0.242214  0  3.983084  0  0  -0.101857  -0.226627  0  3.949577  0
C  C75  1  0.79169821  0.96532639  0.60128084  1  0  -0.212289  0  3.697967  0  0  -0.232716  0  3.962922  0  0  -0.242101  0  3.98324  0  0  -0.101816  -0.226522  0  3.949731  0
C  C76  1  0.33423081  0.65356278  0.14705406  1  0  0.028533  0  3.615314  0  0  -0.035105  0  3.880081  0  0  -0.026724  0  3.893294  0  0  0.031683  -0.04044  0  3.871097  0
C  C77  1  0.16576826  0.15356496  0.35294365  1  0  0.028587  0  3.615212  0  0  -0.035013  0  3.879974  0  0  -0.026619  0  3.893159  0  0  0.031706  -0.040351  0  3.870974  0
C  C78  1  0.66576775  0.34644309  0.85294516  1  0  0.028603  0  3.615229  0  0  -0.035051  0  3.879967  0  0  -0.026668  0  3.893176  0  0  0.03171  -0.040385  0  3.870975  0
C  C79  1  0.83423139  0.84643440  0.64705679  1  0  0.028513  0  3.615246  0  0  -0.035117  0  3.879992  0  0  -0.026723  0  3.893175  0  0  0.031681  -0.040455  0  3.871002  0
C  C80  1  0.20434277  0.80923473  0.23041700  1  0  -0.077951  0  3.689215  0  0  -0.140969  0  3.9192  0  0  -0.138098  0  3.926341  0  0  -0.010392  -0.143066  0  3.915503  0
C  C81  1  0.29565492  0.30923767  0.26958119  1  0  -0.077926  0  3.689001  0  0  -0.140921  0  3.918954  0  0  -0.138039  0  3.926094  0  0  -0.010337  -0.143017  0  3.915253  0
C  C82  1  0.79565573  0.19076463  0.76958555  1  0  -0.077999  0  3.689071  0  0  -0.141092  0  3.919139  0  0  -0.138224  0  3.92628  0  0  -0.010406  -0.143186  0  3.915436  0
C  C83  1  0.70434253  0.69076386  0.73041737  1  0  -0.077935  0  3.688846  0  0  -0.141019  0  3.918903  0  0  -0.138158  0  3.926046  0  0  -0.01034  -0.143107  0  3.915184  0
C  C84  1  0.17121188  0.94766236  0.19128566  1  0  0.329145  0  3.623668  0  0  0.308177  0  3.918594  0  0  0.318517  0  3.935371  0  0  0.199666  0.300907  0  3.908114  0
C  C85  1  0.32879225  0.44767507  0.30871597  1  0  0.329361  0  3.62404  0  0  0.308388  0  3.918932  0  0  0.318719  0  3.935706  0  0  0.199826  0.301123  0  3.908452  0
C  C86  1  0.82879103  0.05233266  0.80872008  1  0  0.329385  0  3.623781  0  0  0.308433  0  3.918681  0  0  0.318774  0  3.93545  0  0  0.199826  0.301164  0  3.908199  0
C  C87  1  0.67120855  0.55231995  0.69128347  1  0  0.329369  0  3.624434  0  0  0.30842  0  3.91933  0  0  0.31876  0  3.936095  0  0  0.199811  0.301148  0  3.908851  0
C  C88  1  0.97404817  0.51599453  0.42088197  1  0  -0.055637  0  3.71211  0  0  -0.043258  0  3.951813  0  0  -0.046591  0  3.969247  0  0  -0.00651  -0.041365  0  3.940411  0
C  C89  1  0.52595433  0.01599872  0.07911701  1  0  -0.055526  0  3.712066  0  0  -0.043188  0  3.951786  0  0  -0.04652  0  3.969226  0  0  -0.006591  -0.0413  0  3.940397  0
C  C90  1  0.02595714  0.48400157  0.57911624  1  0  -0.055566  0  3.712064  0  0  -0.043218  0  3.951752  0  0  -0.046557  0  3.969202  0  0  -0.006551  -0.041329  0  3.940364  0
C  C91  1  0.47404531  0.98400280  0.92088399  1  0  -0.055573  0  3.712044  0  0  -0.043232  0  3.951741  0  0  -0.046567  0  3.969185  0  0  -0.006518  -0.041335  0  3.94034  0
C  C92  1  0.91928756  0.39274109  0.45343336  1  0  -0.050261  0  3.697969  0  0  -0.036523  0  3.936783  0  0  -0.039554  0  3.954251  0  0  -0.003796  -0.034742  0  3.92514  0
C  C93  1  0.58071544  0.89274352  0.04656692  1  0  -0.050336  0  3.698021  0  0  -0.036597  0  3.936848  0  0  -0.039632  0  3.954319  0  0  -0.003781  -0.034818  0  3.925217  0
C  C94  1  0.08071327  0.60725718  0.54656442  1  0  -0.050528  0  3.698253  0  0  -0.036724  0  3.937008  0  0  -0.039755  0  3.954481  0  0  -0.003913  -0.034947  0  3.925373  0
C  C95  1  0.41928533  0.10725801  0.95343418  1  0  -0.05033  0  3.698019  0  0  -0.036562  0  3.936827  0  0  -0.039593  0  3.954296  0  0  -0.003801  -0.034784  0  3.925188  0
C  C96  1  0.05251278  0.62154550  0.46796133  1  0  -0.090668  0  3.709248  0  0  -0.124053  0  3.963786  0  0  -0.123538  0  3.979832  0  0  -0.078157  -0.124457  0  3.953661  0
C  C97  1  0.44749418  0.12155220  0.03203713  1  0  -0.090812  0  3.709109  0  0  -0.12418  0  3.963676  0  0  -0.12367  0  3.979727  0  0  -0.078196  -0.124584  0  3.953554  0
C  C98  1  0.94749367  0.37845060  0.53203589  1  0  -0.090821  0  3.709161  0  0  -0.124208  0  3.963729  0  0  -0.123693  0  3.97978  0  0  -0.078228  -0.124616  0  3.953607  0
C  C99  1  0.55250658  0.87845042  0.96796452  1  0  -0.090864  0  3.709155  0  0  -0.124222  0  3.963717  0  0  -0.12371  0  3.979768  0  0  -0.078242  -0.124632  0  3.953597  0
C  C100  1  0.95353850  0.53391708  0.33678440  1  0  0.647113  0  3.92175  0  0  0.595  0  4.217588  0  0  0.629  0  4.210815  0  0  0.199227  0.572052  0  4.221509  0
C  C101  1  0.54646062  0.03392027  0.16321370  1  0  0.647027  0  3.921859  0  0  0.594992  0  4.217581  0  0  0.628991  0  4.210815  0  0  0.199241  0.572043  0  4.221507  0
C  C102  1  0.04646230  0.46607902  0.66321448  1  0  0.647051  0  3.921754  0  0  0.594984  0  4.217541  0  0  0.628986  0  4.210768  0  0  0.199194  0.572038  0  4.22147  0
C  C103  1  0.45354239  0.96607691  0.83678707  1  0  0.646975  0  3.921821  0  0  0.594929  0  4.217557  0  0  0.628928  0  4.210785  0  0  0.199122  0.571977  0  4.221473  0
C  C104  1  0.82508118  0.27812165  0.40778200  1  0  0.641395  0  3.920201  0  0  0.588984  0  4.216845  0  0  0.622869  0  4.210067  0  0  0.198585  0.566203  0  4.220364  0
C  C105  1  0.67491641  0.77812182  0.09221771  1  0  0.641375  0  3.92015  0  0  0.58896  0  4.216798  0  0  0.622843  0  4.210021  0  0  0.198571  0.566181  0  4.220315  0
C  C106  1  0.17491625  0.72187771  0.59221767  1  0  0.641332  0  3.920157  0  0  0.588884  0  4.216835  0  0  0.622768  0  4.210057  0  0  0.198524  0.566103  0  4.220353  0
C  C107  1  0.32508554  0.22187863  0.90778018  1  0  0.641339  0  3.920107  0  0  0.588877  0  4.216832  0  0  0.622763  0  4.210052  0  0  0.198526  0.566099  0  4.220349  0
N  N108  1  0.90667902  0.38104139  0.09807868  1  0  -0.368799  0  3.224484  0  0  -0.296924  0  3.482619  0  0  -0.316951  0  3.499858  0  0  -0.325323  -0.282413  0  3.469877  0
N  N109  1  0.59332175  0.88104105  0.40192193  1  0  -0.368808  0  3.224436  0  0  -0.296921  0  3.482549  0  0  -0.316948  0  3.499786  0  0  -0.325344  -0.282415  0  3.469815  0
N  N110  1  0.09331840  0.61896013  0.90192154  1  0  -0.368707  0  3.224446  0  0  -0.296828  0  3.482585  0  0  -0.316854  0  3.499821  0  0  -0.325261  -0.282323  0  3.469852  0
N  N111  1  0.40667680  0.11895613  0.59807785  1  0  -0.36877  0  3.224679  0  0  -0.296871  0  3.482774  0  0  -0.316897  0  3.500007  0  0  -0.325311  -0.282359  0  3.470028  0
N  N112  1  0.09641849  0.60259686  0.15593360  1  0  -0.338347  0  3.085247  0  0  -0.308251  0  3.35955  0  0  -0.324592  0  3.378074  0  0  -0.240277  -0.297224  0  3.346999  0
N  N113  1  0.40358289  0.10259973  0.34406486  1  0  -0.338376  0  3.085277  0  0  -0.308245  0  3.359604  0  0  -0.324588  0  3.378131  0  0  -0.240263  -0.297222  0  3.347064  0
N  N114  1  0.90358006  0.39740575  0.84406617  1  0  -0.338366  0  3.085274  0  0  -0.308347  0  3.359576  0  0  -0.324688  0  3.378096  0  0  -0.240343  -0.297324  0  3.347036  0
N  N115  1  0.59641679  0.89740071  0.65593447  1  0  -0.338373  0  3.085244  0  0  -0.308284  0  3.359541  0  0  -0.324627  0  3.378064  0  0  -0.240282  -0.297252  0  3.34699  0
N  N116  1  0.21420444  0.69095057  0.17827861  1  0  0.088424  0  3.590113  0  0  0.201594  0  3.772115  0  0  0.194205  0  3.795637  0  0  -0.132362  0.206298  0  3.756231  0
N  N117  1  0.28579235  0.19094926  0.32171834  1  0  0.088459  0  3.590209  0  0  0.201574  0  3.772232  0  0  0.194181  0  3.79576  0  0  -0.132408  0.206277  0  3.756339  0
N  N118  1  0.78579187  0.30905530  0.82172095  1  0  0.088315  0  3.590281  0  0  0.201597  0  3.772136  0  0  0.194209  0  3.795657  0  0  -0.132387  0.206299  0  3.756247  0
N  N119  1  0.71420621  0.80905010  0.67828088  1  0  0.088424  0  3.590231  0  0  0.201636  0  3.772177  0  0  0.194253  0  3.795697  0  0  -0.132391  0.206338  0  3.756292  0
N  N120  1  0.14738523  0.05834096  0.16029143  1  0  -0.39327  0  2.567521  0  0  -0.366821  0  2.790734  0  0  -0.379095  0  2.806329  0  0  -0.295131  -0.35833  0  2.780655  0
N  N121  1  0.35260839  0.55833251  0.33970628  1  0  -0.393497  0  2.568265  0  0  -0.367009  0  2.791432  0  0  -0.379289  0  2.807043  0  0  -0.29531  -0.358519  0  2.781356  0
N  N122  1  0.85261103  0.94166491  0.83971090  1  0  -0.393467  0  2.567845  0  0  -0.367026  0  2.791063  0  0  -0.379305  0  2.806662  0  0  -0.295284  -0.358538  0  2.780987  0
N  N123  1  0.64739126  0.44167119  0.66029472  1  0  -0.393485  0  2.568811  0  0  -0.36699  0  2.791961  0  0  -0.379272  0  2.807561  0  0  -0.295306  -0.358504  0  2.781892  0
O  O124  1  0.97487188  0.42585393  0.29702378  1  0  -0.624933  0  1.968645  0  0  -0.570995  0  2.203942  0  0  -0.598333  0  2.196813  0  0  -0.315674  -0.551955  0  2.208443  0
O  O125  1  0.52512998  0.92585667  0.20297473  1  0  -0.624903  0  1.96873  0  0  -0.571003  0  2.204008  0  0  -0.598323  0  2.196849  0  0  -0.315657  -0.551951  0  2.208509  0
O  O126  1  0.02513003  0.57414217  0.70297632  1  0  -0.624955  0  1.968726  0  0  -0.571025  0  2.203999  0  0  -0.598349  0  2.196841  0  0  -0.315654  -0.551956  0  2.208493  0
O  O127  1  0.47486971  0.07413834  0.79702404  1  0  -0.624952  0  1.968839  0  0  -0.570986  0  2.204037  0  0  -0.598313  0  2.196892  0  0  -0.31564  -0.551958  0  2.208543  0
O  O128  1  0.91253905  0.65881296  0.30844580  1  0  -0.672417  0  1.982716  0  0  -0.602  0  2.217195  0  0  -0.631131  0  2.20581  0  0  -0.328672  -0.581554  0  2.22464  0
O  O129  1  0.58746434  0.15881504  0.19155331  1  0  -0.672417  0  1.982775  0  0  -0.602023  0  2.217203  0  0  -0.631156  0  2.205818  0  0  -0.328677  -0.581562  0  2.224643  0
O  O130  1  0.08746398  0.34118423  0.69155385  1  0  -0.672399  0  1.982755  0  0  -0.602007  0  2.21721  0  0  -0.631137  0  2.205819  0  0  -0.328644  -0.581543  0  2.224649  0
O  O131  1  0.41253643  0.84118324  0.80844779  1  0  -0.672373  0  1.98266  0  0  -0.602001  0  2.217126  0  0  -0.631131  0  2.205736  0  0  -0.328668  -0.581556  0  2.224571  0
O  O132  1  0.71461287  0.31703558  0.35697965  1  0  -0.653794  0  1.989637  0  0  -0.586846  0  2.224106  0  0  -0.615907  0  2.214227  0  0  -0.322821  -0.566759  0  2.230524  0
O  O133  1  0.78538577  0.81703455  0.14302017  1  0  -0.653788  0  1.989621  0  0  -0.58683  0  2.22408  0  0  -0.615889  0  2.214203  0  0  -0.322804  -0.566742  0  2.230495  0
O  O134  1  0.28538452  0.68296812  0.64302168  1  0  -0.65377  0  1.989652  0  0  -0.586792  0  2.224107  0  0  -0.615851  0  2.214231  0  0  -0.322759  -0.566702  0  2.230522  0
O  O135  1  0.21461618  0.18296914  0.85697772  1  0  -0.653777  0  1.989677  0  0  -0.586792  0  2.224138  0  0  -0.615852  0  2.214261  0  0  -0.322763  -0.5667  0  2.23055  0
O  O136  1  0.85394948  0.14615161  0.42458688  1  0  -0.61416  0  1.902941  0  0  -0.552833  0  2.127952  0  0  -0.580167  0  2.119886  0  0  -0.320228  -0.532878  0  2.132971  0
O  O137  1  0.64604944  0.64615180  0.07541235  1  0  -0.614135  0  1.902915  0  0  -0.552797  0  2.12792  0  0  -0.580128  0  2.119845  0  0  -0.320222  -0.532844  0  2.13294  0
O  O138  1  0.14605023  0.85384775  0.57541023  1  0  -0.614092  0  1.902889  0  0  -0.552764  0  2.127906  0  0  -0.580105  0  2.119857  0  0  -0.320217  -0.532813  0  2.13293  0
O  O139  1  0.35395020  0.35384864  0.92458864  1  0  -0.614093  0  1.90282  0  0  -0.55275  0  2.12785  0  0  -0.580083  0  2.119781  0  0  -0.3202  -0.53279  0  2.132865  0
O  O140  1  0.64888857  0.44586523  0.21977628  1  0  -0.816755  0  1.836525  0  0  -0.752716  0  2.012926  0  0  -0.775819  0  1.981273  0  0  -0.585909  -0.735664  0  2.035051  0
O  O141  1  0.85111213  0.94586429  0.28022269  1  0  -0.816819  0  1.836489  0  0  -0.752772  0  2.01286  0  0  -0.775884  0  1.981246  0  0  -0.585927  -0.735707  0  2.034972  0
O  O142  1  0.35111221  0.55413196  0.78022427  1  0  -0.816815  0  1.83646  0  0  -0.752766  0  2.012849  0  0  -0.775883  0  1.981219  0  0  -0.585935  -0.735707  0  2.034971  0
O  O143  1  0.14888755  0.05413181  0.71977665  1  0  -0.816823  0  1.836503  0  0  -0.752771  0  2.01289  0  0  -0.775894  0  1.98127  0  0  -0.58595  -0.735715  0  2.035015  0
