# generated using pymatgen
data_ZnH9C17O4
_symmetry_space_group_name_H-M   'P 1'
_cell_length_a   5.89718248
_cell_length_b   20.78495772
_cell_length_c   28.02459816
_cell_angle_alpha   90.00021995
_cell_angle_beta   90.00015846
_cell_angle_gamma   89.99937402
_symmetry_Int_Tables_number   1
_chemical_formula_structural   ZnH9C17O4
_chemical_formula_sum   'Zn8 H72 C136 O32'
_cell_volume   3435.05033859
_cell_formula_units_Z   8
loop_
 _symmetry_equiv_pos_site_id
 _symmetry_equiv_pos_as_xyz
  1  'x, y, z'
loop_
 _atom_site_type_symbol
 _atom_site_label
 _atom_site_symmetry_multiplicity
 _atom_site_fract_x
 _atom_site_fract_y
 _atom_site_fract_z
 _atom_site_occupancy
 _atom_site_pbe_bader_charge
 _atom_site_pbe_bader_spin_density
 _atom_site_pbe_cm5_charge
 _atom_site_pbe_ddec_charge
 _atom_site_pbe_ddec_spin_density
 _atom_site_pbe_ddec_sum_bond_order
 _atom_site_pbe_magmom
Zn  Zn0  1  0.55585720  0.19948396  0.72616777  1  1.315189  0  0.693224  0.919057  0  2.333663  0
Zn  Zn1  1  0.94413938  0.80051742  0.22615534  1  1.315468  0  0.693291  0.919217  0  2.333537  0
Zn  Zn2  1  0.44413332  0.69948106  0.77383257  1  1.315236  0  0.693315  0.919141  0  2.334108  0
Zn  Zn3  1  0.05586453  0.30052450  0.27383089  1  1.315157  0  0.693288  0.919206  0  2.333812  0
Zn  Zn4  1  0.44417054  0.80052023  0.27383551  1  1.315371  0  0.693206  0.919188  0  2.333573  0
Zn  Zn5  1  0.05587310  0.19947956  0.77383723  1  1.315236  0  0.693353  0.919282  0  2.333833  0
Zn  Zn6  1  0.55588085  0.30051832  0.22616607  1  1.314937  0  0.69335  0.919248  0  2.333898  0
Zn  Zn7  1  0.94412590  0.69947344  0.72617238  1  1.315247  0  0.69327  0.919113  0  2.334008  0
H  H8  1  0.28762440  0.06648017  0.80187913  1  0.139412  0  0.107319  0.121774  0  1.004786  0
H  H9  1  0.21241465  0.93351666  0.30187933  1  0.139278  0  0.107308  0.121776  0  1.004748  0
H  H10  1  0.71238248  0.56649153  0.69812741  1  0.139212  0  0.107235  0.121663  0  1.004853  0
H  H11  1  0.78762546  0.43350559  0.19812211  1  0.139399  0  0.107349  0.121812  0  1.004803  0
H  H12  1  0.71242029  0.93351151  0.19811879  1  0.139361  0  0.107282  0.1217  0  1.004855  0
H  H13  1  0.78762156  0.06648945  0.69812823  1  0.139313  0  0.107287  0.121747  0  1.004966  0
H  H14  1  0.28762830  0.43351218  0.30187908  1  0.139551  0  0.107323  0.12175  0  1.004877  0
H  H15  1  0.21235140  0.56648946  0.80188188  1  0.140218  0  0.107326  0.121719  0  1.004803  0
H  H16  1  0.05519985  0.01865073  0.86617860  1  0.053691  0  0.100752  0.103224  0  1.029828  0
H  H17  1  0.44479289  0.98135439  0.36618688  1  0.053806  0  0.100756  0.1032  0  1.02984  0
H  H18  1  0.94478213  0.51865081  0.63382173  1  0.053855  0  0.100786  0.103218  0  1.029831  0
H  H19  1  0.55519921  0.48134666  0.13382077  1  0.053828  0  0.100774  0.103275  0  1.02973  0
H  H20  1  0.94481941  0.98134961  0.13381540  1  0.053745  0  0.100723  0.10316  0  1.029969  0
H  H21  1  0.55520941  0.01865028  0.63382496  1  0.053779  0  0.100771  0.103185  0  1.029794  0
H  H22  1  0.05521339  0.48134616  0.36617834  1  0.053892  0  0.100794  0.103287  0  1.029741  0
H  H23  1  0.44476917  0.51864742  0.86618286  1  0.053984  0  0.100813  0.103239  0  1.029781  0
H  H24  1  0.57504791  0.06648198  0.96856275  1  0.06804  0  0.096305  0.095595  0  1.031484  0
H  H25  1  0.92491404  0.93352180  0.46857302  1  0.067736  0  0.096251  0.095505  0  1.031221  0
H  H26  1  0.42491318  0.56648057  0.53142202  1  0.067647  0  0.09624  0.095544  0  1.031157  0
H  H27  1  0.07507520  0.43351969  0.03142806  1  0.067653  0  0.096301  0.09557  0  1.031234  0
H  H28  1  0.42493913  0.93352702  0.03142875  1  0.067946  0  0.096253  0.095532  0  1.031282  0
H  H29  1  0.07506452  0.06648094  0.53142562  1  0.067826  0  0.096272  0.095554  0  1.031253  0
H  H30  1  0.57506538  0.43351592  0.46857626  1  0.067732  0  0.096262  0.095538  0  1.031234  0
H  H31  1  0.92491692  0.56648594  0.96857735  1  0.067545  0  0.09624  0.095503  0  1.031184  0
H  H32  1  0.80020112  0.11781300  0.90414837  1  0.104284  0  0.106926  0.113503  0  0.997003  0
H  H33  1  0.69977832  0.88218104  0.40415416  1  0.104005  0  0.106916  0.113447  0  0.99694  0
H  H34  1  0.19976607  0.61782236  0.59584508  1  0.103902  0  0.106941  0.113489  0  0.996817  0
H  H35  1  0.30021331  0.38218331  0.09584574  1  0.104071  0  0.106913  0.113473  0  0.996998  0
H  H36  1  0.19979440  0.88218301  0.09584456  1  0.104175  0  0.106915  0.113457  0  0.996975  0
H  H37  1  0.30021211  0.11781737  0.59584626  1  0.104065  0  0.106961  0.113505  0  0.997018  0
H  H38  1  0.80020571  0.38218327  0.40415355  1  0.104094  0  0.106919  0.113469  0  0.997022  0
H  H39  1  0.69979069  0.61781943  0.90415646  1  0.103969  0  0.106901  0.113408  0  0.997111  0
H  H40  1  0.75221832  0.90499095  0.99269164  1  0.065525  0  0.103065  0.107803  0  1.006597  0
H  H41  1  0.74774407  0.09502082  0.49270173  1  0.065646  0  0.103057  0.107795  0  1.00669  0
H  H42  1  0.24775585  0.40497659  0.50730663  1  0.065456  0  0.103104  0.107981  0  1.006756  0
H  H43  1  0.25226941  0.59502724  0.00730940  1  0.065684  0  0.103135  0.107895  0  1.006681  0
H  H44  1  0.24775176  0.09501949  0.00729772  1  0.065541  0  0.10308  0.107873  0  1.006959  0
H  H45  1  0.25219549  0.90498626  0.50731189  1  0.065529  0  0.103058  0.107839  0  1.006533  0
H  H46  1  0.75220745  0.59502327  0.49269308  1  0.065331  0  0.103133  0.107961  0  1.006649  0
H  H47  1  0.74770576  0.40496781  0.99269530  1  0.065524  0  0.103102  0.107844  0  1.006597  0
H  H48  1  0.67865091  0.94012777  0.88778465  1  0.086691  0  0.099853  0.103575  0  1.026764  0
H  H49  1  0.82132993  0.05987297  0.38779269  1  0.086851  0  0.099804  0.103569  0  1.026611  0
H  H50  1  0.32131823  0.44012714  0.61221356  1  0.086922  0  0.099815  0.103604  0  1.026741  0
H  H51  1  0.17872249  0.55986751  0.11220994  1  0.086667  0  0.0999  0.103695  0  1.026684  0
H  H52  1  0.32133273  0.05987642  0.11220899  1  0.086967  0  0.099793  0.103547  0  1.026652  0
H  H53  1  0.17862659  0.94013651  0.61221843  1  0.087389  0  0.099826  0.103502  0  1.026772  0
H  H54  1  0.67867899  0.55986261  0.38777866  1  0.086747  0  0.099855  0.103627  0  1.026755  0
H  H55  1  0.82125268  0.44012610  0.88779512  1  0.086931  0  0.099946  0.103673  0  1.02678  0
H  H56  1  0.70639088  0.85917536  0.82220132  1  0.089146  0  0.109513  0.116455  0  0.987797  0
H  H57  1  0.79359387  0.14081511  0.32220447  1  0.089311  0  0.109548  0.116548  0  0.987906  0
H  H58  1  0.29358034  0.35918795  0.67780534  1  0.089428  0  0.10952  0.116479  0  0.987686  0
H  H59  1  0.20647683  0.64080686  0.17780398  1  0.090259  0  0.109522  0.116449  0  0.987999  0
H  H60  1  0.29358938  0.14081536  0.17780017  1  0.089268  0  0.109506  0.116504  0  0.987884  0
H  H61  1  0.20640674  0.85918330  0.67780273  1  0.08933  0  0.109465  0.116408  0  0.987912  0
H  H62  1  0.70647623  0.64080180  0.32218830  1  0.090063  0  0.109487  0.116474  0  0.987799  0
H  H63  1  0.79354582  0.35918627  0.82220107  1  0.089675  0  0.109537  0.116376  0  0.987906  0
H  H64  1  0.36025285  0.80033888  0.87471690  1  0.110513  0  0.108602  0.114337  0  0.999347  0
H  H65  1  0.13973835  0.19966460  0.37471573  1  0.111624  0  0.108583  0.114351  0  0.999491  0
H  H66  1  0.63974485  0.30034702  0.62528010  1  0.112003  0  0.108615  0.1144  0  0.999249  0
H  H67  1  0.86035504  0.69964393  0.12528597  1  0.111617  0  0.108588  0.114292  0  0.999563  0
H  H68  1  0.63977828  0.19966002  0.12528316  1  0.110674  0  0.108618  0.114358  0  0.999302  0
H  H69  1  0.86022325  0.80034440  0.62528077  1  0.110762  0  0.10866  0.11443  0  0.999257  0
H  H70  1  0.36029137  0.69965283  0.37472067  1  0.111771  0  0.10857  0.114342  0  0.999414  0
H  H71  1  0.13967609  0.30034872  0.87471445  1  0.1116  0  0.108571  0.114257  0  0.999678  0
H  H72  1  0.34093884  0.88456524  0.93778564  1  0.078457  0  0.099917  0.099968  0  1.012241  0
H  H73  1  0.15904502  0.11544313  0.43778796  1  0.078294  0  0.099889  0.099887  0  1.012315  0
H  H74  1  0.65904136  0.38456315  0.56220467  1  0.078073  0  0.099845  0.099911  0  1.012137  0
H  H75  1  0.84102347  0.61542435  0.06220830  1  0.077541  0  0.099821  0.099795  0  1.012305  0
H  H76  1  0.65905159  0.11544617  0.06220765  1  0.078292  0  0.099904  0.099926  0  1.012145  0
H  H77  1  0.84093015  0.88456876  0.56221139  1  0.078143  0  0.099913  0.099931  0  1.012121  0
H  H78  1  0.34095755  0.61543382  0.43779647  1  0.078076  0  0.099822  0.099868  0  1.012169  0
H  H79  1  0.15895679  0.38456492  0.93779248  1  0.077598  0  0.099813  0.099864  0  1.012375  0
C  C80  1  0.68015452  0.13017445  0.81062507  1  1.539185  0  0.222229  0.597748  0  4.151268  0
C  C81  1  0.81988428  0.86982191  0.31062749  1  1.538906  0  0.222198  0.59771  0  4.151549  0
C  C82  1  0.31982396  0.63017975  0.68937608  1  1.539297  0  0.222163  0.597594  0  4.151435  0
C  C83  1  0.18017915  0.36981783  0.18937470  1  1.539759  0  0.222151  0.597724  0  4.151429  0
C  C84  1  0.31987491  0.86981675  0.18936928  1  1.539118  0  0.221934  0.597355  0  4.15173  0
C  C85  1  0.18015364  0.13017554  0.68937614  1  1.539285  0  0.222164  0.597612  0  4.151265  0
C  C86  1  0.68015630  0.36981962  0.31062220  1  1.539332  0  0.222231  0.597705  0  4.1512  0
C  C87  1  0.81982993  0.63018203  0.81062501  1  1.539331  0  0.222211  0.59774  0  4.151531  0
C  C88  1  0.55778707  0.09536205  0.84905328  1  -0.011789  0  -0.020465  -0.041969  0  3.973783  0
C  C89  1  0.94224055  0.90463072  0.34905854  1  -0.01908  0  -0.020411  -0.041733  0  3.97368  0
C  C90  1  0.44222355  0.59537642  0.65094542  1  -0.019328  0  -0.02049  -0.041725  0  3.973398  0
C  C91  1  0.05779413  0.40462572  0.15094252  1  -0.019107  0  -0.020379  -0.041661  0  3.973219  0
C  C92  1  0.44223049  0.90463155  0.15094535  1  -0.019074  0  -0.020425  -0.04174  0  3.973807  0
C  C93  1  0.05777023  0.09536962  0.65094509  1  -0.019091  0  -0.020463  -0.041848  0  3.973617  0
C  C94  1  0.55777027  0.40462440  0.34905464  1  -0.019014  0  -0.020494  -0.041765  0  3.973514  0
C  C95  1  0.94220987  0.59537992  0.84905719  1  -0.019388  0  -0.020414  -0.041712  0  3.973809  0
C  C96  1  0.34981716  0.06584127  0.83850198  1  -0.058061  0  -0.077774  -0.069085  0  3.934739  0
C  C97  1  0.15018864  0.93415865  0.33850285  1  -0.057417  0  -0.077787  -0.069224  0  3.934816  0
C  C98  1  0.65019484  0.56584969  0.66150065  1  -0.057497  0  -0.077584  -0.068942  0  3.934547  0
C  C99  1  0.84982261  0.43415011  0.16149679  1  -0.057704  0  -0.077755  -0.06913  0  3.934734  0
C  C100  1  0.65021397  0.93414464  0.16149238  1  -0.057494  0  -0.077873  -0.069133  0  3.934583  0
C  C101  1  0.84982044  0.06584747  0.66150435  1  -0.057736  0  -0.077636  -0.068998  0  3.935073  0
C  C102  1  0.34982103  0.43415787  0.33850013  1  -0.057456  0  -0.077728  -0.069147  0  3.934683  0
C  C103  1  0.15014238  0.56584590  0.83850541  1  -0.058012  0  -0.077785  -0.069135  0  3.934851  0
C  C104  1  0.22055809  0.03875944  0.87469496  1  0.017456  0  -0.087397  -0.125894  0  3.962204  0
C  C105  1  0.27942972  0.96124404  0.37469806  1  0.016885  0  -0.087315  -0.125742  0  3.961926  0
C  C106  1  0.77942126  0.53875966  0.62530299  1  0.017387  0  -0.087493  -0.126003  0  3.962124  0
C  C107  1  0.72056841  0.46123563  0.12530197  1  0.017567  0  -0.087446  -0.126101  0  3.962232  0
C  C108  1  0.77947304  0.96124138  0.12529868  1  0.017246  0  -0.087244  -0.125826  0  3.961583  0
C  C109  1  0.72057597  0.03876112  0.62530842  1  0.017413  0  -0.087485  -0.125937  0  3.962129  0
C  C110  1  0.22058444  0.46124068  0.37469922  1  0.017042  0  -0.087473  -0.125968  0  3.962331  0
C  C111  1  0.27941015  0.53875894  0.87469773  1  0.017149  0  -0.087443  -0.125937  0  3.9618  0
C  C112  1  0.29583512  0.03956597  0.92235702  1  -0.05954  0  -0.003695  0.075448  0  3.989164  0
C  C113  1  0.20414846  0.96043276  0.42236190  1  -0.059546  0  -0.003808  0.075224  0  3.989133  0
C  C114  1  0.70416623  0.53957881  0.57763663  1  -0.059356  0  -0.003769  0.075314  0  3.9894  0
C  C115  1  0.79583784  0.46042025  0.07763922  1  -0.060179  0  -0.00375  0.075455  0  3.989364  0
C  C116  1  0.70417226  0.96043388  0.07763555  1  -0.060302  0  -0.00369  0.075478  0  3.989299  0
C  C117  1  0.79585045  0.03956806  0.57764174  1  -0.059736  0  -0.003661  0.075427  0  3.989052  0
C  C118  1  0.29584116  0.46041864  0.42236058  1  -0.059626  0  -0.003696  0.075394  0  3.989645  0
C  C119  1  0.20416277  0.53957673  0.92236619  1  -0.059681  0  -0.003795  0.075281  0  3.98942  0
C  C120  1  0.50921613  0.06713051  0.93220468  1  -0.104622  0  -0.09228  -0.140229  0  3.981118  0
C  C121  1  0.99075873  0.93286971  0.43221248  1  -0.100607  0  -0.09223  -0.139895  0  3.980505  0
C  C122  1  0.49075341  0.56712721  0.56778723  1  -0.100812  0  -0.09225  -0.140018  0  3.980585  0
C  C123  1  0.00922885  0.43286988  0.06778611  1  -0.100374  0  -0.092328  -0.140057  0  3.980838  0
C  C124  1  0.49077260  0.93287897  0.06779039  1  -0.104632  0  -0.092274  -0.140096  0  3.98074  0
C  C125  1  0.00924696  0.06713496  0.56778901  1  -0.100708  0  -0.092254  -0.140075  0  3.980474  0
C  C126  1  0.50925737  0.43287025  0.43221070  1  -0.100327  0  -0.092244  -0.140024  0  3.980704  0
C  C127  1  0.99077345  0.56713287  0.93221431  1  -0.100847  0  -0.092263  -0.140011  0  3.980554  0
C  C128  1  0.63786303  0.09519383  0.89617476  1  -0.012538  0  -0.08114  -0.083043  0  3.971949  0
C  C129  1  0.86212814  0.90479659  0.39618177  1  -0.008635  0  -0.081123  -0.083171  0  3.971739  0
C  C130  1  0.36211199  0.59519631  0.60382074  1  -0.008992  0  -0.08103  -0.083139  0  3.97149  0
C  C131  1  0.13787770  0.40480288  0.10381608  1  -0.009125  0  -0.081127  -0.083239  0  3.971643  0
C  C132  1  0.36215623  0.90479977  0.10381995  1  -0.004988  0  -0.081084  -0.083121  0  3.971826  0
C  C133  1  0.13787077  0.09520471  0.60382186  1  -0.00891  0  -0.081197  -0.08315  0  3.971808  0
C  C134  1  0.63789370  0.40480836  0.39617576  1  -0.009341  0  -0.081104  -0.083149  0  3.971965  0
C  C135  1  0.86211612  0.59519986  0.89618113  1  -0.009094  0  -0.081052  -0.083063  0  3.971728  0
C  C136  1  0.14810784  0.01671852  0.96157661  1  -0.002072  0  -0.004508  0.023243  0  3.974732  0
C  C137  1  0.35189002  0.98327761  0.46158162  1  -0.001663  0  -0.004564  0.023217  0  3.974714  0
C  C138  1  0.85188440  0.51672013  0.53841982  1  -0.001623  0  -0.004582  0.023226  0  3.974379  0
C  C139  1  0.64811386  0.48327720  0.03841923  1  -0.001417  0  -0.004623  0.023098  0  3.974499  0
C  C140  1  0.85187751  0.98329192  0.03841703  1  -0.001258  0  -0.004473  0.023311  0  3.974875  0
C  C141  1  0.64808854  0.01672947  0.53842522  1  -0.002052  0  -0.004428  0.023403  0  3.974434  0
C  C142  1  0.14808737  0.48327780  0.46157347  1  -0.00191  0  -0.004362  0.023562  0  3.974365  0
C  C143  1  0.35186639  0.51671640  0.96158297  1  -0.001195  0  -0.004493  0.023345  0  3.974929  0
C  C144  1  0.00025755  0.96328444  0.95762090  1  -0.015968  0  -0.003601  0.025766  0  3.978774  0
C  C145  1  0.49973006  0.03672408  0.45762927  1  -0.015309  0  -0.003599  0.025958  0  3.97856  0
C  C146  1  0.99975799  0.46327463  0.54237169  1  -0.015545  0  -0.003556  0.026032  0  3.977942  0
C  C147  1  0.50025900  0.53671994  0.04237256  1  -0.015561  0  -0.00353  0.02597  0  3.978608  0
C  C148  1  0.99975492  0.03672312  0.04237203  1  -0.015366  0  -0.003619  0.025734  0  3.978528  0
C  C149  1  0.50022476  0.96329743  0.54238364  1  -0.014757  0  -0.003629  0.025785  0  3.978556  0
C  C150  1  0.00024261  0.53672042  0.45762409  1  -0.015561  0  -0.003588  0.025809  0  3.978336  0
C  C151  1  0.49968904  0.46327078  0.95762715  1  -0.015524  0  -0.003655  0.025842  0  3.978823  0
C  C152  1  0.85671979  0.94812110  0.99564667  1  -0.055278  0  -0.085242  -0.168194  0  3.961639  0
C  C153  1  0.64326978  0.05188643  0.49565331  1  -0.055882  0  -0.08538  -0.168446  0  3.961865  0
C  C154  1  0.14330494  0.44811363  0.50434610  1  -0.055447  0  -0.085487  -0.168902  0  3.961974  0
C  C155  1  0.35672705  0.55189106  0.00434942  1  -0.056087  0  -0.08534  -0.168486  0  3.96195  0
C  C156  1  0.14328760  0.05189079  0.00434447  1  -0.055434  0  -0.085329  -0.168346  0  3.961792  0
C  C157  1  0.35669691  0.94812449  0.50435461  1  -0.055672  0  -0.08518  -0.168336  0  3.961837  0
C  C158  1  0.85670245  0.55188959  0.49565040  1  -0.055527  0  -0.085372  -0.168533  0  3.961666  0
C  C159  1  0.64323964  0.44810832  0.99565243  1  -0.055909  0  -0.085212  -0.168301  0  3.961882  0
C  C160  1  0.00880300  0.91758920  0.91692549  1  -0.002896  0  -0.000301  0.082217  0  4.008396  0
C  C161  1  0.49119235  0.08242188  0.41694010  1  -0.003014  0  -0.000386  0.082179  0  4.008394  0
C  C162  1  0.99119601  0.41757397  0.58306478  1  -0.003374  0  -0.000314  0.082221  0  4.007886  0
C  C163  1  0.50885563  0.58241660  0.08306476  1  -0.003151  0  -0.000314  0.08235  0  4.008168  0
C  C164  1  0.99118573  0.08241740  0.08306529  1  -0.003579  0  -0.00034  0.08232  0  4.008303  0
C  C165  1  0.50875908  0.91758857  0.58306888  1  -0.00342  0  -0.000487  0.082003  0  4.007952  0
C  C166  1  0.00881307  0.58241867  0.41693386  1  -0.003186  0  -0.000407  0.082264  0  4.007861  0
C  C167  1  0.49111784  0.41757219  0.91693888  1  -0.003322  0  -0.000334  0.082336  0  4.007924  0
C  C168  1  0.82877413  0.90970217  0.88463192  1  -0.09011  0  -0.090155  -0.142411  0  3.96777  0
C  C169  1  0.67119478  0.09029462  0.38463633  1  -0.089698  0  -0.090184  -0.142654  0  3.96744  0
C  C170  1  0.17118625  0.40971115  0.61537308  1  -0.090107  0  -0.090247  -0.14271  0  3.967721  0
C  C171  1  0.32885622  0.59029226  0.11536915  1  -0.089182  0  -0.090391  -0.142944  0  3.967516  0
C  C172  1  0.17119256  0.09029481  0.11536494  1  -0.08964  0  -0.090192  -0.142656  0  3.967569  0
C  C173  1  0.32876004  0.90971053  0.61537622  1  -0.091391  0  -0.090081  -0.142236  0  3.967139  0
C  C174  1  0.82882114  0.59027765  0.38462377  1  -0.090282  0  -0.09018  -0.142735  0  3.967552  0
C  C175  1  0.67113251  0.40970086  0.88463555  1  -0.088961  0  -0.090452  -0.142952  0  3.967406  0
C  C176  1  0.84378202  0.86442170  0.84796761  1  0.009947  0  -0.076179  -0.073739  0  3.949754  0
C  C177  1  0.65620658  0.13557921  0.34797005  1  0.009396  0  -0.076213  -0.073832  0  3.949833  0
C  C178  1  0.15619403  0.36443285  0.65203756  1  0.009494  0  -0.076057  -0.073574  0  3.949601  0
C  C179  1  0.34384571  0.63557798  0.15203418  1  0.008508  0  -0.076107  -0.073658  0  3.949429  0
C  C180  1  0.15622367  0.13558008  0.15202888  1  0.009385  0  -0.076099  -0.07369  0  3.949621  0
C  C181  1  0.34378046  0.86442690  0.65203929  1  0.01004  0  -0.076096  -0.073702  0  3.949765  0
C  C182  1  0.84382861  0.63555979  0.34796143  1  0.009145  0  -0.076125  -0.07359  0  3.949568  0
C  C183  1  0.65614981  0.36442332  0.84796767  1  0.009098  0  -0.076241  -0.073647  0  3.949438  0
C  C184  1  0.03544266  0.82477570  0.84453072  1  -0.008722  0  -0.018819  -0.041923  0  3.970974  0
C  C185  1  0.46454630  0.17522056  0.34452995  1  -0.009492  0  -0.018829  -0.041858  0  3.971184  0
C  C186  1  0.96457086  0.32478016  0.65546778  1  -0.008721  0  -0.018796  -0.041859  0  3.970927  0
C  C187  1  0.53553975  0.67520935  0.15547596  1  -0.007557  0  -0.018902  -0.041771  0  3.971088  0
C  C188  1  0.96456812  0.17522801  0.15547042  1  -0.008226  0  -0.018881  -0.041977  0  3.971234  0
C  C189  1  0.53545430  0.82478603  0.65546940  1  -0.008593  0  -0.018844  -0.041914  0  3.970972  0
C  C190  1  0.03545688  0.67521200  0.34453014  1  -0.007915  0  -0.018897  -0.042057  0  3.971047  0
C  C191  1  0.46448120  0.32478041  0.84452910  1  -0.007828  0  -0.018902  -0.04185  0  3.97106  0
C  C192  1  0.21387036  0.83207599  0.87725232  1  -0.043937  0  -0.079281  -0.075428  0  3.968493  0
C  C193  1  0.28612088  0.16792949  0.37725157  1  -0.044276  0  -0.079336  -0.075633  0  3.968615  0
C  C194  1  0.78611737  0.33208659  0.62275145  1  -0.045223  0  -0.079398  -0.075713  0  3.968792  0
C  C195  1  0.71396890  0.66791102  0.12275264  1  -0.04644  0  -0.079245  -0.075601  0  3.968734  0
C  C196  1  0.78615398  0.16792483  0.12274739  1  -0.044602  0  -0.079413  -0.075687  0  3.968743  0
C  C197  1  0.71386785  0.83208384  0.62274635  1  -0.043801  0  -0.079384  -0.075544  0  3.968822  0
C  C198  1  0.21391884  0.66790942  0.37724362  1  -0.046122  0  -0.079307  -0.075663  0  3.968865  0
C  C199  1  0.28604527  0.33208403  0.87724778  1  -0.046365  0  -0.079243  -0.07557  0  3.968994  0
C  C200  1  0.20199952  0.87872713  0.91247609  1  -0.081237  0  -0.09097  -0.138279  0  3.996682  0
C  C201  1  0.29797540  0.12127370  0.41247519  1  -0.081623  0  -0.090777  -0.137944  0  3.996382  0
C  C202  1  0.79794704  0.37873080  0.58752570  1  -0.08089  0  -0.090768  -0.137986  0  3.996357  0
C  C203  1  0.70211316  0.62125654  0.08752992  1  -0.080484  0  -0.09074  -0.13786  0  3.996224  0
C  C204  1  0.79798752  0.12127898  0.08752147  1  -0.080921  0  -0.090787  -0.137939  0  3.996356  0
C  C205  1  0.70199637  0.87873675  0.58752701  1  -0.08125  0  -0.09086  -0.138156  0  3.996309  0
C  C206  1  0.20205186  0.62126713  0.41247508  1  -0.080603  0  -0.090693  -0.137863  0  3.995989  0
C  C207  1  0.29787897  0.37872792  0.91247585  1  -0.080557  0  -0.090664  -0.137835  0  3.996445  0
C  C208  1  0.05979751  0.77381467  0.80766698  1  1.533629  0  0.223596  0.605611  0  4.148835  0
C  C209  1  0.44024674  0.22618908  0.30767238  1  1.533298  0  0.223736  0.605954  0  4.148945  0
C  C210  1  0.94023533  0.27381219  0.69232606  1  1.533697  0  0.223822  0.606131  0  4.148327  0
C  C211  1  0.55981490  0.72617945  0.19232900  1  1.533558  0  0.223608  0.605731  0  4.149068  0
C  C212  1  0.94020988  0.22618519  0.19233309  1  1.533294  0  0.22366  0.605752  0  4.149009  0
C  C213  1  0.55978948  0.77381415  0.69233125  1  1.533224  0  0.223668  0.605704  0  4.148594  0
C  C214  1  0.05980258  0.72618382  0.30766972  1  1.533794  0  0.223854  0.606174  0  4.148347  0
C  C215  1  0.44017893  0.27381174  0.80766892  1  1.533755  0  0.223721  0.605702  0  4.149098  0
O  O216  1  0.60640211  0.12416374  0.76796079  1  -1.177456  0  -0.31961  -0.570262  0  2.401161  0
O  O217  1  0.89362405  0.87583896  0.26796566  1  -1.177178  0  -0.319496  -0.570253  0  2.40131  0
O  O218  1  0.39359531  0.62416445  0.73203722  1  -1.177496  0  -0.319596  -0.570231  0  2.401382  0
O  O219  1  0.10643571  0.37583834  0.23203539  1  -1.177631  0  -0.31945  -0.570124  0  2.401428  0
O  O220  1  0.39363750  0.87583082  0.23203428  1  -1.177234  0  -0.319428  -0.570163  0  2.4013  0
O  O221  1  0.10642064  0.12416427  0.73203869  1  -1.177519  0  -0.319599  -0.570225  0  2.401242  0
O  O222  1  0.60642734  0.37583877  0.26796035  1  -1.17754  0  -0.319556  -0.570181  0  2.401118  0
O  O223  1  0.89358694  0.62416104  0.76796396  1  -1.177417  0  -0.319522  -0.570128  0  2.401413  0
O  O224  1  0.84861052  0.16579057  0.82240312  1  -1.149417  0  -0.309615  -0.525783  0  2.316292  0
O  O225  1  0.65140136  0.83421434  0.32240625  1  -1.149285  0  -0.309693  -0.525829  0  2.316079  0
O  O226  1  0.15137309  0.66579303  0.67759404  1  -1.149295  0  -0.3096  -0.525735  0  2.316153  0
O  O227  1  0.34864846  0.33420803  0.17759886  1  -1.149358  0  -0.309682  -0.525916  0  2.316441  0
O  O228  1  0.15141213  0.83420833  0.17758517  1  -1.149589  0  -0.30945  -0.525519  0  2.316016  0
O  O229  1  0.34862129  0.16578792  0.67759346  1  -1.149415  0  -0.309542  -0.525679  0  2.316098  0
O  O230  1  0.84863091  0.33421020  0.32240388  1  -1.14938  0  -0.309677  -0.525865  0  2.3162  0
O  O231  1  0.65135893  0.66579375  0.82239978  1  -1.149334  0  -0.309648  -0.525827  0  2.316394  0
O  O232  1  0.20556992  0.72996802  0.81668791  1  -1.185522  0  -0.320121  -0.5578  0  2.38891  0
O  O233  1  0.29444736  0.27002880  0.31668918  1  -1.185345  0  -0.320224  -0.558078  0  2.388608  0
O  O234  1  0.79441409  0.22998148  0.68331064  1  -1.185289  0  -0.320265  -0.558143  0  2.388767  0
O  O235  1  0.70559358  0.77002671  0.18331026  1  -1.185499  0  -0.320146  -0.557947  0  2.389051  0
O  O236  1  0.79443408  0.27003135  0.18331251  1  -1.185434  0  -0.320149  -0.55789  0  2.388901  0
O  O237  1  0.70557190  0.72996770  0.68330839  1  -1.185426  0  -0.320102  -0.557866  0  2.38861  0
O  O238  1  0.20560856  0.77001789  0.31668835  1  -1.185293  0  -0.320235  -0.558085  0  2.388808  0
O  O239  1  0.29441211  0.22996594  0.81669194  1  -1.185462  0  -0.320183  -0.557937  0  2.389049  0
O  O240  1  0.93789952  0.77551134  0.76994776  1  -1.152477  0  -0.310206  -0.551404  0  2.337242  0
O  O241  1  0.56206732  0.22447651  0.26994984  1  -1.15208  0  -0.310164  -0.551414  0  2.337507  0
O  O242  1  0.06205015  0.27551557  0.73005239  1  -1.152464  0  -0.310285  -0.551641  0  2.337102  0
O  O243  1  0.43795878  0.72446598  0.23005156  1  -1.152286  0  -0.310105  -0.551318  0  2.336971  0
O  O244  1  0.06209431  0.22448371  0.23005301  1  -1.15224  0  -0.310193  -0.551406  0  2.337244  0
O  O245  1  0.43791802  0.77551998  0.73005201  1  -1.152112  0  -0.310218  -0.551385  0  2.337317  0
O  O246  1  0.93797758  0.72448236  0.26994696  1  -1.15286  0  -0.310265  -0.551593  0  2.337152  0
O  O247  1  0.56204522  0.27552858  0.76994922  1  -1.152591  0  -0.310108  -0.551175  0  2.336972  0
