# generated using pymatgen
data_CdH24C30Br2(NO)4
_symmetry_space_group_name_H-M   'P 1'
_cell_length_a   8.32376866
_cell_length_b   10.76443055
_cell_length_c   19.95040000
_cell_angle_alpha   94.16453899
_cell_angle_beta   102.36737644
_cell_angle_gamma   94.73585578
_symmetry_Int_Tables_number   1
_chemical_formula_structural   CdH24C30Br2(NO)4
_chemical_formula_sum   'Cd2 H48 C60 Br4 N8 O8'
_cell_volume   1732.62194903
_cell_formula_units_Z   2
loop_
 _symmetry_equiv_pos_site_id
 _symmetry_equiv_pos_as_xyz
  1  'x, y, z'
loop_
 _atom_site_type_symbol
 _atom_site_label
 _atom_site_symmetry_multiplicity
 _atom_site_fract_x
 _atom_site_fract_y
 _atom_site_fract_z
 _atom_site_occupancy
 _atom_site_hle17_bader_spin_density
 _atom_site_hle17_ddec_charge
 _atom_site_hle17_ddec_spin_density
 _atom_site_hle17_ddec_sum_bond_order
 _atom_site_hle17_magmom
 _atom_site_hse06_10hf_bader_spin_density
 _atom_site_hse06_10hf_ddec_charge
 _atom_site_hse06_10hf_ddec_spin_density
 _atom_site_hse06_10hf_ddec_sum_bond_order
 _atom_site_hse06_10hf_magmom
 _atom_site_hse06_bader_spin_density
 _atom_site_hse06_ddec_charge
 _atom_site_hse06_ddec_spin_density
 _atom_site_hse06_ddec_sum_bond_order
 _atom_site_hse06_magmom
 _atom_site_pbe_bader_charge
 _atom_site_pbe_bader_spin_density
 _atom_site_pbe_cm5_charge
 _atom_site_pbe_ddec_charge
 _atom_site_pbe_ddec_spin_density
 _atom_site_pbe_ddec_sum_bond_order
 _atom_site_pbe_magmom
Cd  Cd0  1  0.22642724  0.79599332  0.13905565  1  0  0.932316  0  1.909846  0  0  0.754217  0  2.375077  0  0  0.809555  0  2.328289  0  1.109818  0  0.603385  0.715297  0  2.406857  0
Cd  Cd1  1  0.77357341  0.20400749  0.86094550  1  0  0.932281  0  1.909901  0  0  0.754183  0  2.375134  0  0  0.809524  0  2.328345  0  1.109887  0  0.603383  0.715263  0  2.406914  0
H  H2  1  0.40103786  0.01835149  0.25665988  1  0  0.102803  0  0.977322  0  0  0.107689  0  1.041431  0  0  0.111049  0  1.038021  0  0.184874  0  0.119485  0.10474  0  1.044286  0
H  H3  1  0.59897743  0.98164838  0.74334203  1  0  0.102687  0  0.977376  0  0  0.10759  0  1.041477  0  0  0.110946  0  1.038079  0  0.184615  0  0.119471  0.104641  0  1.044332  0
H  H4  1  0.26284465  0.03534548  0.04433616  1  0  0.082371  0  0.947673  0  0  0.087648  0  1.016638  0  0  0.09062  0  1.01384  0  0.101422  0  0.104232  0.085333  0  1.018928  0
H  H5  1  0.73715736  0.96465626  0.95566364  1  0  0.08236  0  0.947714  0  0  0.08763  0  1.016696  0  0  0.090601  0  1.013899  0  0.101484  0  0.104215  0.085315  0  1.018986  0
H  H6  1  0.52547223  0.23283137  0.27569322  1  0  0.121786  0  0.928813  0  0  0.134733  0  0.98105  0  0  0.13835  0  0.979086  0  0.123198  0  0.118454  0.131576  0  0.983119  0
H  H7  1  0.47453678  0.76716756  0.72430960  1  0  0.121803  0  0.928741  0  0  0.134747  0  0.980982  0  0  0.138364  0  0.979016  0  0.123292  0  0.118479  0.131589  0  0.983049  0
H  H8  1  0.37911009  0.25650425  0.05443672  1  0  0.113959  0  0.966652  0  0  0.121618  0  1.030924  0  0  0.125275  0  1.029086  0  0.129584  0  0.0958  0.118962  0  1.032553  0
H  H9  1  0.62089131  0.74350217  0.94556471  1  0  0.113905  0  0.966672  0  0  0.121565  0  1.030955  0  0  0.125223  0  1.029112  0  0.129606  0  0.095784  0.118883  0  1.032613  0
H  H10  1  0.50785162  0.43421188  0.28048360  1  0  0.126423  0  0.926141  0  0  0.139811  0  0.976564  0  0  0.142882  0  0.976012  0  0.108503  0  0.125889  0.136769  0  0.978357  0
H  H11  1  0.49214461  0.56579268  0.71951779  1  0  0.126489  0  0.926159  0  0  0.139865  0  0.976597  0  0  0.142943  0  0.976046  0  0.108509  0  0.125853  0.136821  0  0.978393  0
H  H12  1  0.60720271  0.39806406  0.07533400  1  0  0.12475  0  0.976131  0  0  0.132786  0  1.039022  0  0  0.136952  0  1.036972  0  0.153362  0  0.100299  0.129484  0  1.041184  0
H  H13  1  0.39279190  0.60192832  0.92466527  1  0  0.124779  0  0.976137  0  0  0.132803  0  1.039044  0  0  0.136969  0  1.036994  0  0.1535  0  0.100302  0.129503  0  1.041203  0
H  H14  1  0.66462277  0.64615558  0.29845013  1  0  0.12107  0  0.906016  0  0  0.1321  0  0.959394  0  0  0.134987  0  0.956258  0  0.189221  0  0.146283  0.129211  0  0.962642  0
H  H15  1  0.33537702  0.35384804  0.70155054  1  0  0.121084  0  0.906022  0  0  0.132113  0  0.959396  0  0  0.135006  0  0.956263  0  0.189088  0  0.146292  0.129225  0  0.962642  0
H  H16  1  0.75748231  0.61326295  0.10174656  1  0  0.107825  0  0.944601  0  0  0.112052  0  1.013941  0  0  0.115747  0  1.009928  0  0.179333  0  0.121099  0.109044  0  1.017225  0
H  H17  1  0.24252535  0.38673505  0.89825159  1  0  0.107807  0  0.94471  0  0  0.112071  0  1.013995  0  0  0.115767  0  1.009982  0  0.179362  0  0.121102  0.109059  0  1.01729  0
H  H18  1  0.89825259  0.75933246  0.17898501  1  0  0.093272  0  0.979766  0  0  0.100209  0  1.054951  0  0  0.102131  0  1.053523  0  0.143696  0  0.10559  0.098511  0  1.056206  0
H  H19  1  0.10174990  0.24066366  0.82101410  1  0  0.093278  0  0.979705  0  0  0.100204  0  1.054892  0  0  0.102126  0  1.053462  0  0.143728  0  0.105597  0.098507  0  1.056145  0
H  H20  1  0.89010614  0.76606940  0.26739994  1  0  0.112839  0  0.898898  0  0  0.126561  0  0.953864  0  0  0.128402  0  0.952501  0  0.115388  0  0.128515  0.124108  0  0.955887  0
H  H21  1  0.10989082  0.23393141  0.73259937  1  0  0.112844  0  0.898885  0  0  0.126547  0  0.953863  0  0  0.128389  0  0.952498  0  0.115363  0  0.128497  0.124092  0  0.955889  0
H  H22  1  0.60356574  0.83070873  0.15419229  1  0  0.08561  0  0.983457  0  0  0.093058  0  1.060093  0  0  0.094935  0  1.058663  0  0.123815  0  0.099049  0.0916  0  1.061041  0
H  H23  1  0.39643490  0.16928271  0.84580247  1  0  0.085653  0  0.983466  0  0  0.093016  0  1.060173  0  0  0.094893  0  1.058745  0  0.123584  0  0.099033  0.091559  0  1.06112  0
H  H24  1  0.63632316  0.87531235  0.24386151  1  0  0.115039  0  0.931829  0  0  0.129517  0  0.986335  0  0  0.131071  0  0.985657  0  0.128779  0  0.123367  0.127229  0  0.987766  0
H  H25  1  0.36366997  0.12467816  0.75613204  1  0  0.115045  0  0.931804  0  0  0.129523  0  0.986279  0  0  0.131077  0  0.985602  0  0.128761  0  0.123379  0.127236  0  0.987708  0
H  H26  1  0.64589159  0.97309428  0.09112456  1  0  0.103215  0  0.938016  0  0  0.109632  0  1.003756  0  0  0.11261  0  1.000748  0  0.154358  0  0.123543  0.10719  0  1.006297  0
H  H27  1  0.35410487  0.02690279  0.90887355  1  0  0.10315  0  0.937929  0  0  0.109616  0  1.003651  0  0  0.112597  0  1.00064  0  0.154454  0  0.123503  0.107175  0  1.00619  0
H  H28  1  0.94349506  0.99268062  0.29144195  1  0  0.14135  0  0.971957  0  0  0.14608  0  1.030242  0  0  0.150372  0  1.026102  0  0.286154  0  0.137782  0.142109  0  1.034005  0
H  H29  1  0.05649661  0.00731738  0.70855577  1  0  0.141319  0  0.971923  0  0  0.146042  0  1.030231  0  0  0.150334  0  1.026091  0  0.286475  0  0.137769  0.142073  0  1.033992  0
H  H30  1  0.77763690  0.18057054  0.07090485  1  0  0.118176  0  0.975059  0  0  0.123297  0  1.044218  0  0  0.127217  0  1.042572  0  0.1347  0  0.098673  0.120254  0  1.045835  0
H  H31  1  0.22235231  0.81942746  0.92909265  1  0  0.118175  0  0.975109  0  0  0.123309  0  1.044246  0  0  0.127227  0  1.042604  0  0.134213  0  0.098695  0.120268  0  1.045862  0
H  H32  1  0.09309395  0.18551651  0.27708258  1  0  0.142086  0  0.942178  0  0  0.142163  0  1.011943  0  0  0.14851  0  1.006546  0  0.175552  0  0.119105  0.136923  0  1.0167  0
H  H33  1  0.90689674  0.81448336  0.72291613  1  0  0.142078  0  0.942116  0  0  0.142143  0  1.011893  0  0  0.14849  0  1.006498  0  0.1759  0  0.119113  0.136903  0  1.01665  0
H  H34  1  0.00921890  0.30293066  0.05563613  1  0  0.112092  0  0.999451  0  0  0.117127  0  1.0696  0  0  0.121182  0  1.067459  0  0.135967  0  0.089927  0.114187  0  1.07129  0
H  H35  1  0.99078200  0.69707202  0.94436310  1  0  0.11207  0  0.999481  0  0  0.117099  0  1.069635  0  0  0.121154  0  1.067495  0  0.135961  0  0.08991  0.114157  0  1.071328  0
H  H36  1  0.04721382  0.39565802  0.27410562  1  0  0.119822  0  0.928991  0  0  0.134676  0  0.977594  0  0  0.137964  0  0.976683  0  0.110618  0  0.11821  0.131757  0  0.978949  0
H  H37  1  0.95277341  0.60433437  0.72589399  1  0  0.119787  0  0.928988  0  0  0.134645  0  0.97759  0  0  0.137932  0  0.976681  0  0.110742  0  0.118166  0.131727  0  0.978945  0
H  H38  1  0.12059286  0.52358013  0.05027092  1  0  0.074829  0  0.952226  0  0  0.080439  0  1.021803  0  0  0.083206  0  1.019366  0  0.118921  0  0.105305  0.078442  0  1.023514  0
H  H39  1  0.87941308  0.47642349  0.94973281  1  0  0.074894  0  0.952092  0  0  0.080461  0  1.021723  0  0  0.083228  0  1.019286  0  0.118791  0  0.105298  0.078466  0  1.023433  0
H  H40  1  0.14945812  0.61251586  0.25805289  1  0  0.082663  0  0.96288  0  0  0.091293  0  1.025517  0  0  0.093233  0  1.024243  0  0.08456  0  0.118003  0.089593  0  1.026675  0
H  H41  1  0.85053674  0.38747839  0.74194948  1  0  0.082764  0  0.962743  0  0  0.091344  0  1.025444  0  0  0.093284  0  1.02417  0  0.084537  0  0.118026  0.089645  0  1.026599  0
H  H42  1  0.30801413  0.97225263  0.50627221  1  0  0.105168  0  0.926505  0  0  0.118499  0  0.977744  0  0  0.121637  0  0.976996  0  0.098467  0  0.108668  0.116197  0  0.978531  0
H  H43  1  0.69198493  0.02775473  0.49372855  1  0  0.105186  0  0.926584  0  0  0.118548  0  0.977782  0  0  0.121658  0  0.97707  0  0.098443  0  0.108668  0.116247  0  0.978569  0
H  H44  1  0.44766611  0.79691548  0.55867434  1  0  0.097367  0  0.952334  0  0  0.105783  0  1.013601  0  0  0.109974  0  1.010375  0  0.064786  0  0.096714  0.102782  0  1.015875  0
H  H45  1  0.55233714  0.20309563  0.44132744  1  0  0.097376  0  0.952314  0  0  0.105788  0  1.013583  0  0  0.109989  0  1.010347  0  0.064824  0  0.096707  0.102787  0  1.015857  0
H  H46  1  0.51052099  0.61957391  0.48288860  1  0  0.080104  0  0.956175  0  0  0.091301  0  1.013975  0  0  0.09455  0  1.012316  0  0.058156  0  0.093002  0.089044  0  1.015157  0
H  H47  1  0.48948324  0.38043532  0.51711419  1  0  0.080104  0  0.956082  0  0  0.091345  0  1.013848  0  0  0.094599  0  1.012182  0  0.057858  0  0.093036  0.089079  0  1.015038  0
H  H48  1  0.44546203  0.62841637  0.35547695  1  0  0.067245  0  0.979545  0  0  0.07775  0  1.045949  0  0  0.080689  0  1.044135  0  0.019936  0  0.085367  0.076151  0  1.046843  0
H  H49  1  0.55454182  0.37159006  0.64452720  1  0  0.067308  0  0.979536  0  0  0.077763  0  1.045988  0  0  0.080691  0  1.044177  0  0.01995  0  0.085397  0.076168  0  1.046876  0
C  C50  1  0.40271672  0.07075369  0.21211275  1  0  0.144277  0  3.665636  0  0  0.11271  0  3.920741  0  0  0.120611  0  3.936891  0  0.523164  0  0.048751  0.106852  0  3.910755  0
C  C51  1  0.59729205  0.92924337  0.78789097  1  0  0.144397  0  3.6659  0  0  0.112794  0  3.921029  0  0  0.120695  0  3.937181  0  0.523527  0  0.048746  0.106936  0  3.91104  0
C  C52  1  0.32552521  0.08233829  0.09454572  1  0  0.12096  0  3.711934  0  0  0.091955  0  3.966238  0  0  0.098249  0  3.984883  0  0.540852  0  0.040019  0.087878  0  3.954336  0
C  C53  1  0.67447951  0.91766533  0.90545439  1  0  0.120898  0  3.712066  0  0  0.091868  0  3.966391  0  0  0.098165  0  3.985037  0  0.540782  0  0.040038  0.087794  0  3.954481  0
C  C54  1  0.47027506  0.19502648  0.22286685  1  0  -0.138466  0  3.665752  0  0  -0.159638  0  3.914605  0  0  -0.165603  0  3.933428  0  -0.076033  0  -0.07468  -0.155013  0  3.90182  0
C  C55  1  0.52973395  0.80497246  0.77713698  1  0  -0.138473  0  3.665906  0  0  -0.159659  0  3.914721  0  0  -0.165624  0  3.933543  0  -0.075976  0  -0.074704  -0.155031  0  3.901935  0
C  C56  1  0.39073630  0.20702301  0.10072985  1  0  -0.14758  0  3.693419  0  0  -0.166164  0  3.940285  0  0  -0.173166  0  3.962091  0  -0.060967  0  -0.084856  -0.16274  0  3.926533  0
C  C57  1  0.60926177  0.79297686  0.89927103  1  0  -0.147441  0  3.693305  0  0  -0.166058  0  3.940134  0  0  -0.173056  0  3.961936  0  -0.06092  0  -0.084843  -0.162613  0  3.926403  0
C  C58  1  0.46766091  0.26567157  0.16638950  1  0  0.065674  0  3.773402  0  0  0.078601  0  4.007813  0  0  0.079877  0  4.031188  0  -0.091066  0  0.004173  0.078235  0  3.991371  0
C  C59  1  0.53234158  0.73432456  0.83361212  1  0  0.065574  0  3.773619  0  0  0.078591  0  4.007864  0  0  0.079865  0  4.031241  0  -0.091188  0  0.004192  0.078223  0  3.991422  0
C  C60  1  0.54711796  0.39533971  0.17673861  1  0  0.130104  0  3.707924  0  0  0.13742  0  3.942927  0  0  0.145535  0  3.961484  0  -0.045217  0  0.031065  0.131436  0  3.930744  0
C  C61  1  0.45288553  0.60466391  0.82326440  1  0  0.130151  0  3.707915  0  0  0.137515  0  3.942803  0  0  0.145631  0  3.961355  0  -0.045348  0  0.031107  0.131531  0  3.930624  0
C  C62  1  0.56324784  0.46838055  0.23972400  1  0  -0.140632  0  3.675721  0  0  -0.162842  0  3.930903  0  0  -0.171332  0  3.949669  0  0.058479  0  -0.064393  -0.158224  0  3.920797  0
C  C63  1  0.43675257  0.53161839  0.76027655  1  0  -0.140789  0  3.675886  0  0  -0.163032  0  3.931071  0  0  -0.171531  0  3.949844  0  0.05849  0  -0.064423  -0.158414  0  3.920966  0
C  C64  1  0.61509939  0.44899081  0.12554846  1  0  -0.13658  0  3.659535  0  0  -0.155805  0  3.908324  0  0  -0.164777  0  3.927238  0  0.022962  0  -0.06929  -0.150602  0  3.897143  0
C  C65  1  0.38489818  0.55100532  0.87445021  1  0  -0.136591  0  3.659665  0  0  -0.155843  0  3.908454  0  0  -0.164815  0  3.927369  0  0.022979  0  -0.069312  -0.150639  0  3.897272  0
C  C66  1  0.64918574  0.58587147  0.25091694  1  0  0.127766  0  3.580967  0  0  0.08326  0  3.835321  0  0  0.093991  0  3.847719  0  0.415306  0  0.07909  0.07517  0  3.829266  0
C  C67  1  0.35081664  0.41413309  0.74908401  1  0  0.12773  0  3.581243  0  0  0.083232  0  3.835617  0  0  0.093952  0  3.848026  0  0.415446  0  0.079057  0.075144  0  3.829559  0
C  C68  1  0.69944237  0.56734397  0.13882159  1  0  0.114856  0  3.584977  0  0  0.071757  0  3.837808  0  0  0.081527  0  3.852002  0  0.37628  0  0.069228  0.065051  0  3.829256  0
C  C69  1  0.30055779  0.43265309  0.86117836  1  0  0.114905  0  3.585097  0  0  0.071796  0  3.837917  0  0  0.081565  0  3.852109  0  0.376194  0  0.069259  0.065087  0  3.829364  0
C  C70  1  0.81505862  0.75644895  0.21467700  1  0  -0.035111  0  3.56189  0  0  -0.098954  0  3.818802  0  0  -0.0958  0  3.828197  0  0.224746  0  -0.048412  -0.100888  0  3.813378  0
C  C71  1  0.18494302  0.24354998  0.78532265  1  0  -0.035125  0  3.56184  0  0  -0.098908  0  3.818665  0  0  -0.095755  0  3.828058  0  0.224769  0  -0.048404  -0.100845  0  3.813245  0
C  C72  1  0.69851034  0.85920120  0.20134665  1  0  -0.04511  0  3.577712  0  0  -0.107616  0  3.830386  0  0  -0.105416  0  3.841523  0  0.248602  0  -0.055329  -0.108673  0  3.82335  0
C  C73  1  0.30148464  0.14079400  0.79864976  1  0  -0.045256  0  3.577962  0  0  -0.107631  0  3.830487  0  0  -0.105431  0  3.841623  0  0.248931  0  -0.055328  -0.108687  0  3.823451  0
C  C74  1  0.74440559  0.02668371  0.12967455  1  0  0.10259  0  3.62387  0  0  0.059192  0  3.879101  0  0  0.068042  0  3.894889  0  0.394937  0  0.060947  0.053185  0  3.868878  0
C  C75  1  0.25558829  0.97331241  0.87032129  1  0  0.102511  0  3.623855  0  0  0.059064  0  3.879097  0  0  0.067906  0  3.894889  0  0.394664  0  0.060928  0.053064  0  3.868868  0
C  C76  1  0.91006331  0.03426604  0.24232383  1  0  0.124425  0  3.5239  0  0  0.087373  0  3.761975  0  0  0.097424  0  3.774213  0  0.394504  0  0.080147  0.079928  0  3.756396  0
C  C77  1  0.08993586  0.96573290  0.75767560  1  0  0.124441  0  3.523942  0  0  0.087398  0  3.762027  0  0  0.097448  0  3.774266  0  0.394412  0  0.080223  0.079957  0  3.756446  0
C  C78  1  0.81986198  0.14073314  0.11971671  1  0  -0.139833  0  3.682083  0  0  -0.158621  0  3.934751  0  0  -0.167548  0  3.955072  0  0.039277  0  -0.073981  -0.152504  0  3.921334  0
C  C79  1  0.18012796  0.85926111  0.88028021  1  0  -0.139979  0  3.681977  0  0  -0.158739  0  3.934733  0  0  -0.167662  0  3.955054  0  0.040225  0  -0.074029  -0.152624  0  3.921313  0
C  C80  1  0.99166477  0.14733807  0.23420862  1  0  -0.123542  0  3.630763  0  0  -0.143252  0  3.882232  0  0  -0.151447  0  3.899222  0  0.066772  0  -0.06078  -0.13956  0  3.873858  0
C  C81  1  0.00833292  0.85265900  0.76579111  1  0  -0.123661  0  3.630747  0  0  -0.143314  0  3.882272  0  0  -0.151513  0  3.899267  0  0.06631  0  -0.06082  -0.139622  0  3.873898  0
C  C82  1  0.94427121  0.20441193  0.17296142  1  0  0.1126  0  3.721386  0  0  0.11845  0  3.955958  0  0  0.124738  0  3.976265  0  -0.101748  0  0.023965  0.114257  0  3.942052  0
C  C83  1  0.05572403  0.79558513  0.82703458  1  0  0.112815  0  3.721199  0  0  0.118519  0  3.955953  0  0  0.124812  0  3.976263  0  -0.101624  0  0.024005  0.114328  0  3.942046  0
C  C84  1  0.01663664  0.33089885  0.16581275  1  0  0.08863  0  3.768112  0  0  0.104098  0  3.996572  0  0  0.106644  0  4.018706  0  -0.089622  0  0.009468  0.102651  0  3.980946  0
C  C85  1  0.98335860  0.66909822  0.83418726  1  0  0.08863  0  3.767914  0  0  0.104162  0  3.996368  0  0  0.106693  0  4.018522  0  -0.090396  0  0.0095  0.102716  0  3.980741  0
C  C86  1  0.03704081  0.36844628  0.10202695  1  0  -0.150091  0  3.683773  0  0  -0.167652  0  3.926601  0  0  -0.174763  0  3.947637  0  -0.010367  0  -0.083272  -0.163674  0  3.912976  0
C  C87  1  0.96295480  0.63155359  0.89797320  1  0  -0.150183  0  3.683724  0  0  -0.167729  0  3.92653  0  0  -0.174837  0  3.947569  0  -0.009794  0  -0.083303  -0.16375  0  3.912906  0
C  C88  1  0.06137943  0.41960708  0.22337258  1  0  -0.163944  0  3.709489  0  0  -0.18341  0  3.955275  0  0  -0.190172  0  3.975683  0  -0.013205  0  -0.08142  -0.178149  0  3.940902  0
C  C89  1  0.93861051  0.58038718  0.77662684  1  0  -0.163887  0  3.709105  0  0  -0.183342  0  3.954875  0  0  -0.190099  0  3.975286  0  -0.013122  0  -0.081391  -0.178083  0  3.940504  0
C  C90  1  0.09926383  0.49131383  0.09857731  1  0  0.121675  0  3.7237  0  0  0.093872  0  3.975644  0  0  0.099827  0  3.994461  0  0.455377  0  0.04147  0.090053  0  3.963192  0
C  C91  1  0.90073904  0.50868511  0.90142496  1  0  0.121777  0  3.723508  0  0  0.09399  0  3.975461  0  0  0.099946  0  3.994274  0  0.455341  0  0.041548  0.09017  0  3.963008  0
C  C92  1  0.11887764  0.54090648  0.21465442  1  0  0.123846  0  3.723893  0  0  0.092695  0  3.982211  0  0  0.099167  0  4.001041  0  0.489253  0  0.039837  0.088212  0  3.969572  0
C  C93  1  0.88111980  0.45908871  0.78534873  1  0  0.123728  0  3.723736  0  0  0.092573  0  3.982122  0  0  0.099045  0  4.00095  0  0.489254  0  0.039789  0.088092  0  3.969482  0
C  C94  1  0.34565862  0.80658648  0.35960982  1  0  -0.104516  0  3.77274  0  0  -0.090688  0  4.010368  0  0  -0.098273  0  4.032115  0  -0.077673  0  -0.031988  -0.084884  0  3.994881  0
C  C95  1  0.65434314  0.19341340  0.64038938  1  0  -0.104376  0  3.772684  0  0  -0.090673  0  4.010418  0  0  -0.098262  0  4.032167  0  -0.077474  0  -0.031968  -0.084871  0  3.994933  0
C  C96  1  0.30476702  0.90430287  0.40197170  1  0  -0.02784  0  3.672749  0  0  -0.01462  0  3.906333  0  0  -0.015519  0  3.924687  0  0.004397  0  -0.004314  -0.014567  0  3.894298  0
C  C97  1  0.69523819  0.09570449  0.59802960  1  0  -0.02776  0  3.672827  0  0  -0.014485  0  3.906399  0  0  -0.015379  0  3.924746  0  0.004197  0  -0.004254  -0.01443  0  3.894358  0
C  C98  1  0.33910289  0.89672055  0.47338862  1  0  -0.077677  0  3.72074  0  0  -0.098433  0  3.967791  0  0  -0.101562  0  3.988422  0  -0.051245  0  -0.081185  -0.0966  0  3.954606  0
C  C99  1  0.66089838  0.10328494  0.52661126  1  0  -0.077815  0  3.720724  0  0  -0.098604  0  3.967776  0  0  -0.101711  0  3.988408  0  -0.051011  0  -0.081212  -0.096774  0  3.954594  0
C  C100  1  0.41445524  0.79648576  0.50268781  1  0  -0.047942  0  3.756272  0  0  -0.06324  0  4.006527  0  0  -0.063189  0  4.026386  0  -0.011865  0  -0.086769  -0.063312  0  3.993133  0
C  C101  1  0.58554530  0.20352348  0.49731415  1  0  -0.047785  0  3.756179  0  0  -0.063073  0  4.006469  0  0  -0.063028  0  4.026322  0  -0.012006  0  -0.086689  -0.063144  0  3.993073  0
C  C102  1  0.45285746  0.69890792  0.46043271  1  0  -0.096079  0  3.831497  0  0  -0.107429  0  4.0805  0  0  -0.110822  0  4.102875  0  -0.056648  0  -0.106522  -0.104706  0  4.064449  0
C  C103  1  0.54714160  0.30109944  0.53957055  1  0  -0.096319  0  3.831625  0  0  -0.107728  0  4.080652  0  0  -0.111126  0  4.103024  0  -0.056393  0  -0.106692  -0.104995  0  4.064604  0
C  C104  1  0.41844153  0.70451017  0.38931752  1  0  -0.103572  0  3.823675  0  0  -0.125921  0  4.075622  0  0  -0.126463  0  4.097652  0  -0.039259  0  -0.107432  -0.124879  0  4.058917  0
C  C105  1  0.58155716  0.29549438  0.61068360  1  0  -0.103602  0  3.823816  0  0  -0.125852  0  4.075809  0  0  -0.12638  0  4.097831  0  -0.039435  0  -0.107442  -0.124814  0  4.059103  0
C  C106  1  0.30987802  0.80642170  0.28317839  1  0  0.626558  0  3.918785  0  0  0.577748  0  4.213857  0  0  0.612947  0  4.205722  0  1.508645  0  0.186412  0.552995  0  4.218541  0
C  C107  1  0.69012522  0.19358004  0.71682302  1  0  0.626535  0  3.918626  0  0  0.577786  0  4.213672  0  0  0.612989  0  4.205534  0  1.508832  0  0.186386  0.553035  0  4.218358  0
C  C108  1  0.23090937  0.01907424  0.37325923  1  0  0.648915  0  3.981177  0  0  0.5993  0  4.294485  0  0  0.632979  0  4.286101  0  1.613848  0  0.181326  0.57562  0  4.297163  0
C  C109  1  0.76910039  0.98093031  0.62674087  1  0  0.648959  0  3.981034  0  0  0.599368  0  4.294285  0  0  0.633046  0  4.285901  0  1.614019  0  0.18135  0.575688  0  4.296966  0
Br  Br110  1  0.39883857  0.72563002  0.04412655  1  0  -0.597404  0  0.877559  0  0  -0.54263  0  1.149212  0  0  -0.561285  0  1.128385  0  -0.645581  0  -0.305468  -0.527204  0  1.163843  0
Br  Br111  1  0.60115653  0.27435675  0.95587355  1  0  -0.597436  0  0.877615  0  0  -0.542637  0  1.149262  0  0  -0.561294  0  1.128436  0  -0.645604  0  -0.30546  -0.527213  0  1.163898  0
Br  Br112  1  0.93516083  0.81565268  0.05487352  1  0  -0.5831  0  0.918484  0  0  -0.52849  0  1.20175  0  0  -0.547785  0  1.181349  0  -0.630734  0  -0.297048  -0.512874  0  1.21581  0
Br  Br113  1  0.06484080  0.18434625  0.94512714  1  0  -0.583105  0  0.918461  0  0  -0.528521  0  1.20175  0  0  -0.547818  0  1.181351  0  -0.630736  0  -0.297054  -0.512906  0  1.215812  0
N  N114  1  0.33355596  0.01422751  0.14900043  1  0  -0.319843  0  3.232734  0  0  -0.246858  0  3.497569  0  0  -0.266458  0  3.517875  0  -1.229666  0  -0.322364  -0.233683  0  3.484222  0
N  N115  1  0.66644678  0.98577049  0.85100029  1  0  -0.319813  0  3.23301  0  0  -0.246801  0  3.497832  0  0  -0.266397  0  3.518129  0  -1.22987  0  -0.322365  -0.233628  0  3.484487  0
N  N116  1  0.71905826  0.63240647  0.20138283  1  0  -0.002239  0  3.522617  0  0  0.094723  0  3.731006  0  0  0.080808  0  3.756543  0  -1.211793  0  -0.206064  0.102805  0  3.714547  0
N  N117  1  0.28094485  0.36759434  0.79861653  1  0  -0.002202  0  3.522579  0  0  0.094732  0  3.730975  0  0  0.080819  0  3.756511  0  -1.211808  0  -0.206031  0.102815  0  3.714515  0
N  N118  1  0.78766858  0.97709281  0.19085402  1  0  -0.004331  0  3.551803  0  0  0.090094  0  3.761187  0  0  0.076055  0  3.787417  0  -1.240312  0  -0.210587  0.098396  0  3.744008  0
N  N119  1  0.21232751  0.02290145  0.80914345  1  0  -0.004025  0  3.552132  0  0  0.09037  0  3.761507  0  0  0.076342  0  3.78773  0  -1.240666  0  -0.210577  0.098667  0  3.744329  0
N  N120  1  0.13726195  0.57702714  0.15342163  1  0  -0.317565  0  3.248746  0  0  -0.248309  0  3.512096  0  0  -0.26671  0  3.532822  0  -1.217001  0  -0.323137  -0.235818  0  3.498206  0
N  N121  1  0.86274104  0.42297273  0.84658068  1  0  -0.317614  0  3.248915  0  0  -0.248326  0  3.512244  0  0  -0.266729  0  3.53297  0  -1.217103  0  -0.323143  -0.235834  0  3.498351  0
O  O122  1  0.41260775  0.76352292  0.24991787  1  0  -0.660316  0  1.981016  0  0  -0.600959  0  2.230352  0  0  -0.630213  0  2.22282  0  -1.178478  0  -0.33861  -0.578283  0  2.234137  0
O  O123  1  0.58739032  0.23647696  0.75008401  1  0  -0.660304  0  1.980912  0  0  -0.60101  0  2.230292  0  0  -0.630268  0  2.222761  0  -1.178563  0  -0.33861  -0.578334  0  2.234077  0
O  O124  1  0.17502226  0.84458142  0.25139318  1  0  -0.631263  0  1.979522  0  0  -0.568187  0  2.228011  0  0  -0.597861  0  2.220912  0  -1.161845  0  -0.328292  -0.546132  0  2.231755  0
O  O125  1  0.82497839  0.15541939  0.74860796  1  0  -0.631263  0  1.979553  0  0  -0.568181  0  2.227995  0  0  -0.597854  0  2.220893  0  -1.162008  0  -0.328266  -0.546128  0  2.231741  0
O  O126  1  0.32221034  0.09226019  0.34649738  1  0  -0.683427  0  1.870471  0  0  -0.64251  0  2.097099  0  0  -0.670003  0  2.088008  0  -1.184518  0  -0.364195  -0.618101  0  2.10008  0
O  O127  1  0.67779081  0.90774436  0.65350144  1  0  -0.683495  0  1.870215  0  0  -0.642609  0  2.096841  0  0  -0.670101  0  2.087746  0  -1.184589  0  -0.364248  -0.618202  0  2.099826  0
O  O128  1  0.08488265  0.03147989  0.37952901  1  0  -0.659037  0  1.860983  0  0  -0.621029  0  2.067686  0  0  -0.645326  0  2.057703  0  -1.185673  0  -0.371253  -0.598116  0  2.070996  0
O  O129  1  0.91512096  0.96852466  0.62046854  1  0  -0.658992  0  1.861039  0  0  -0.620993  0  2.067731  0  0  -0.645285  0  2.05775  0  -1.185717  0  -0.371234  -0.598086  0  2.071041  0
