# generated using pymatgen
data_LiH14C14S2NO3
_symmetry_space_group_name_H-M   'P 1'
_cell_length_a   7.11594357
_cell_length_b   10.51365352
_cell_length_c   12.10961401
_cell_angle_alpha   103.96796506
_cell_angle_beta   97.30200333
_cell_angle_gamma   98.48978757
_symmetry_Int_Tables_number   1
_chemical_formula_structural   LiH14C14S2NO3
_chemical_formula_sum   'Li2 H28 C28 S4 N2 O6'
_cell_volume   856.96266831
_cell_formula_units_Z   2
loop_
 _symmetry_equiv_pos_site_id
 _symmetry_equiv_pos_as_xyz
  1  'x, y, z'
loop_
 _atom_site_type_symbol
 _atom_site_label
 _atom_site_symmetry_multiplicity
 _atom_site_fract_x
 _atom_site_fract_y
 _atom_site_fract_z
 _atom_site_occupancy
 _atom_site_hle17_bader_spin_density
 _atom_site_hle17_ddec_charge
 _atom_site_hle17_ddec_spin_density
 _atom_site_hle17_ddec_sum_bond_order
 _atom_site_hle17_magmom
 _atom_site_hse06_10hf_bader_spin_density
 _atom_site_hse06_10hf_ddec_charge
 _atom_site_hse06_10hf_ddec_spin_density
 _atom_site_hse06_10hf_ddec_sum_bond_order
 _atom_site_hse06_10hf_magmom
 _atom_site_hse06_bader_spin_density
 _atom_site_hse06_ddec_charge
 _atom_site_hse06_ddec_spin_density
 _atom_site_hse06_ddec_sum_bond_order
 _atom_site_hse06_magmom
 _atom_site_pbe_bader_spin_density
 _atom_site_pbe_cm5_charge
 _atom_site_pbe_ddec_charge
 _atom_site_pbe_ddec_spin_density
 _atom_site_pbe_ddec_sum_bond_order
 _atom_site_pbe_magmom
Li  Li0  1  0.80016617  0.55215946  0.06478398  1  0  0.832771  0  0.429817  0  0  0.788374  0  0.544329  0  0  0.796256  0  0.530803  0  0  0.45838  0.782722  0  0.553974  0
Li  Li1  1  0.19983394  0.44783918  0.93521383  1  0  0.832767  0  0.429834  0  0  0.788378  0  0.544335  0  0  0.796261  0  0.530809  0  0  0.458383  0.782725  0  0.553973  0
H  H2  1  0.29312229  0.92210622  0.92701980  1  0  0.092233  0  0.956972  0  0  0.104096  0  1.016397  0  0  0.106536  0  1.016263  0  0  0.102282  0.102204  0  1.01674  0
H  H3  1  0.70688211  0.07789244  0.07297910  1  0  0.092282  0  0.956993  0  0  0.104144  0  1.016408  0  0  0.106584  0  1.016274  0  0  0.102319  0.102241  0  1.016762  0
H  H4  1  0.32485132  0.16995137  0.97011197  1  0  0.107397  0  0.943636  0  0  0.116715  0  1.002377  0  0  0.120182  0  1.000782  0  0  0.109343  0.11403  0  1.003872  0
H  H5  1  0.67515069  0.83004927  0.02988555  1  0  0.107365  0  0.943596  0  0  0.11668  0  1.002346  0  0  0.120151  0  1.000743  0  0  0.109326  0.113993  0  1.003839  0
H  H6  1  0.25537349  0.29730791  0.15633479  1  0  0.09774  0  0.978011  0  0  0.10909  0  1.037645  0  0  0.111963  0  1.036228  0  0  0.101778  0.106843  0  1.039166  0
H  H7  1  0.74461760  0.70268871  0.84366206  1  0  0.09771  0  0.977973  0  0  0.109077  0  1.037592  0  0  0.11195  0  1.036174  0  0  0.101796  0.106824  0  1.039124  0
H  H8  1  0.14533104  0.17742298  0.29877709  1  0  0.079214  0  0.959028  0  0  0.094159  0  1.012832  0  0  0.096857  0  1.011726  0  0  0.098981  0.092081  0  1.013834  0
H  H9  1  0.85466773  0.82257566  0.70122230  1  0  0.079207  0  0.959125  0  0  0.094162  0  1.012914  0  0  0.096863  0  1.01181  0  0  0.098986  0.092081  0  1.013915  0
H  H10  1  0.12129292  0.93061680  0.25663408  1  0  0.108899  0  0.925084  0  0  0.12265  0  0.975997  0  0  0.125824  0  0.974403  0  0  0.112801  0.12011  0  0.977603  0
H  H11  1  0.87870838  0.06938085  0.74336442  1  0  0.108855  0  0.925115  0  0  0.122606  0  0.976024  0  0  0.125778  0  0.974433  0  0  0.11281  0.120069  0  0.977628  0
H  H12  1  0.68207957  0.66942697  0.39334823  1  0  0.104361  0  0.947391  0  0  0.115131  0  1.005526  0  0  0.118626  0  1.002971  0  0  0.108159  0.11263  0  1.007372  0
H  H13  1  0.31791948  0.33056270  0.60664431  1  0  0.104341  0  0.947426  0  0  0.115087  0  1.005583  0  0  0.11858  0  1.00303  0  0  0.1081  0.112582  0  1.007431  0
H  H14  1  0.60150786  0.69341464  0.59130639  1  0  0.089684  0  0.968457  0  0  0.101031  0  1.029148  0  0  0.103432  0  1.029118  0  0  0.09935  0.099289  0  1.029339  0
H  H15  1  0.39849853  0.30658104  0.40869034  1  0  0.089681  0  0.968486  0  0  0.101029  0  1.029183  0  0  0.103425  0  1.029159  0  0  0.09937  0.099293  0  1.029368  0
H  H16  1  0.99776481  0.60048315  0.44837339  1  0  0.090491  0  0.96227  0  0  0.103637  0  1.020982  0  0  0.105964  0  1.020956  0  0  0.101054  0.101991  0  1.02108  0
H  H17  1  0.00224011  0.39952151  0.55163508  1  0  0.090558  0  0.962265  0  0  0.103702  0  1.020955  0  0  0.106029  0  1.020929  0  0  0.101084  0.102055  0  1.021056  0
H  H18  1  0.07652431  0.57228945  0.25104438  1  0  0.10625  0  0.964471  0  0  0.114841  0  1.029229  0  0  0.1184  0  1.026837  0  0  0.115809  0.112197  0  1.031066  0
H  H19  1  0.92346737  0.42770818  0.74896015  1  0  0.106241  0  0.964367  0  0  0.114843  0  1.029127  0  0  0.118369  0  1.026776  0  0  0.115802  0.112199  0  1.030961  0
H  H20  1  0.05968251  0.66099718  0.87041726  1  0  0.180309  0  1.000353  0  0  0.193421  0  1.060221  0  0  0.196086  0  1.060888  0  0  0.096808  0.191709  0  1.059413  0
H  H21  1  0.94031405  0.33900345  0.12958490  1  0  0.180296  0  1.000303  0  0  0.193407  0  1.060176  0  0  0.196072  0  1.060843  0  0  0.096778  0.19169  0  1.05938  0
H  H22  1  0.32578253  0.68038528  0.89729657  1  0  0.183281  0  0.997183  0  0  0.194729  0  1.058091  0  0  0.19768  0  1.058491  0  0  0.098238  0.192394  0  1.058349  0
H  H23  1  0.67421396  0.31961535  0.10270393  1  0  0.183259  0  0.99719  0  0  0.194705  0  1.058104  0  0  0.197656  0  1.058503  0  0  0.098221  0.192371  0  1.058359  0
H  H24  1  0.29141639  0.59091965  0.69229924  1  0  0.118749  0  0.943784  0  0  0.141407  0  1.003521  0  0  0.142416  0  1.004072  0  0  0.09711  0.140632  0  1.003212  0
H  H25  1  0.70859403  0.40909100  0.30770421  1  0  0.118811  0  0.943752  0  0  0.141514  0  1.003409  0  0  0.14252  0  1.003969  0  0  0.09717  0.140743  0  1.003099  0
H  H26  1  0.32623640  0.76512160  0.71111154  1  0  0.115841  0  0.935524  0  0  0.13961  0  0.990493  0  0  0.141112  0  0.990505  0  0  0.09589  0.13855  0  0.990481  0
H  H27  1  0.67377197  0.23488704  0.28888888  1  0  0.115881  0  0.935517  0  0  0.139624  0  0.99052  0  0  0.141153  0  0.990498  0  0  0.095877  0.138568  0  0.990504  0
H  H28  1  0.09328198  0.66510655  0.65403211  1  0  0.101778  0  0.958402  0  0  0.122275  0  1.021595  0  0  0.123644  0  1.021457  0  0  0.08831  0.121288  0  1.02168  0
H  H29  1  0.90672934  0.33490211  0.34597098  1  0  0.101822  0  0.958519  0  0  0.122324  0  1.021685  0  0  0.123691  0  1.021551  0  0  0.088333  0.121339  0  1.021773  0
C  C30  1  0.18937532  0.65470007  0.92631377  1  0  -0.885613  0  3.537728  0  0  -0.912663  0  3.814616  0  0  -0.928699  0  3.818091  0  0  -0.335522  -0.901399  0  3.812073  0
C  C31  1  0.81062240  0.34529957  0.07368824  1  0  -0.885584  0  3.537542  0  0  -0.912644  0  3.814442  0  0  -0.928681  0  3.817918  0  0  -0.335503  -0.901375  0  3.8119  0
C  C32  1  0.21019097  0.91507924  0.09074310  1  0  -0.090227  0  3.716345  0  0  -0.060841  0  3.956581  0  0  -0.066673  0  3.980743  0  0  -0.017594  -0.057088  0  3.940467  0
C  C33  1  0.78981142  0.08491742  0.90925360  1  0  -0.090346  0  3.716458  0  0  -0.061004  0  3.956738  0  0  -0.066838  0  3.980899  0  0  -0.017695  -0.05726  0  3.94064  0
C  C34  1  0.26419217  0.97963593  0.00880596  1  0  -0.067399  0  3.753639  0  0  -0.09014  0  3.997001  0  0  -0.091002  0  4.019926  0  0  -0.080323  -0.089379  0  3.981668  0
C  C35  1  0.73580440  0.02035972  0.99119266  1  0  -0.067483  0  3.75361  0  0  -0.09022  0  3.99697  0  0  -0.091086  0  4.019906  0  0  -0.08035  -0.089447  0  3.98164  0
C  C36  1  0.28088765  0.11813675  0.03322621  1  0  -0.058892  0  3.722902  0  0  -0.071706  0  3.976932  0  0  -0.074612  0  3.997661  0  0  -0.083056  -0.069888  0  3.963392  0
C  C37  1  0.71911362  0.88186090  0.96677147  1  0  -0.058841  0  3.722919  0  0  -0.071646  0  3.976919  0  0  -0.074553  0  3.997653  0  0  -0.083058  -0.069822  0  3.963364  0
C  C38  1  0.24094933  0.18928057  0.13815755  1  0  -0.068591  0  3.748732  0  0  -0.086739  0  4.002039  0  0  -0.087242  0  4.022751  0  0  -0.088965  -0.086453  0  3.988488  0
C  C39  1  0.75904342  0.81071705  0.86183961  1  0  -0.068469  0  3.748611  0  0  -0.086636  0  4.001892  0  0  -0.087139  0  4.022611  0  0  -0.088928  -0.086347  0  3.988327  0
C  C40  1  0.18168116  0.12223295  0.21818626  1  0  -0.083492  0  3.795259  0  0  -0.094418  0  4.046373  0  0  -0.098258  0  4.068947  0  0  -0.092477  -0.091753  0  4.031037  0
C  C41  1  0.81832033  0.87776569  0.78181081  1  0  -0.083608  0  3.79528  0  0  -0.094552  0  4.046399  0  0  -0.098397  0  4.068978  0  0  -0.092526  -0.091883  0  4.03106  0
C  C42  1  0.16705028  0.98449845  0.19541256  1  0  -0.05931  0  3.739108  0  0  -0.083354  0  3.980689  0  0  -0.082916  0  4.000594  0  0  -0.081246  -0.083505  0  3.967494  0
C  C43  1  0.83294621  0.01549719  0.80458440  1  0  -0.059119  0  3.739239  0  0  -0.083137  0  3.980795  0  0  -0.082698  0  4.000703  0  0  -0.081179  -0.083291  0  3.967603  0
C  C44  1  0.38433237  0.61928710  0.31135302  1  0  -0.128152  0  3.75275  0  0  -0.104839  0  4.003187  0  0  -0.11303  0  4.026875  0  0  -0.024694  -0.099662  0  3.987579  0
C  C45  1  0.61566236  0.38071252  0.68864550  1  0  -0.128223  0  3.752886  0  0  -0.104939  0  4.003357  0  0  -0.113123  0  4.027033  0  0  -0.024726  -0.099767  0  3.987749  0
C  C46  1  0.53271394  0.65385787  0.40663275  1  0  -0.060672  0  3.772575  0  0  -0.084397  0  4.020447  0  0  -0.083177  0  4.040817  0  0  -0.083107  -0.085021  0  4.006723  0
C  C47  1  0.46728397  0.34613777  0.59336430  1  0  -0.060569  0  3.772595  0  0  -0.084259  0  4.020451  0  0  -0.083037  0  4.040819  0  0  -0.083055  -0.084881  0  4.006729  0
C  C48  1  0.48656514  0.66792721  0.51673891  1  0  -0.125359  0  3.735974  0  0  -0.142574  0  3.980419  0  0  -0.147893  0  4.00343  0  0  -0.091684  -0.139066  0  3.964962  0
C  C49  1  0.51343810  0.33207244  0.48326013  1  0  -0.125417  0  3.735866  0  0  -0.142582  0  3.980347  0  0  -0.147897  0  4.00336  0  0  -0.091704  -0.139074  0  3.964898  0
C  C50  1  0.29427557  0.65049803  0.53400780  1  0  0.153406  0  3.757463  0  0  0.177372  0  3.993353  0  0  0.180044  0  4.017675  0  0  -0.004148  0.175692  0  3.976695  0
C  C51  1  0.70573050  0.34950662  0.46599495  1  0  0.153619  0  3.75721  0  0  0.177434  0  3.993295  0  0  0.180107  0  4.017621  0  0  -0.004092  0.175744  0  3.976655  0
C  C52  1  0.14830187  0.61503368  0.43675699  1  0  -0.140039  0  3.737999  0  0  -0.156034  0  3.979437  0  0  -0.161359  0  4.001644  0  0  -0.093331  -0.152489  0  3.964256  0
C  C53  1  0.85170148  0.38497097  0.56324807  1  0  -0.140234  0  3.738133  0  0  -0.156179  0  3.979609  0  0  -0.161504  0  4.001806  0  0  -0.093413  -0.152631  0  3.964427  0
C  C54  1  0.19138819  0.59838111  0.32562458  1  0  -0.050562  0  3.746042  0  0  -0.076022  0  3.994864  0  0  -0.07425  0  4.014219  0  0  -0.077702  -0.076905  0  3.981738  0
C  C55  1  0.80860674  0.40161852  0.67437809  1  0  -0.050481  0  3.746067  0  0  -0.075934  0  3.994881  0  0  -0.074138  0  4.014252  0  0  -0.077637  -0.076811  0  3.981746  0
C  C56  1  0.24809749  0.66908217  0.65378282  1  0  -0.337962  0  3.72514  0  0  -0.418917  0  3.96014  0  0  -0.421454  0  3.969382  0  0  -0.236127  -0.416894  0  3.953557  0
C  C57  1  0.75191241  0.33092648  0.34622018  1  0  -0.338211  0  3.725223  0  0  -0.419131  0  3.960291  0  0  -0.421691  0  3.969513  0  0  -0.236211  -0.417114  0  3.953719  0
S  S58  1  0.19423862  0.73799255  0.06154635  1  0  1.137582  0  5.203306  0  0  1.079364  0  5.678299  0  0  1.115173  0  5.674284  0  0  0.47061  1.054731  0  5.680497  0
S  S59  1  0.80576014  0.26200609  0.93845304  1  0  1.137642  0  5.202914  0  0  1.079458  0  5.677893  0  0  1.115267  0  5.673877  0  0  0.470663  1.054833  0  5.680084  0
S  S60  1  0.44213637  0.60770885  0.17126442  1  0  1.280478  0  5.457423  0  0  1.195058  0  5.963687  0  0  1.24004  0  5.944202  0  0  0.577245  1.16388  0  5.976454  0
S  S61  1  0.55786429  0.39229179  0.82873468  1  0  1.28045  0  5.4575  0  0  1.195065  0  5.963734  0  0  1.240045  0  5.944257  0  0  0.577257  1.163893  0  5.976493  0
N  N62  1  0.39573112  0.73838975  0.13759578  1  0  -0.736289  0  2.868933  0  0  -0.689824  0  3.17437  0  0  -0.71319  0  3.172103  0  0  -0.405333  -0.673081  0  3.175386  0
N  N63  1  0.60426697  0.26161188  0.86240337  1  0  -0.736346  0  2.868833  0  0  -0.689897  0  3.174264  0  0  -0.713262  0  3.171998  0  0  -0.405342  -0.673157  0  3.17528  0
O  O64  1  0.01818383  0.69307546  0.10491546  1  0  -0.697976  0  1.967836  0  0  -0.648754  0  2.225589  0  0  -0.667185  0  2.213393  0  0  -0.394166  -0.635639  0  2.233473  0
O  O65  1  0.98182076  0.30692322  0.89508758  1  0  -0.697987  0  1.967678  0  0  -0.648783  0  2.225457  0  0  -0.667212  0  2.213256  0  0  -0.39421  -0.635671  0  2.233343  0
O  O66  1  0.32592530  0.48270271  0.09508021  1  0  -0.714211  0  1.996705  0  0  -0.664161  0  2.254229  0  0  -0.683041  0  2.239893  0  0  -0.371029  -0.650656  0  2.26412  0
O  O67  1  0.67406947  0.51729691  0.90491914  1  0  -0.714168  0  1.99683  0  0  -0.664118  0  2.254339  0  0  -0.682984  0  2.239968  0  0  -0.371  -0.650614  0  2.264223  0
O  O68  1  0.65049525  0.61541751  0.18428889  1  0  -0.675718  0  1.96875  0  0  -0.62757  0  2.218182  0  0  -0.646252  0  2.203135  0  0  -0.37164  -0.614088  0  2.227905  0
O  O69  1  0.34950097  0.38458212  0.81571138  1  0  -0.675704  0  1.968778  0  0  -0.627582  0  2.218232  0  0  -0.646262  0  2.203187  0  0  -0.371654  -0.614102  0  2.227955  0
