# generated using pymatgen
data_MnP3H10C3NO9
_symmetry_space_group_name_H-M   'P 1'
_cell_length_a   8.35996376
_cell_length_b   9.12405576
_cell_length_c   13.44394409
_cell_angle_alpha   97.86204862
_cell_angle_beta   90.00020443
_cell_angle_gamma   90.00016240
_symmetry_Int_Tables_number   1
_chemical_formula_structural   MnP3H10C3NO9
_chemical_formula_sum   'Mn4 P12 H40 C12 N4 O36'
_cell_volume   1015.82166861
_cell_formula_units_Z   4
loop_
 _symmetry_equiv_pos_site_id
 _symmetry_equiv_pos_as_xyz
  1  'x, y, z'
loop_
 _atom_site_type_symbol
 _atom_site_label
 _atom_site_symmetry_multiplicity
 _atom_site_fract_x
 _atom_site_fract_y
 _atom_site_fract_z
 _atom_site_occupancy
 _atom_site_hle17_ddec_charge
 _atom_site_hle17_ddec_spin_density
 _atom_site_hle17_ddec_sum_bond_order
 _atom_site_hle17_magmom
 _atom_site_hse06_10hf_ddec_charge
 _atom_site_hse06_10hf_ddec_spin_density
 _atom_site_hse06_10hf_ddec_sum_bond_order
 _atom_site_hse06_10hf_magmom
 _atom_site_hse06_ddec_charge
 _atom_site_hse06_ddec_spin_density
 _atom_site_hse06_ddec_sum_bond_order
 _atom_site_hse06_magmom
 _atom_site_pbe_cm5_charge
 _atom_site_pbe_ddec_charge
 _atom_site_pbe_ddec_spin_density
 _atom_site_pbe_ddec_sum_bond_order
 _atom_site_pbe_magmom
Mn  Mn0  1  0.96197378  0.78084366  0.24435345  1  1.397508  4.79756  1.565711  4.697  1.238104  4.73356  2.061007  4.566  1.294409  4.768298  1.987594  4.618  0.634601  1.192672  4.700522  2.115404  4.519
Mn  Mn1  1  0.46197514  0.71915593  0.25564860  1  1.397512  4.797521  1.565876  4.697  1.238191  4.733496  2.061129  4.566  1.294497  4.768241  1.987712  4.618  0.634564  1.192759  4.700452  2.115533  4.519
Mn  Mn2  1  0.03802540  0.21915553  0.75564700  1  1.397531  4.797555  1.565659  4.697  1.238148  4.733552  2.060927  4.567  1.29445  4.768286  1.987517  4.618  0.634611  1.192717  4.700512  2.115324  4.519
Mn  Mn3  1  0.53802644  0.28084326  0.74435334  1  1.397541  4.797526  1.565834  4.697  1.238194  4.733515  2.061117  4.566  1.294497  4.768262  1.987702  4.618  0.634573  1.192762  4.700472  2.11552  4.519
P  P4  1  0.19709200  0.87526452  0.44443228  1  1.521453  0.009133  4.760648  0.008  1.357944  0.014354  5.266053  0.011  1.408822  0.011065  5.227971  0.009  0.380955  1.321871  0.017486  5.291218  0.012
P  P5  1  0.69710463  0.62473978  0.05556888  1  1.521433  0.009123  4.760769  0.008  1.358057  0.014346  5.26612  0.011  1.408942  0.011057  5.228038  0.009  0.38102  1.321979  0.01748  5.29129  0.012
P  P6  1  0.80290718  0.12473578  0.55556754  1  1.521516  0.009123  4.760586  0.008  1.358011  0.014353  5.265991  0.011  1.40889  0.011065  5.227907  0.009  0.380965  1.321937  0.017485  5.291159  0.012
P  P7  1  0.30289576  0.37526052  0.94443093  1  1.521431  0.009115  4.760679  0.008  1.358066  0.014348  5.26603  0.011  1.408947  0.011064  5.22795  0.009  0.381011  1.321988  0.01748  5.291197  0.012
P  P8  1  0.32230649  0.95583449  0.75770201  1  1.522318  0.00741  4.746924  0.007  1.358329  0.012648  5.250383  0.01  1.408847  0.009666  5.212495  0.008  0.385893  1.322154  0.015494  5.277197  0.011
P  P9  1  0.82231276  0.54416318  0.74229259  1  1.522454  0.007411  4.746691  0.007  1.358442  0.012651  5.250127  0.01  1.408974  0.009665  5.212241  0.008  0.385999  1.322269  0.015496  5.276938  0.011
P  P10  1  0.67769389  0.04416248  0.24229675  1  1.522378  0.007406  4.746815  0.007  1.358382  0.012651  5.25027  0.01  1.4089  0.009667  5.212381  0.008  0.385916  1.322207  0.015494  5.277084  0.011
P  P11  1  0.17768643  0.45583711  0.25770573  1  1.522319  0.007412  4.746762  0.007  1.358325  0.012652  5.250214  0.01  1.408851  0.009666  5.21233  0.008  0.385917  1.322149  0.015497  5.277027  0.011
P  P12  1  0.29278469  0.41525188  0.58422030  1  1.500892  0.004692  4.775064  0.004  1.336079  0.0085  5.283128  0.006  1.386666  0.006476  5.244539  0.005  0.369697  1.300273  0.0103  5.30983  0.006
P  P13  1  0.79278491  0.08474881  0.91578153  1  1.501066  0.004692  4.77488  0.004  1.336246  0.0085  5.282921  0.006  1.386823  0.006478  5.244336  0.005  0.369782  1.300437  0.0103  5.309618  0.006
P  P14  1  0.70721569  0.58474731  0.41578165  1  1.500952  0.004684  4.774918  0.004  1.336163  0.008501  5.282968  0.006  1.386739  0.006477  5.244382  0.005  0.369776  1.300355  0.010301  5.309669  0.006
P  P15  1  0.20721308  0.91525148  0.08421902  1  1.500948  0.00469  4.775055  0.004  1.336153  0.008497  5.283105  0.006  1.386727  0.006479  5.244523  0.005  0.369744  1.300347  0.0103  5.309803  0.006
H  H16  1  0.13542092  0.08168455  0.53847288  1  0.438464  -0.000388  0.851062  0.0  0.406614  -0.000113  0.922898  0.0  0.417637  -0.000269  0.907064  0.0  0.316104  0.398513  4.8e-05  0.934711  0.001
H  H17  1  0.63542004  0.41831566  0.96152930  1  0.438548  -0.000389  0.850972  0.0  0.406759  -0.000113  0.922708  0.0  0.417784  -0.000269  0.90687  0.0  0.316114  0.398655  4.7e-05  0.934526  0.001
H  H18  1  0.86458066  0.91831575  0.46152768  1  0.438534  -0.00039  0.850992  0.0  0.406692  -0.000113  0.922799  0.0  0.417715  -0.000269  0.906964  0.0  0.316121  0.398591  4.8e-05  0.934612  0.001
H  H19  1  0.36458034  0.58168353  0.03847041  1  0.438546  -0.000389  0.850974  0.0  0.406756  -0.000113  0.922712  0.0  0.41778  -0.000269  0.906876  0.0  0.316113  0.398652  4.7e-05  0.93453  0.001
H  H20  1  0.10664460  0.80728768  0.60408889  1  0.156799  -0.000183  0.920331  0.0  0.167851  -2e-06  0.975466  0.0  0.171188  -0.000108  0.973788  0.0  0.127511  0.165417  0.00012  0.976856  0.0
H  H21  1  0.60664503  0.69271154  0.89591059  1  0.156823  -0.000195  0.920295  0.0  0.167879  -1e-06  0.975425  0.0  0.171218  -0.000109  0.973745  0.0  0.127526  0.165456  0.000119  0.976804  0.0
H  H22  1  0.89335459  0.19271151  0.39591008  1  0.156822  -0.000187  0.920275  0.0  0.167873  -1e-06  0.97542  0.0  0.171209  -0.000108  0.973745  0.0  0.12753  0.165454  0.00012  0.97679  0.0
H  H23  1  0.39335535  0.30728764  0.10408986  1  0.156815  -0.000203  0.920264  0.0  0.167863  -0.0  0.975412  0.0  0.171202  -0.000108  0.97373  0.0  0.127533  0.165442  0.00012  0.976787  0.0
H  H24  1  0.13218248  0.65119424  0.51182193  1  0.159969  -0.000249  0.95675  0.0  0.167618  -0.000185  1.016824  0.0  0.17117  -0.000197  1.014984  0.0  0.129536  0.164786  -0.000166  1.01879  0.0
H  H25  1  0.63218154  0.84880395  0.98817900  1  0.159996  -0.00025  0.956708  0.0  0.167629  -0.000185  1.016797  0.0  0.171198  -0.000196  1.014934  0.0  0.129547  0.164796  -0.000166  1.018765  0.0
H  H26  1  0.86781791  0.34880605  0.48817788  1  0.159968  -0.000246  0.956742  0.0  0.167616  -0.000185  1.016826  0.0  0.171168  -0.000197  1.014984  0.0  0.129537  0.164783  -0.000166  1.018794  0.0
H  H27  1  0.36781765  0.15119634  0.01182230  1  0.159961  -0.000258  0.956722  0.0  0.167606  -0.000185  1.016801  0.0  0.171163  -0.000196  1.014955  0.0  0.129539  0.164774  -0.000166  1.018771  0.0
H  H28  1  0.42966235  0.68844688  0.53250128  1  0.291746  -0.000176  0.865224  0.0  0.272332  -0.00019  0.926765  0.0  0.280582  -0.000207  0.920958  0.0  0.320571  0.266604  -0.000182  0.930729  0.0
H  H29  1  0.92965998  0.81155334  0.96749826  1  0.29171  -0.000177  0.865256  0.0  0.272306  -0.00019  0.926793  0.0  0.280555  -0.000206  0.920987  0.0  0.320554  0.26658  -0.000182  0.930755  0.0
H  H30  1  0.57033803  0.31155120  0.46749907  1  0.291735  -0.000178  0.865246  0.0  0.272321  -0.000189  0.92679  0.0  0.28057  -0.000206  0.920984  0.0  0.320556  0.266595  -0.000182  0.930752  0.0
H  H31  1  0.07034040  0.18844806  0.03250091  1  0.291727  -0.000175  0.865226  0.0  0.272308  -0.00019  0.926772  0.0  0.280556  -0.000206  0.920968  0.0  0.320567  0.266582  -0.000182  0.930733  0.0
H  H32  1  0.24364132  0.85801783  0.89342406  1  0.442454  -8.7e-05  0.855179  0.0  0.406545  -4.8e-05  0.928281  0.0  0.418604  -7e-05  0.910985  0.0  0.309587  0.398109  -2.7e-05  0.94037  0.0
H  H33  1  0.74364232  0.64198292  0.60657661  1  0.442542  -8.7e-05  0.855011  0.0  0.40657  -4.8e-05  0.928242  0.0  0.418628  -6.9e-05  0.910947  0.0  0.309592  0.398134  -2.7e-05  0.940331  0.0
H  H34  1  0.75636026  0.14198135  0.10657565  1  0.442424  -8.7e-05  0.855219  0.0  0.406502  -4.7e-05  0.928343  0.0  0.418561  -6.9e-05  0.911046  0.0  0.309565  0.398065  -2.7e-05  0.940433  0.0
H  H35  1  0.25635806  0.35801737  0.39342321  1  0.442514  -8.7e-05  0.855046  0.0  0.40654  -4.8e-05  0.928289  0.0  0.418598  -7e-05  0.910992  0.0  0.309575  0.398105  -2.7e-05  0.940377  0.0
H  H36  1  0.43593927  0.94228313  0.59412082  1  0.164837  -0.000339  0.920984  0.0  0.174701  -0.000269  0.976308  0.0  0.177986  -0.00031  0.974751  0.0  0.138466  0.171874  -0.00025  0.978575  0.0
H  H37  1  0.93593695  0.55771822  0.90587661  1  0.16487  -0.000344  0.920976  0.0  0.174726  -0.000268  0.976273  0.0  0.178009  -0.00031  0.974724  0.0  0.138495  0.1719  -0.00025  0.978537  0.0
H  H38  1  0.56405992  0.05771606  0.40587815  1  0.164846  -0.000346  0.920986  0.0  0.174706  -0.000268  0.976306  0.0  0.177987  -0.00031  0.974749  0.0  0.138466  0.171878  -0.00025  0.978574  0.0
H  H39  1  0.06406343  0.44228207  0.09412246  1  0.164845  -0.000351  0.920989  0.0  0.174724  -0.000268  0.976283  0.0  0.178005  -0.000309  0.974732  0.0  0.138487  0.171898  -0.00025  0.978548  0.0
H  H40  1  0.53950314  0.82669649  0.66751372  1  0.147782  4.7e-05  0.920066  0.0  0.158426  0.000203  0.978157  0.0  0.161352  0.000121  0.976658  0.0  0.130609  0.156383  0.00027  0.979146  0.0
H  H41  1  0.03950361  0.67330916  0.83248472  1  0.14781  4.6e-05  0.920041  0.0  0.158388  0.000204  0.978164  0.0  0.161315  0.000121  0.976668  0.0  0.130567  0.156345  0.00027  0.979152  0.0
H  H42  1  0.46049844  0.17330381  0.33248609  1  0.147801  4.5e-05  0.920057  0.0  0.158429  0.000203  0.978164  0.0  0.161354  0.000121  0.97666  0.0  0.130611  0.156386  0.00027  0.979152  0.0
H  H43  1  0.96049558  0.32669445  0.16751391  1  0.147797  4.1e-05  0.920028  0.0  0.158427  0.000204  0.978128  0.0  0.161351  0.000121  0.976629  0.0  0.130594  0.156383  0.00027  0.979117  0.0
H  H44  1  0.03639852  0.42415956  0.61732893  1  0.430277  -0.000251  0.888723  0.0  0.395655  0.000114  0.958344  0.0  0.407006  -9e-06  0.942195  0.0  0.314091  0.387783  0.000219  0.969498  0.0
H  H45  1  0.53639613  0.07584144  0.88267311  1  0.430224  -0.000251  0.888796  0.0  0.395628  0.000114  0.958377  0.0  0.406972  -9e-06  0.94224  0.0  0.314095  0.387755  0.000219  0.969532  0.0
H  H46  1  0.96360306  0.57584073  0.38267163  1  0.430278  -0.000252  0.888717  0.0  0.395666  0.000114  0.958322  0.0  0.407011  -9e-06  0.942184  0.0  0.314122  0.387792  0.000219  0.969478  0.0
H  H47  1  0.46360186  0.92415996  0.11732755  1  0.430275  -0.000251  0.888718  0.0  0.395681  0.000114  0.958291  0.0  0.407023  -9e-06  0.942158  0.0  0.314122  0.387808  0.000218  0.969447  0.0
H  H48  1  0.24719308  0.62622152  0.70958894  1  0.140556  -0.000168  0.931992  0.0  0.154659  -0.000174  0.984974  0.0  0.157211  -0.000194  0.983956  0.0  0.12544  0.152803  -0.000153  0.985834  0.0
H  H49  1  0.74719227  0.87377924  0.79041099  1  0.140577  -0.000171  0.932  0.0  0.154649  -0.000174  0.985005  0.0  0.1572  -0.000195  0.98399  0.0  0.125431  0.152793  -0.000153  0.985866  0.0
H  H50  1  0.75280611  0.37377877  0.29041087  1  0.140485  -0.000177  0.932066  0.0  0.154621  -0.000174  0.985016  0.0  0.157173  -0.000195  0.983996  0.0  0.12542  0.152764  -0.000153  0.985876  0.0
H  H51  1  0.25280572  0.12622216  0.20958892  1  0.14055  -0.00017  0.932056  0.0  0.15467  -0.000174  0.985008  0.0  0.157222  -0.000195  0.983989  0.0  0.125432  0.152814  -0.000153  0.985869  0.0
H  H52  1  0.45372855  0.59448185  0.68701385  1  0.152879  -0.000284  0.951821  0.0  0.160531  -0.000104  1.013922  0.0  0.163835  -0.00019  1.012477  0.0  0.127289  0.158124  -1.9e-05  1.015101  0.0
H  H53  1  0.95372797  0.90552177  0.81298680  1  0.152868  -0.000288  0.951819  0.0  0.160498  -0.000103  1.013951  0.0  0.163805  -0.00019  1.0125  0.0  0.127268  0.158091  -1.9e-05  1.01513  0.0
H  H54  1  0.54627064  0.40551955  0.31298681  1  0.152858  -0.000293  0.951801  0.0  0.1605  -0.000103  1.013929  0.0  0.163807  -0.00019  1.012482  0.0  0.127271  0.158092  -1.9e-05  1.015107  0.0
H  H55  1  0.04627002  0.09448074  0.18701396  1  0.152872  -0.000287  0.951812  0.0  0.160508  -0.000103  1.013942  0.0  0.163814  -0.00019  1.012496  0.0  0.127271  0.1581  -1.9e-05  1.015121  0.0
C  C56  1  0.18567459  0.75664507  0.54367407  1  -0.367922  0.001509  3.491084  0.002  -0.403149  0.002097  3.734936  0.002  -0.409042  0.001498  3.739446  0.002  -0.073923  -0.398796  0.00274  3.732612  0.002
C  C57  1  0.68567314  0.74335550  0.95632571  1  -0.367913  0.001535  3.490978  0.002  -0.403126  0.002096  3.734835  0.002  -0.409032  0.001495  3.739332  0.002  -0.073927  -0.398783  0.00274  3.732506  0.002
C  C58  1  0.81432579  0.24335411  0.45632564  1  -0.367893  0.001517  3.490965  0.002  -0.403132  0.0021  3.73485  0.002  -0.409025  0.001499  3.739356  0.002  -0.073924  -0.398789  0.00274  3.732521  0.002
C  C59  1  0.31432724  0.25664479  0.04367484  1  -0.367846  0.001564  3.490885  0.002  -0.403067  0.002093  3.734732  0.002  -0.408964  0.001499  3.739237  0.002  -0.073919  -0.398727  0.00274  3.732403  0.002
C  C60  1  0.41987821  0.85983907  0.64556680  1  -0.349065  0.001048  3.480706  0.001  -0.383583  0.001572  3.723835  0.002  -0.389056  0.001078  3.729136  0.001  -0.064348  -0.379559  0.002074  3.720925  0.002
C  C61  1  0.91987705  0.64016444  0.85443080  1  -0.349248  0.001054  3.480683  0.001  -0.383586  0.00157  3.723622  0.002  -0.389075  0.001077  3.728954  0.001  -0.064351  -0.379562  0.002074  3.720711  0.002
C  C62  1  0.58012217  0.14016012  0.35443217  1  -0.34911  0.001062  3.480793  0.001  -0.383589  0.001572  3.723859  0.002  -0.389046  0.001078  3.72914  0.001  -0.064353  -0.379565  0.002074  3.72095  0.002
C  C63  1  0.08012214  0.35983917  0.14556858  1  -0.349142  0.001076  3.480647  0.001  -0.383604  0.001571  3.723688  0.002  -0.389073  0.001075  3.72899  0.001  -0.064374  -0.37958  0.002074  3.720777  0.002
C  C64  1  0.33700665  0.60023803  0.65044776  1  -0.360975  -3.3e-05  3.504725  0.0  -0.397239  0.000334  3.7501  0.001  -0.402601  6.6e-05  3.755472  0.0  -0.073798  -0.393157  0.000585  3.746437  0.001
C  C65  1  0.83700387  0.89976191  0.84955155  1  -0.361016  -1.9e-05  3.50475  0.0  -0.397217  0.000331  3.750063  0.001  -0.402579  6.7e-05  3.755441  0.0  -0.073781  -0.393139  0.000585  3.746406  0.001
C  C66  1  0.66299373  0.39976116  0.34955270  1  -0.360859  1e-06  3.504768  0.0  -0.397142  0.000333  3.750122  0.001  -0.402508  6.6e-05  3.755504  0.0  -0.07375  -0.393061  0.000585  3.746459  0.001
C  C67  1  0.16299412  0.10023728  0.15044816  1  -0.360982  -1.9e-05  3.504775  0.0  -0.397257  0.000337  3.750138  0.001  -0.402621  6.8e-05  3.755516  0.0  -0.073791  -0.393179  0.000585  3.746481  0.001
N  N68  1  0.34387153  0.72497926  0.58840075  1  0.041085  0.000166  3.4078  0.0  0.117579  0.000623  3.617203  0.001  0.108426  0.00038  3.637053  0.0  -0.332032  0.123855  0.000919  3.60354  0.001
N  N69  1  0.84387111  0.77502181  0.91159868  1  0.041162  0.000158  3.40781  0.0  0.117605  0.000626  3.617192  0.001  0.108452  0.000378  3.637054  0.0  -0.332003  0.123882  0.000919  3.603529  0.001
N  N70  1  0.65612766  0.27501883  0.41159886  1  0.041018  0.000157  3.407952  0.0  0.117513  0.000623  3.617342  0.001  0.108355  0.000379  3.637194  0.0  -0.332053  0.123788  0.000919  3.603681  0.001
N  N71  1  0.15612807  0.22497959  0.08840123  1  0.041091  0.000141  3.407771  0.0  0.11758  0.000625  3.617152  0.001  0.108424  0.000378  3.637008  0.0  -0.332025  0.123857  0.000919  3.603488  0.001
O  O72  1  0.03136625  0.86707122  0.39648153  1  -0.881032  0.030307  2.045905  0.016  -0.786431  0.036614  2.321596  0.019  -0.817544  0.033209  2.299145  0.016  -0.350799  -0.763196  0.039784  2.336557  0.022
O  O73  1  0.53136004  0.63293366  0.10352006  1  -0.881152  0.030308  2.045576  0.016  -0.78676  0.036624  2.321374  0.019  -0.817881  0.033224  2.298924  0.016  -0.350888  -0.763519  0.039796  2.336339  0.022
O  O74  1  0.96863413  0.13292907  0.60351902  1  -0.881089  0.030308  2.045892  0.016  -0.78649  0.036614  2.321594  0.019  -0.817605  0.03321  2.299146  0.016  -0.35081  -0.763253  0.039786  2.336554  0.022
O  O75  1  0.46864034  0.36706663  0.89647976  1  -0.881141  0.030308  2.045599  0.016  -0.786742  0.036625  2.321397  0.019  -0.817862  0.03322  2.298948  0.016  -0.350866  -0.7635  0.039796  2.33636  0.022
O  O76  1  0.23017593  0.03879923  0.49766702  1  -0.726838  0.001078  1.990278  0.002  -0.658552  0.002056  2.220019  0.003  -0.678905  0.00136  2.194881  0.002  -0.379153  -0.644407  0.002822  2.239006  0.004
O  O77  1  0.73017135  0.46119941  0.00233326  1  -0.726901  0.001079  1.990239  0.002  -0.658625  0.002056  2.219815  0.003  -0.678979  0.00136  2.194663  0.002  -0.37917  -0.64448  0.002822  2.238811  0.004
O  O78  1  0.76982565  0.96119995  0.50233343  1  -0.726928  0.001083  1.990242  0.002  -0.658644  0.002053  2.219931  0.003  -0.678997  0.001359  2.194791  0.002  -0.379169  -0.644503  0.002822  2.238931  0.004
O  O79  1  0.26982903  0.53880088  0.99766656  1  -0.726905  0.00108  1.990259  0.002  -0.658619  0.002056  2.219821  0.003  -0.678977  0.001361  2.194676  0.002  -0.379163  -0.644477  0.002822  2.238827  0.004
O  O80  1  0.34022035  0.82680525  0.37973302  1  -0.873987  0.035557  1.976148  0.019  -0.78755  0.043079  2.277505  0.022  -0.818626  0.038718  2.252486  0.019  -0.359345  -0.764119  0.047155  2.294256  0.026
O  O81  1  0.84021316  0.67319174  0.12026555  1  -0.873808  0.035542  1.976431  0.019  -0.787488  0.04307  2.277906  0.022  -0.818537  0.03871  2.252826  0.019  -0.359338  -0.764059  0.047144  2.29466  0.026
O  O82  1  0.65978123  0.17319504  0.62026680  1  -0.873991  0.035556  1.976135  0.019  -0.787554  0.043077  2.277498  0.022  -0.818628  0.038719  2.252477  0.019  -0.359363  -0.764124  0.047153  2.29425  0.026
O  O83  1  0.15978842  0.32680745  0.87973416  1  -0.873829  0.035541  1.976358  0.019  -0.787541  0.043069  2.277864  0.022  -0.818585  0.038706  2.252781  0.019  -0.359358  -0.764125  0.047144  2.294649  0.026
O  O84  1  0.44520528  0.07740503  0.78988233  1  -0.882027  0.029461  2.091818  0.014  -0.786628  0.036907  2.372519  0.018  -0.817434  0.033718  2.349545  0.016  -0.350697  -0.764221  0.039777  2.388507  0.021
O  O85  1  0.94520296  0.42259724  0.71011552  1  -0.882079  0.029459  2.091908  0.014  -0.786658  0.036903  2.372609  0.018  -0.817479  0.033716  2.349643  0.016  -0.350725  -0.76425  0.039773  2.388592  0.021
O  O86  1  0.55479630  0.92259527  0.21011748  1  -0.88202  0.029461  2.09185  0.014  -0.786616  0.036905  2.37254  0.018  -0.817429  0.033717  2.349576  0.016  -0.350694  -0.764209  0.039775  2.38853  0.021
O  O87  1  0.05479742  0.57740305  0.28988504  1  -0.882046  0.029457  2.091941  0.014  -0.786619  0.036903  2.372631  0.018  -0.817441  0.033718  2.349673  0.016  -0.350693  -0.76421  0.039774  2.388616  0.021
O  O88  1  0.31964622  0.83696698  0.83286390  1  -0.743142  0.002318  2.004679  0.003  -0.671688  0.003506  2.237307  0.004  -0.693203  0.002659  2.211946  0.003  -0.381772  -0.656513  0.004425  2.255062  0.005
O  O89  1  0.81964406  0.66303290  0.66713388  1  -0.743224  0.002318  2.004553  0.003  -0.671739  0.003507  2.237298  0.004  -0.693256  0.002658  2.211939  0.003  -0.3818  -0.656565  0.004425  2.255052  0.005
O  O90  1  0.68035536  0.16303111  0.16713571  1  -0.743116  0.002319  2.004618  0.003  -0.671662  0.003506  2.237258  0.004  -0.693179  0.002659  2.211903  0.003  -0.381778  -0.656487  0.004425  2.255014  0.005
O  O91  1  0.18035513  0.33696739  0.33286593  1  -0.743176  0.002317  2.004553  0.003  -0.671678  0.003506  2.237285  0.004  -0.693194  0.002657  2.211925  0.003  -0.381759  -0.656504  0.004425  2.25504  0.005
O  O92  1  0.15521693  0.01025502  0.74003991  1  -0.874585  0.033667  2.00893  0.018  -0.788338  0.041358  2.299818  0.021  -0.818253  0.037229  2.2759  0.018  -0.356939  -0.765965  0.045258  2.31611  0.024
O  O93  1  0.65521511  0.48973750  0.75995937  1  -0.874565  0.033671  2.008669  0.018  -0.788359  0.041363  2.299558  0.021  -0.818281  0.037238  2.275639  0.018  -0.35696  -0.765987  0.045264  2.315854  0.024
O  O94  1  0.84478226  0.98974085  0.25996098  1  -0.874592  0.033667  2.008899  0.018  -0.788361  0.041358  2.299799  0.021  -0.818281  0.037231  2.275884  0.018  -0.356915  -0.765988  0.045259  2.316094  0.024
O  O95  1  0.34478527  0.51026279  0.24004044  1  -0.874488  0.033667  2.008632  0.018  -0.788308  0.041362  2.299553  0.021  -0.818231  0.037236  2.275641  0.018  -0.356925  -0.765935  0.045263  2.315847  0.024
O  O96  1  0.11065464  0.41711148  0.55576833  1  -0.748286  0.001733  2.093427  0.002  -0.675373  0.002623  2.331929  0.003  -0.69794  0.001898  2.30919  0.002  -0.384282  -0.659076  0.003374  2.348115  0.004
O  O97  1  0.61064783  0.08288754  0.94423145  1  -0.748303  0.001731  2.093408  0.002  -0.675429  0.002625  2.3319  0.003  -0.697996  0.001899  2.309184  0.002  -0.38435  -0.659127  0.003374  2.34808  0.004
O  O98  1  0.88934694  0.58288660  0.44423276  1  -0.748295  0.001735  2.093451  0.002  -0.675405  0.002623  2.331955  0.003  -0.697961  0.001899  2.309221  0.002  -0.384333  -0.659106  0.003374  2.34814  0.004
O  O99  1  0.38934657  0.91711497  0.05577080  1  -0.748298  0.001733  2.093443  0.002  -0.675421  0.002623  2.33193  0.003  -0.697976  0.0019  2.3092  0.002  -0.384329  -0.659118  0.003374  2.348111  0.004
O  O100  1  0.32622272  0.31683554  0.66473494  1  -0.87546  0.046481  1.958635  0.026  -0.788238  0.060567  2.261708  0.034  -0.818545  0.054023  2.234528  0.029  -0.346738  -0.764696  0.066764  2.281074  0.039
O  O101  1  0.82622038  0.18316525  0.83526548  1  -0.87549  0.046483  1.9585  0.026  -0.788279  0.060568  2.26158  0.034  -0.818576  0.054019  2.234394  0.029  -0.346753  -0.764748  0.066767  2.280972  0.039
O  O102  1  0.67377886  0.68316586  0.33526572  1  -0.875475  0.046482  1.958507  0.026  -0.788281  0.060571  2.261603  0.034  -0.818584  0.054025  2.234422  0.029  -0.346774  -0.764747  0.066769  2.28099  0.039
O  O103  1  0.17377761  0.81683615  0.16473443  1  -0.875446  0.046481  1.958606  0.026  -0.788222  0.060567  2.261681  0.034  -0.818525  0.054017  2.2345  0.029  -0.346742  -0.764689  0.066764  2.281063  0.039
O  O104  1  0.37886966  0.38432763  0.48398673  1  -0.825786  1.5e-05  1.969301  0.001  -0.746247  0.000394  2.214901  0.001  -0.772633  0.000112  2.197246  0.001  -0.356527  -0.727555  0.000691  2.226904  0.002
O  O105  1  0.87886767  0.11567147  0.01601243  1  -0.82589  1.7e-05  1.969548  0.001  -0.746299  0.000394  2.215058  0.001  -0.772687  0.000113  2.19741  0.001  -0.356521  -0.727602  0.000691  2.227055  0.002
O  O106  1  0.62113073  0.61567155  0.51601373  1  -0.825852  1.7e-05  1.969361  0.001  -0.746297  0.000394  2.214937  0.001  -0.772682  0.000113  2.197284  0.001  -0.356543  -0.727602  0.000691  2.226938  0.002
O  O107  1  0.12113032  0.88432882  0.98398663  1  -0.825775  1.4e-05  1.969402  0.001  -0.746256  0.000394  2.214963  0.001  -0.772644  0.000113  2.197315  0.001  -0.356524  -0.727561  0.000691  2.226962  0.002
