# generated using pymatgen
data_GdH5(C3O2)3
_symmetry_space_group_name_H-M   'P 1'
_cell_length_a   6.63278336
_cell_length_b   10.69936879
_cell_length_c   12.97858740
_cell_angle_alpha   90.00003160
_cell_angle_beta   89.99995539
_cell_angle_gamma   95.15301933
_symmetry_Int_Tables_number   1
_chemical_formula_structural   GdH5(C3O2)3
_chemical_formula_sum   'Gd4 H20 C36 O24'
_cell_volume   917.32364012
_cell_formula_units_Z   4
loop_
 _symmetry_equiv_pos_site_id
 _symmetry_equiv_pos_as_xyz
  1  'x, y, z'
loop_
 _atom_site_type_symbol
 _atom_site_label
 _atom_site_symmetry_multiplicity
 _atom_site_fract_x
 _atom_site_fract_y
 _atom_site_fract_z
 _atom_site_occupancy
 _atom_site_hle17_bader_spin_density
 _atom_site_hle17_ddec_charge
 _atom_site_hle17_ddec_spin_density
 _atom_site_hle17_ddec_sum_bond_order
 _atom_site_hle17_magmom
 _atom_site_hse06_10hf_bader_spin_density
 _atom_site_hse06_10hf_ddec_charge
 _atom_site_hse06_10hf_ddec_spin_density
 _atom_site_hse06_10hf_ddec_sum_bond_order
 _atom_site_hse06_10hf_magmom
 _atom_site_hse06_bader_spin_density
 _atom_site_hse06_ddec_charge
 _atom_site_hse06_ddec_spin_density
 _atom_site_hse06_ddec_sum_bond_order
 _atom_site_hse06_magmom
 _atom_site_pbe_bader_spin_density
 _atom_site_pbe_cm5_charge
 _atom_site_pbe_ddec_charge
 _atom_site_pbe_ddec_spin_density
 _atom_site_pbe_ddec_sum_bond_order
 _atom_site_pbe_magmom
Gd  Gd0  1  0.89787311  0.57496283  0.37327401  1  0  2.210794  0  1.816968  0  0  2.124351  0  2.178436  0  0  2.180142  0  2.120648  0  0  1.502211  2.079181  0  2.227595  0
Gd  Gd1  1  0.60212443  0.42503651  0.87327375  1  0  2.210847  0  1.816889  0  0  2.124378  0  2.178372  0  0  2.180158  0  2.1206  0  0  1.502225  2.079207  0  2.22753  0
Gd  Gd2  1  0.10212477  0.42503699  0.62672622  1  0  2.210796  0  1.816945  0  0  2.124352  0  2.178393  0  0  2.180129  0  2.120624  0  0  1.502213  2.07918  0  2.227553  0
Gd  Gd3  1  0.39787495  0.57496332  0.12672571  1  0  2.210796  0  1.816954  0  0  2.12432  0  2.178462  0  0  2.180122  0  2.120655  0  0  1.502194  2.079151  0  2.227614  0
H  H4  1  0.48161086  0.97438096  0.22309451  1  0  0.09926  0  0.973595  0  0  0.107166  0  1.039137  0  0  0.10954  0  1.039418  0  0  0.103501  0.105419  0  1.039073  0
H  H5  1  0.01839023  0.02561940  0.72309410  1  0  0.099262  0  0.973586  0  0  0.107176  0  1.039121  0  0  0.109542  0  1.03941  0  0  0.103501  0.105427  0  1.039061  0
H  H6  1  0.51838866  0.02561980  0.77690495  1  0  0.099225  0  0.973627  0  0  0.107141  0  1.039161  0  0  0.109514  0  1.039443  0  0  0.103489  0.105394  0  1.039096  0
H  H7  1  0.98161080  0.97438137  0.27690613  1  0  0.099244  0  0.973588  0  0  0.107151  0  1.039129  0  0  0.109524  0  1.039411  0  0  0.103497  0.105404  0  1.039065  0
H  H8  1  0.58709980  0.19679380  0.27462458  1  0  0.10046  0  0.942265  0  0  0.110478  0  1.001335  0  0  0.113898  0  0.999542  0  0  0.10463  0.108129  0  1.002545  0
H  H9  1  0.91290103  0.80320642  0.77462359  1  0  0.10046  0  0.942253  0  0  0.110473  0  1.001338  0  0  0.113894  0  0.99954  0  0  0.104629  0.108124  0  1.002549  0
H  H10  1  0.41289958  0.80320602  0.72537565  1  0  0.100451  0  0.942257  0  0  0.11047  0  1.00133  0  0  0.113889  0  0.999538  0  0  0.104629  0.108121  0  1.00254  0
H  H11  1  0.08710000  0.19679434  0.22537586  1  0  0.100443  0  0.942266  0  0  0.110464  0  1.001338  0  0  0.113882  0  0.999547  0  0  0.104629  0.108114  0  1.002549  0
H  H12  1  0.84513532  0.06481550  0.55332355  1  0  0.105338  0  0.954749  0  0  0.113504  0  1.018118  0  0  0.116764  0  1.016686  0  0  0.107531  0.111203  0  1.019174  0
H  H13  1  0.65486570  0.93518365  0.05332330  1  0  0.105335  0  0.954771  0  0  0.113497  0  1.018145  0  0  0.11676  0  1.016711  0  0  0.107528  0.111195  0  1.019202  0
H  H14  1  0.15486406  0.93518432  0.44667591  1  0  0.105322  0  0.954743  0  0  0.11349  0  1.018109  0  0  0.116747  0  1.016688  0  0  0.107532  0.111189  0  1.019165  0
H  H15  1  0.34513657  0.06481523  0.94667693  1  0  0.105364  0  0.954701  0  0  0.113529  0  1.018068  0  0  0.116785  0  1.01665  0  0  0.107559  0.111227  0  1.019126  0
H  H16  1  0.74347503  0.84256511  0.50088660  1  0  0.100662  0  0.946226  0  0  0.108464  0  1.009041  0  0  0.111835  0  1.007368  0  0  0.11061  0.106123  0  1.01028  0
H  H17  1  0.75652606  0.15743402  0.00088673  1  0  0.100609  0  0.946318  0  0  0.108417  0  1.009123  0  0  0.11179  0  1.007447  0  0  0.110583  0.106077  0  1.010358  0
H  H18  1  0.25652586  0.15743472  0.49911285  1  0  0.100647  0  0.946244  0  0  0.108451  0  1.00906  0  0  0.111822  0  1.007388  0  0  0.110601  0.106111  0  1.010298  0
H  H19  1  0.24347470  0.84256487  0.99911350  1  0  0.100623  0  0.946243  0  0  0.108416  0  1.009072  0  0  0.111787  0  1.007401  0  0  0.110596  0.106077  0  1.010305  0
H  H20  1  0.43049106  0.41644581  0.36630644  1  0  0.044636  0  0.912634  0  0  0.053186  0  0.977593  0  0  0.054259  0  0.97261  0  0  0.140961  0.051889  0  0.981613  0
H  H21  1  0.06950982  0.58355464  0.86630549  1  0  0.044638  0  0.912621  0  0  0.053168  0  0.977599  0  0  0.054253  0  0.972603  0  0  0.140971  0.051862  0  0.981628  0
H  H22  1  0.56950846  0.58355495  0.63369456  1  0  0.044636  0  0.9126  0  0  0.053164  0  0.977577  0  0  0.054252  0  0.972577  0  0  0.140964  0.051859  0  0.981606  0
H  H23  1  0.93049120  0.41644612  0.13369320  1  0  0.044615  0  0.912656  0  0  0.053163  0  0.977618  0  0  0.054235  0  0.972634  0  0  0.14094  0.051865  0  0.981639  0
C  C24  1  0.79389490  0.27428369  0.44933463  1  0  0.723204  0  3.830055  0  0  0.679431  0  4.120388  0  0  0.714922  0  4.109558  0  0  0.236843  0.654804  0  4.127178  0
C  C25  1  0.70610567  0.72571664  0.94933446  1  0  0.723204  0  3.830033  0  0  0.679462  0  4.120326  0  0  0.714952  0  4.1095  0  0  0.236894  0.654834  0  4.127114  0
C  C26  1  0.20610585  0.72571519  0.55066714  1  0  0.723157  0  3.830124  0  0  0.679481  0  4.120317  0  0  0.714972  0  4.109486  0  0  0.236898  0.654854  0  4.127105  0
C  C27  1  0.29389522  0.27428319  0.05066499  1  0  0.723219  0  3.830023  0  0  0.679469  0  4.120324  0  0  0.714962  0  4.109491  0  0  0.236872  0.654842  0  4.127109  0
C  C28  1  0.55475014  0.76266551  0.32592690  1  0  0.736421  0  3.822403  0  0  0.688714  0  4.11669  0  0  0.725302  0  4.104246  0  0  0.243022  0.663497  0  4.124203  0
C  C29  1  0.94525062  0.23733474  0.82592642  1  0  0.736272  0  3.822432  0  0  0.688602  0  4.116676  0  0  0.725175  0  4.104253  0  0  0.242938  0.663386  0  4.124186  0
C  C30  1  0.44525075  0.23733431  0.67407332  1  0  0.73646  0  3.822327  0  0  0.688693  0  4.116705  0  0  0.725286  0  4.104253  0  0  0.242999  0.663476  0  4.124218  0
C  C31  1  0.05474877  0.76266508  0.17407381  1  0  0.736218  0  3.822394  0  0  0.688549  0  4.116631  0  0  0.725126  0  4.104207  0  0  0.242942  0.663333  0  4.12414  0
C  C32  1  0.60577629  0.89556805  0.35912468  1  0  -0.058776  0  3.716704  0  0  -0.038015  0  3.947249  0  0  -0.044227  0  3.967346  0  0  -0.005565  -0.033928  0  3.934189  0
C  C33  1  0.89422441  0.10443222  0.85912493  1  0  -0.058838  0  3.716761  0  0  -0.038085  0  3.947281  0  0  -0.044312  0  3.967416  0  0  -0.005607  -0.033999  0  3.93422  0
C  C34  1  0.39422460  0.10443177  0.64087478  1  0  -0.058764  0  3.716722  0  0  -0.037983  0  3.94728  0  0  -0.044193  0  3.967368  0  0  -0.005562  -0.033896  0  3.934221  0
C  C35  1  0.10577661  0.89556854  0.14087530  1  0  -0.058834  0  3.716719  0  0  -0.038077  0  3.947244  0  0  -0.044294  0  3.967356  0  0  -0.005569  -0.033993  0  3.934182  0
C  C36  1  0.56084527  0.99528740  0.29534505  1  0  -0.064295  0  3.710472  0  0  -0.086803  0  3.958362  0  0  -0.087677  0  3.979326  0  0  -0.077517  -0.086064  0  3.943994  0
C  C37  1  0.93915553  0.00471284  0.79534523  1  0  -0.064338  0  3.710535  0  0  -0.086853  0  3.958425  0  0  -0.087719  0  3.97939  0  0  -0.077554  -0.086114  0  3.944058  0
C  C38  1  0.43915562  0.00471243  0.70465441  1  0  -0.064328  0  3.710541  0  0  -0.086849  0  3.958429  0  0  -0.087722  0  3.979393  0  0  -0.077556  -0.086109  0  3.944062  0
C  C39  1  0.06084398  0.99528792  0.20465500  1  0  -0.064287  0  3.710451  0  0  -0.086801  0  3.95835  0  0  -0.087673  0  3.979314  0  0  -0.077546  -0.086062  0  3.943982  0
C  C40  1  0.61993076  0.11861943  0.32393038  1  0  -0.07308  0  3.726412  0  0  -0.094733  0  3.975476  0  0  -0.096322  0  3.996497  0  0  -0.081962  -0.093568  0  3.96099  0
C  C41  1  0.88006849  0.88138082  0.82393022  1  0  -0.073073  0  3.726437  0  0  -0.094721  0  3.975503  0  0  -0.096306  0  3.996519  0  0  -0.081938  -0.093556  0  3.961016  0
C  C42  1  0.38006862  0.88138040  0.67606985  1  0  -0.073021  0  3.726384  0  0  -0.094671  0  3.975452  0  0  -0.096261  0  3.996473  0  0  -0.081912  -0.093507  0  3.960965  0
C  C43  1  0.11993089  0.11861900  0.17607001  1  0  -0.07304  0  3.726375  0  0  -0.094699  0  3.975444  0  0  -0.096287  0  3.996464  0  0  -0.081958  -0.093535  0  3.960958  0
C  C44  1  0.72397639  0.14335691  0.41687499  1  0  -0.06813  0  3.73409  0  0  -0.046698  0  3.961997  0  0  -0.053996  0  3.984999  0  0  -0.013642  -0.041355  0  3.94615  0
C  C45  1  0.77602561  0.85664246  0.91687563  1  0  -0.068077  0  3.734084  0  0  -0.046658  0  3.961996  0  0  -0.053958  0  3.984997  0  0  -0.013647  -0.041317  0  3.946147  0
C  C46  1  0.27602450  0.85664291  0.58312446  1  0  -0.068133  0  3.734138  0  0  -0.04673  0  3.962033  0  0  -0.054029  0  3.985035  0  0  -0.013659  -0.041387  0  3.946183  0
C  C47  1  0.22397528  0.14335737  0.08312537  1  0  -0.068159  0  3.734086  0  0  -0.046722  0  3.961979  0  0  -0.054024  0  3.98498  0  0  -0.013625  -0.041382  0  3.94613  0
C  C48  1  0.76645881  0.04352088  0.48102524  1  0  -0.067743  0  3.733928  0  0  -0.088736  0  3.981327  0  0  -0.090047  0  4.003078  0  0  -0.077908  -0.087739  0  3.966373  0
C  C49  1  0.73354159  0.95647853  0.98102517  1  0  -0.067702  0  3.73388  0  0  -0.088699  0  3.98128  0  0  -0.090008  0  4.003028  0  0  -0.077881  -0.0877  0  3.966324  0
C  C50  1  0.23354058  0.95647894  0.51897499  1  0  -0.067634  0  3.733883  0  0  -0.088629  0  3.981289  0  0  -0.089941  0  4.003038  0  0  -0.077871  -0.087631  0  3.966333  0
C  C51  1  0.26646081  0.04352130  0.01897506  1  0  -0.067694  0  3.733797  0  0  -0.088692  0  3.981202  0  0  -0.090003  0  4.002953  0  0  -0.077925  -0.087694  0  3.966246  0
C  C52  1  0.70879064  0.92062029  0.45217640  1  0  -0.066311  0  3.736511  0  0  -0.090964  0  3.991167  0  0  -0.09178  0  4.011079  0  0  -0.074583  -0.090238  0  3.977583  0
C  C53  1  0.79121131  0.07937910  0.95217667  1  0  -0.066252  0  3.736544  0  0  -0.090911  0  3.991211  0  0  -0.091725  0  4.01112  0  0  -0.074567  -0.090179  0  3.977613  0
C  C54  1  0.29121039  0.07938047  0.54782306  1  0  -0.066347  0  3.736526  0  0  -0.09101  0  3.991192  0  0  -0.091826  0  4.011105  0  0  -0.074596  -0.09028  0  3.977601  0
C  C55  1  0.20878958  0.92062072  0.04782432  1  0  -0.066252  0  3.736487  0  0  -0.090903  0  3.991151  0  0  -0.091717  0  4.011064  0  0  -0.074567  -0.090172  0  3.97756  0
C  C56  1  0.28323208  0.45705471  0.36797615  1  0  0.662179  0  3.789105  0  0  0.592838  0  4.100297  0  0  0.628554  0  4.086638  0  0  0.18505  0.568346  0  4.108795  0
C  C57  1  0.21676729  0.54294574  0.86797513  1  0  0.662206  0  3.789021  0  0  0.592887  0  4.100188  0  0  0.628593  0  4.086534  0  0  0.185068  0.5684  0  4.108682  0
C  C58  1  0.71676580  0.54294511  0.63202485  1  0  0.662212  0  3.788991  0  0  0.592901  0  4.100146  0  0  0.628609  0  4.086489  0  0  0.185088  0.568415  0  4.108642  0
C  C59  1  0.78323373  0.45705502  0.13202433  1  0  0.662207  0  3.789086  0  0  0.592877  0  4.100257  0  0  0.628594  0  4.0866  0  0  0.18509  0.568385  0  4.108753  0
O  O60  1  0.76800980  0.36390681  0.38680397  1  0  -0.737299  0  2.025722  0  0  -0.697065  0  2.275865  0  0  -0.723124  0  2.264279  0  0  -0.398112  -0.677494  0  2.283529  0
O  O61  1  0.73199087  0.63609348  0.88680375  1  0  -0.737281  0  2.025747  0  0  -0.697051  0  2.275868  0  0  -0.723113  0  2.264288  0  0  -0.398111  -0.677479  0  2.283529  0
O  O62  1  0.23198958  0.63609301  0.61319626  1  0  -0.737247  0  2.025861  0  0  -0.697046  0  2.27595  0  0  -0.723105  0  2.264366  0  0  -0.398111  -0.677475  0  2.283611  0
O  O63  1  0.26801016  0.36390728  0.11319648  1  0  -0.737342  0  2.025704  0  0  -0.697117  0  2.275843  0  0  -0.723179  0  2.264257  0  0  -0.398141  -0.677545  0  2.283505  0
O  O64  1  0.61165758  0.67502152  0.38415047  1  0  -0.753605  0  2.014991  0  0  -0.712993  0  2.275698  0  0  -0.739402  0  2.261871  0  0  -0.425009  -0.692607  0  2.284266  0
O  O65  1  0.88834145  0.32497782  0.88415082  1  0  -0.753521  0  2.014962  0  0  -0.712921  0  2.275661  0  0  -0.739316  0  2.261832  0  0  -0.424936  -0.692536  0  2.284224  0
O  O66  1  0.38834181  0.32497830  0.61584976  1  0  -0.753627  0  2.014952  0  0  -0.712983  0  2.275672  0  0  -0.739397  0  2.261852  0  0  -0.425001  -0.692597  0  2.284238  0
O  O67  1  0.11165793  0.67502200  0.11584941  1  0  -0.753499  0  2.014936  0  0  -0.712906  0  2.275653  0  0  -0.739297  0  2.2618  0  0  -0.424956  -0.692521  0  2.284216  0
O  O68  1  0.46333107  0.74221255  0.24131679  1  0  -0.698394  0  2.060452  0  0  -0.656438  0  2.315427  0  0  -0.68284  0  2.305605  0  0  -0.37755  -0.637821  0  2.322203  0
O  O69  1  0.03666848  0.25778782  0.74131725  1  0  -0.69828  0  2.06041  0  0  -0.656336  0  2.315362  0  0  -0.682727  0  2.305548  0  0  -0.377496  -0.63772  0  2.322138  0
O  O70  1  0.53666831  0.25778727  0.75868267  1  0  -0.698413  0  2.06043  0  0  -0.656444  0  2.315443  0  0  -0.682845  0  2.30562  0  0  -0.377534  -0.637828  0  2.322219  0
O  O71  1  0.96333090  0.74221200  0.25868298  1  0  -0.698284  0  2.060445  0  0  -0.656342  0  2.315397  0  0  -0.682739  0  2.305583  0  0  -0.377518  -0.637727  0  2.322173  0
O  O72  1  0.21844650  0.51018088  0.28802911  1  0  -0.734179  0  2.117195  0  0  -0.695161  0  2.389373  0  0  -0.721677  0  2.377114  0  0  -0.392366  -0.675598  0  2.39714  0
O  O73  1  0.28155463  0.48982045  0.78802803  1  0  -0.734227  0  2.117222  0  0  -0.695205  0  2.389368  0  0  -0.721714  0  2.37711  0  0  -0.3924  -0.675641  0  2.397128  0
O  O74  1  0.78155466  0.48982082  0.71197189  1  0  -0.734219  0  2.117215  0  0  -0.695207  0  2.389382  0  0  -0.721711  0  2.377107  0  0  -0.392391  -0.675642  0  2.397144  0
O  O75  1  0.71844653  0.51018125  0.21197065  1  0  -0.734195  0  2.117246  0  0  -0.695174  0  2.389396  0  0  -0.72169  0  2.377137  0  0  -0.392388  -0.675612  0  2.397162  0
O  O76  1  0.87855086  0.28747026  0.53715465  1  0  -0.711425  0  2.052276  0  0  -0.671101  0  2.305323  0  0  -0.69705  0  2.294929  0  0  -0.396603  -0.652561  0  2.312513  0
O  O77  1  0.62144867  0.71252888  0.03715508  1  0  -0.711506  0  2.052255  0  0  -0.671162  0  2.305242  0  0  -0.697117  0  2.294847  0  0  -0.396665  -0.652624  0  2.31243  0
O  O78  1  0.12144688  0.71252862  0.46284481  1  0  -0.711474  0  2.052198  0  0  -0.671169  0  2.305175  0  0  -0.697121  0  2.29478  0  0  -0.39666  -0.652629  0  2.312364  0
O  O79  1  0.37855071  0.28747094  0.96284515  1  0  -0.711449  0  2.052321  0  0  -0.671106  0  2.305314  0  0  -0.697055  0  2.294919  0  0  -0.396621  -0.652568  0  2.312502  0
O  O80  1  0.17783806  0.44935057  0.44951432  1  0  -0.749712  0  2.221557  0  0  -0.699426  0  2.482236  0  0  -0.727073  0  2.471045  0  0  -0.413536  -0.679619  0  2.490152  0
O  O81  1  0.32216284  0.55065086  0.94951326  1  0  -0.749711  0  2.221513  0  0  -0.699418  0  2.482172  0  0  -0.727071  0  2.470989  0  0  -0.413526  -0.679609  0  2.490082  0
O  O82  1  0.82216160  0.55065113  0.55048668  1  0  -0.749716  0  2.221478  0  0  -0.699434  0  2.482138  0  0  -0.727084  0  2.470953  0  0  -0.413546  -0.679626  0  2.49005  0
O  O83  1  0.67783819  0.44934990  0.05048543  1  0  -0.74971  0  2.221503  0  0  -0.699422  0  2.482173  0  0  -0.727073  0  2.470985  0  0  -0.41353  -0.679614  0  2.490088  0
