# generated using pymatgen
data_CoH20C28(NO2)2
_symmetry_space_group_name_H-M   'P 1'
_cell_length_a   8.67020220
_cell_length_b   13.16140103
_cell_length_c   14.00451549
_cell_angle_alpha   61.94769966
_cell_angle_beta   84.51062393
_cell_angle_gamma   78.25559234
_symmetry_Int_Tables_number   1
_chemical_formula_structural   CoH20C28(NO2)2
_chemical_formula_sum   'Co2 H40 C56 N4 O8'
_cell_volume   1380.81349514
_cell_formula_units_Z   2
loop_
 _symmetry_equiv_pos_site_id
 _symmetry_equiv_pos_as_xyz
  1  'x, y, z'
loop_
 _atom_site_type_symbol
 _atom_site_label
 _atom_site_symmetry_multiplicity
 _atom_site_fract_x
 _atom_site_fract_y
 _atom_site_fract_z
 _atom_site_occupancy
 _atom_site_pbe_bader_charge
 _atom_site_pbe_bader_spin_density
 _atom_site_pbe_cm5_charge
 _atom_site_pbe_ddec_charge
 _atom_site_pbe_ddec_spin_density
 _atom_site_pbe_ddec_sum_bond_order
 _atom_site_pbe_magmom
Co  Co0  1  0.20796611  0.30327015  0.18277805  1  1.22062  2.571101  0.678212  0.791767  2.817253  2.53008  2.53
Co  Co1  1  0.70798850  0.48634086  0.81690309  1  1.22212  2.57089  0.678316  0.790797  2.817129  2.533134  2.53
H  H2  1  0.46197168  0.01012543  0.82403841  1  0.057561  5.7e-05  0.101105  0.100386  2.5e-05  1.003834  0.0
H  H3  1  0.31550139  0.47094067  0.96342010  1  0.09103  0.001833  0.123994  0.100851  0.000512  0.989141  0.002
H  H4  1  0.56768095  0.19282313  0.75717631  1  0.07592  0.000429  0.10441  0.106507  0.00027  1.022919  0.0
H  H5  1  0.40432388  0.81212061  0.12482699  1  0.091963  5.5e-05  0.103512  0.097191  -1.9e-05  1.003114  0.0
H  H6  1  0.07509202  0.50949363  0.50528670  1  0.082798  0.000974  0.109361  0.115578  0.000448  0.997779  0.0
H  H7  1  0.79400552  0.88887580  0.53371962  1  0.046886  9.4e-05  0.100212  0.098523  1.6e-05  1.013875  0.0
H  H8  1  0.57485077  0.01515004  0.49489567  1  0.06339  0.000995  0.109302  0.1155  0.000448  0.997439  0.0
H  H9  1  0.03878535  0.40864261  0.89092147  1  0.131939  0.002852  0.116449  0.086644  0.001248  1.021405  0.002
H  H10  1  0.06667587  0.94966390  0.24306289  1  0.058189  0.000423  0.104198  0.106003  0.000267  1.02322  0.0
H  H11  1  0.26322745  0.67864109  0.18217535  1  0.066174  0.000769  0.109009  0.113558  0.000353  1.000396  0.0
H  H12  1  0.89755840  0.54545706  0.11707674  1  0.072315  0.000862  0.107154  0.116688  0.000263  1.026948  0.0
H  H13  1  0.19203512  0.95887699  0.39708524  1  0.124677  0.000236  0.101315  0.115181  0.000129  1.04452  0.0
H  H14  1  0.96155050  0.83370054  0.17608944  1  0.048754  5.6e-05  0.101229  0.100144  2.5e-05  1.004852  0.0
H  H15  1  0.69778363  0.38761408  0.23418203  1  0.082053  0.000457  0.098429  0.096515  0.000142  1.039209  0.0
H  H16  1  0.42665783  0.83564233  0.89454259  1  0.064004  -2.1e-05  0.100433  0.097571  -6e-06  1.016653  0.0
H  H17  1  0.02011759  0.09488629  0.84731013  1  0.068376  6e-05  0.105015  0.106656  1.9e-05  0.984787  0.0
H  H18  1  0.81403863  0.43455539  0.03623355  1  0.109886  0.001823  0.123609  0.100047  0.00051  0.989355  0.002
H  H19  1  0.12523304  0.20996793  0.91622514  1  0.098647  0.000402  0.100901  0.098369  0.000137  1.04851  0.0
H  H20  1  0.53888820  0.29956769  0.10903433  1  0.122789  0.002909  0.116502  0.086662  0.00125  1.021908  0.002
H  H21  1  0.39890154  0.66268381  0.88292304  1  0.120379  0.000841  0.106992  0.116475  0.000263  1.027625  0.0
H  H22  1  0.92567049  0.72996080  0.10560490  1  0.056777  -2.3e-05  0.100558  0.097637  -6e-06  1.016015  0.0
H  H23  1  0.80249185  0.19174458  0.18667052  1  0.095835  0.001027  0.112723  0.128532  0.000354  0.99414  0.0
H  H24  1  0.30242560  0.37808049  0.81357628  1  0.0859  0.001036  0.112742  0.128274  0.000355  0.99341  0.0
H  H25  1  0.46745433  0.40312318  0.65906819  1  0.115424  0.000105  0.104867  0.119788  3.8e-05  1.039856  0.0
H  H26  1  0.94558738  0.32210105  0.51428717  1  0.105566  0.000215  0.100127  0.102458  0.000117  1.014608  0.0
H  H27  1  0.44226161  0.41809357  0.32245885  1  0.06728  -5.7e-05  0.095576  0.09454  -0.000159  1.043957  0.0
H  H28  1  0.69239433  0.35726604  0.60245346  1  0.116811  0.000233  0.101568  0.115332  0.000127  1.044545  0.0
H  H29  1  0.62545763  0.12627455  0.08402572  1  0.103289  0.000415  0.10071  0.098728  0.000138  1.048315  0.0
H  H30  1  0.68441388  0.73598716  0.74908672  1  0.130685  0.001648  0.115784  0.090988  0.000516  1.037662  0.001
H  H31  1  0.51974252  0.94246635  0.15284538  1  0.073768  6.1e-05  0.104684  0.105916  1.9e-05  0.985148  0.0
H  H32  1  0.31986090  0.13376625  0.40542705  1  0.129881  0.001804  0.122683  0.100135  0.000444  0.988447  0.002
H  H33  1  0.76316880  0.86114347  0.81769975  1  0.084891  0.000764  0.10922  0.114102  0.000354  1.000221  0.0
H  H34  1  0.96727625  0.06230516  0.34140795  1  0.134893  9.9e-05  0.105084  0.119935  3.5e-05  1.039938  0.0
H  H35  1  0.94199480  0.74026311  0.67753971  1  0.089404  -5.4e-05  0.095684  0.095082  -0.000158  1.044645  0.0
H  H36  1  0.18455350  0.48489226  0.25049037  1  0.137464  0.001642  0.116085  0.091027  0.000519  1.039164  0.001
H  H37  1  0.19745530  0.62166415  0.76603935  1  0.088881  0.000459  0.098159  0.096645  0.000142  1.03852  0.0
H  H38  1  0.29435296  0.42352611  0.46604618  1  0.06304  9.7e-05  0.10008  0.098695  1.4e-05  1.012698  0.0
H  H39  1  0.82009249  0.53900946  0.59450553  1  0.13507  0.0018  0.122836  0.100348  0.00044  0.988798  0.002
H  H40  1  0.44523251  0.83550748  0.48535737  1  0.104396  0.000224  0.100234  0.102718  0.000121  1.013206  0.0
H  H41  1  0.90505743  0.93657214  0.87516216  1  0.071293  5.2e-05  0.103956  0.097848  -1.8e-05  1.002511  0.0
C  C42  1  0.69500449  0.38094435  0.31469279  1  -0.03345  0.000469  -0.09144  -0.095189  6.2e-05  4.004777  0.0
C  C43  1  0.55272622  0.39873026  0.36398153  1  -0.017963  -0.001479  -0.092956  -0.131951  -0.001631  3.963784  -0.001
C  C44  1  0.49998613  0.03365996  0.88186162  1  -0.050581  -0.000592  -0.087999  -0.12959  -0.000705  3.973988  0.0
C  C45  1  0.10227120  0.08745204  0.08384214  1  -0.106829  0.001157  -0.016673  -0.032248  0.000455  3.972622  0.001
C  C46  1  0.33701003  0.72094583  0.63083721  1  -0.059253  0.001161  -0.023987  -0.039178  0.000371  3.992368  0.001
C  C47  1  0.19851837  0.41245654  0.76215523  1  -0.018187  0.006738  -0.077515  -0.166226  0.003164  3.918478  0.005
C  C48  1  0.27861050  0.63581873  0.13073373  1  -0.061295  0.005949  -0.083477  -0.170199  0.002797  3.943886  0.005
C  C49  1  0.48532863  0.96138559  0.99396359  1  -0.015792  0.000238  -0.007456  0.10626  -0.000106  4.050395  0.001
C  C50  1  0.39483070  0.41270688  0.51389203  1  -0.074116  -0.006636  -0.081491  -0.110096  -0.006928  3.972536  -0.004
C  C51  1  0.04765693  0.85879166  0.53199076  1  -0.024276  -0.000523  -0.011964  0.111691  -0.000592  4.038695  0.0
C  C52  1  0.73291843  0.69843699  0.83022981  1  0.407232  -0.004955  0.035234  0.072043  -0.005279  3.978797  -0.003
C  C53  1  0.83399519  0.34447715  0.47289685  1  -0.052788  0.000578  -0.088388  -0.095831  0.000146  3.99746  0.001
C  C54  1  0.53108833  0.99699534  0.06586378  1  -0.034381  -0.002346  -0.082415  -0.121495  -0.002537  3.94644  -0.001
C  C55  1  0.65638128  0.28557066  0.87246611  1  1.516848  -0.002115  0.196179  0.546846  -0.002864  4.196176  -0.004
C  C56  1  0.92546437  0.89002584  0.96254266  1  -0.131915  -0.008267  -0.075442  -0.10191  -0.008607  3.97252  -0.005
C  C57  1  0.15577775  0.15779122  0.12766143  1  1.524187  -0.002084  0.197486  0.549491  -0.002787  4.19382  -0.004
C  C58  1  0.19162752  0.88521956  0.47796497  1  -0.024156  -0.000637  -0.090479  -0.134454  -0.000766  3.935016  0.0
C  C59  1  0.23315839  0.52858356  0.16941133  1  0.472068  -0.004994  0.034994  0.071584  -0.00526  3.979507  -0.003
C  C60  1  0.69197262  0.36416427  0.52173748  1  -0.002502  -0.000673  -0.091562  -0.135495  -0.000799  3.935662  0.0
C  C61  1  0.98531758  0.95493398  0.00619885  1  -0.001785  0.000264  -0.006792  0.108056  -9.4e-05  4.049299  0.001
C  C62  1  0.89839671  0.77898225  0.01929310  1  0.057615  0.002604  -0.091224  -0.13927  0.000919  3.988625  0.002
C  C63  1  0.80441105  0.52936171  0.99024185  1  0.470364  -0.005904  0.0452  0.090511  -0.006087  3.947966  -0.003
C  C64  1  0.86804952  0.02630468  0.39165638  1  -0.029569  0.001869  -0.092256  -0.145533  0.000656  3.962466  0.002
C  C65  1  0.54799172  0.39145768  0.46786039  1  -0.084337  -0.000519  -0.011197  0.111911  -0.000578  4.036972  0.0
C  C66  1  0.89445366  0.92615753  0.48605637  1  -0.116718  -0.006521  -0.081481  -0.109519  -0.00679  3.973524  -0.004
C  C67  1  0.71322577  0.09096725  0.34779472  1  0.049441  -0.008897  0.009376  0.155808  -0.009285  4.019173  -0.006
C  C68  1  0.55117834  0.23630107  0.19465998  1  0.361009  -0.00312  0.04174  0.078639  -0.003544  3.964406  -0.001
C  C69  1  0.42524063  0.85287272  0.03751444  1  -0.076552  -0.008293  -0.075107  -0.100746  -0.008635  3.971889  -0.005
C  C70  1  0.93027959  0.50164847  0.63972271  1  0.449438  -0.004348  0.048737  0.101634  -0.005187  3.946441  -0.002
C  C71  1  0.57292578  0.07635483  0.40886170  1  -0.030804  0.006024  -0.081733  -0.174765  0.002947  3.931195  0.005
C  C72  1  0.99958359  0.91511769  0.11831604  1  -0.054414  -0.000583  -0.088799  -0.130209  -0.000697  3.972348  0.0
C  C73  1  0.19473534  0.69529680  0.68534065  1  -0.056704  0.000465  -0.090723  -0.093681  5.8e-05  4.004335  0.0
C  C74  1  0.05746101  0.98001209  0.15641633  1  0.051012  0.001054  -0.082254  -0.093557  0.000496  3.984286  0.001
C  C75  1  0.83726898  0.35233114  0.36911532  1  -0.076357  0.001168  -0.024254  -0.03789  0.00035  3.990771  0.001
C  C76  1  0.05120208  0.43087492  0.80534391  1  0.414403  -0.003268  0.041586  0.078812  -0.003635  3.964683  -0.001
C  C77  1  0.69846443  0.17475763  0.23800544  1  -0.003587  0.006618  -0.078127  -0.166663  0.003144  3.920219  0.005
C  C78  1  0.30538270  0.51970476  0.00946945  1  0.507206  -0.005903  0.04491  0.08954  -0.006101  3.949242  -0.003
C  C79  1  0.21340950  0.43840237  0.65240438  1  0.019713  -0.009026  0.008699  0.156622  -0.009415  4.017665  -0.006
C  C80  1  0.60284753  0.17139859  0.91635697  1  -0.003663  0.001112  -0.014983  -0.028667  0.000451  3.971456  0.001
C  C81  1  0.85114775  0.59251326  0.03496969  1  0.018143  0.005922  -0.082694  -0.168896  0.002652  3.915744  0.005
C  C82  1  0.48976163  0.64757550  0.68215193  1  1.499164  -0.002232  0.193652  0.544366  -0.00279  4.225262  -0.003
C  C83  1  0.39875194  0.79847448  0.98074820  1  -0.002728  0.002605  -0.091097  -0.139732  0.000914  3.988725  0.002
C  C84  1  0.77841304  0.76682541  0.86905951  1  -0.016248  0.005938  -0.083078  -0.17129  0.002797  3.943576  0.005
C  C85  1  0.33365629  0.81667085  0.52685554  1  -0.046234  0.000568  -0.089058  -0.096173  0.00014  3.997722  0.001
C  C86  1  0.43008360  0.14159496  0.36027146  1  0.463249  -0.004291  0.04967  0.102769  -0.005098  3.945622  -0.002
C  C87  1  0.36831858  0.41774412  0.60858976  1  -0.036136  0.001912  -0.091979  -0.14557  0.000677  3.962669  0.002
C  C88  1  0.08936717  0.12750123  0.97243192  1  -0.020788  0.00081  -0.079852  -0.075187  0.000263  3.963101  0.001
C  C89  1  0.35206772  0.62763957  0.96488775  1  -0.045526  0.005984  -0.082303  -0.1681  0.002664  3.918747  0.005
C  C90  1  0.07315447  0.48479231  0.59127612  1  -0.047157  0.006078  -0.08106  -0.175051  0.002966  3.930776  0.005
C  C91  1  0.34266620  0.68852219  0.02588711  1  -0.065421  -0.00998  0.006778  0.150954  -0.010373  4.025153  -0.007
C  C92  1  0.55815656  0.13654976  0.84379381  1  -0.043021  0.001083  -0.083824  -0.095897  0.000488  3.988698  0.001
C  C93  1  0.05244380  0.76232615  0.63597563  1  -0.044418  -0.001433  -0.093136  -0.13359  -0.001588  3.96707  -0.001
C  C94  1  0.58960036  0.10007405  0.02777913  1  -0.06413  0.000808  -0.080113  -0.077539  0.000255  3.963207  0.001
C  C95  1  0.03116785  0.06244769  0.93431488  1  -0.029241  -0.002355  -0.083853  -0.124948  -0.00255  3.946181  -0.001
C  C96  1  0.84224906  0.71440639  0.97398420  1  -0.068639  -0.009944  0.006919  0.152076  -0.010345  4.023655  -0.006
C  C97  1  0.99011874  0.33011627  0.31794552  1  1.511446  -0.002208  0.193417  0.544156  -0.002733  4.227256  -0.003
N  N98  1  0.91812496  0.47451992  0.74572458  1  -1.239016  0.074125  -0.345113  -0.255248  0.039646  3.647838  0.053
N  N99  1  0.24761800  0.46900080  0.11105612  1  -1.241167  0.061734  -0.347027  -0.272359  0.033329  3.650423  0.047
N  N100  1  0.74708386  0.58047551  0.88853049  1  -1.222021  0.061543  -0.346834  -0.272388  0.033199  3.651621  0.047
N  N101  1  0.41802260  0.22030186  0.25419358  1  -1.231937  0.074102  -0.344884  -0.255317  0.039602  3.646579  0.053
O  O102  1  0.61990256  0.67609839  0.64011532  1  -1.168988  0.039962  -0.324696  -0.56673  0.020188  2.131731  0.034
O  O103  1  0.66992859  0.34642826  0.77117680  1  -1.156256  0.062304  -0.301346  -0.534644  0.031248  2.236295  0.055
O  O104  1  0.48354452  0.55369493  0.77289772  1  -1.141112  0.103555  -0.323321  -0.540675  0.053747  2.328936  0.084
O  O105  1  0.16935860  0.11738536  0.22893155  1  -1.163225  0.062107  -0.301334  -0.535991  0.031137  2.236212  0.055
O  O106  1  0.12011410  0.31653499  0.36013386  1  -1.170006  0.039006  -0.324922  -0.567179  0.01969  2.131922  0.033
O  O107  1  0.98398211  0.32687705  0.22727037  1  -1.131909  0.103632  -0.323014  -0.540659  0.053752  2.33122  0.084
O  O108  1  0.68338865  0.32504095  0.93737568  1  -1.134983  0.101548  -0.325272  -0.541127  0.052442  2.212783  0.083
O  O109  1  0.18283956  0.26219926  0.06266103  1  -1.131273  0.101691  -0.325613  -0.541458  0.052499  2.212236  0.083
