# generated using pymatgen
data_CuH4C5IN
_symmetry_space_group_name_H-M   'P 1'
_cell_length_a   4.04523232
_cell_length_b   7.72574944
_cell_length_c   10.07654383
_cell_angle_alpha   87.82857485
_cell_angle_beta   81.07959922
_cell_angle_gamma   79.13390417
_symmetry_Int_Tables_number   1
_chemical_formula_structural   CuH4C5IN
_chemical_formula_sum   'Cu2 H8 C10 I2 N2'
_cell_volume   305.51749733
_cell_formula_units_Z   2
loop_
 _symmetry_equiv_pos_site_id
 _symmetry_equiv_pos_as_xyz
  1  'x, y, z'
loop_
 _atom_site_type_symbol
 _atom_site_label
 _atom_site_symmetry_multiplicity
 _atom_site_fract_x
 _atom_site_fract_y
 _atom_site_fract_z
 _atom_site_occupancy
 _atom_site_hle17_bader_spin_density
 _atom_site_hle17_ddec_charge
 _atom_site_hle17_ddec_spin_density
 _atom_site_hle17_ddec_sum_bond_order
 _atom_site_hle17_magmom
 _atom_site_hse06_10hf_bader_spin_density
 _atom_site_hse06_10hf_ddec_charge
 _atom_site_hse06_10hf_ddec_spin_density
 _atom_site_hse06_10hf_ddec_sum_bond_order
 _atom_site_hse06_10hf_magmom
 _atom_site_hse06_bader_spin_density
 _atom_site_hse06_ddec_charge
 _atom_site_hse06_ddec_spin_density
 _atom_site_hse06_ddec_sum_bond_order
 _atom_site_hse06_magmom
 _atom_site_pbe_bader_spin_density
 _atom_site_pbe_cm5_charge
 _atom_site_pbe_ddec_charge
 _atom_site_pbe_ddec_spin_density
 _atom_site_pbe_ddec_sum_bond_order
 _atom_site_pbe_magmom
Cu  Cu0  1  0.28347638  0.01401614  0.91308442  1  0  0.229332  0  2.2385  0  0  0.152989  0  2.723202  0  0  0.165314  0  2.66621  0  0  0.244043  0.146804  0  2.761399  0
Cu  Cu1  1  0.71649992  0.98597831  0.08691068  1  0  0.229414  0  2.238304  0  0  0.152883  0  2.722986  0  0  0.165281  0  2.665977  0  0  0.243936  0.146657  0  2.761177  0
H  H2  1  0.38143656  0.42490920  0.28791071  1  0  0.099963  0  1.002469  0  0  0.111877  0  1.062867  0  0  0.114777  0  1.062445  0  0  0.087154  0.109004  0  1.064558  0
H  H3  1  0.61852339  0.57509039  0.71209052  1  0  0.100048  0  1.002647  0  0  0.111944  0  1.063009  0  0  0.114844  0  1.06259  0  0  0.087184  0.109068  0  1.064697  0
H  H4  1  0.49970080  0.64328063  0.11223241  1  0  0.07819  0  0.951167  0  0  0.082009  0  1.025172  0  0  0.085867  0  1.020889  0  0  0.099921  0.078945  0  1.028625  0
H  H5  1  0.50026666  0.35671894  0.88776825  1  0  0.078181  0  0.95142  0  0  0.082061  0  1.025346  0  0  0.085924  0  1.021053  0  0  0.099941  0.078992  0  1.028807  0
H  H6  1  0.80969927  0.95470094  0.37701691  1  0  0.07148  0  0.944811  0  0  0.078011  0  1.014016  0  0  0.080808  0  1.012055  0  0  0.102966  0.075527  0  1.016161  0
H  H7  1  0.19034150  0.04527586  0.62298348  1  0  0.07136  0  0.94446  0  0  0.077954  0  1.013665  0  0  0.080765  0  1.011688  0  0  0.102912  0.075458  0  1.015799  0
H  H8  1  0.70368629  0.75054008  0.56694425  1  0  0.101425  0  0.975031  0  0  0.109753  0  1.042038  0  0  0.113283  0  1.04055  0  0  0.096888  0.105007  0  1.046651  0
H  H9  1  0.29635391  0.24944937  0.43307090  1  0  0.101562  0  0.975383  0  0  0.109917  0  1.042324  0  0  0.113446  0  1.040833  0  0  0.096981  0.10517  0  1.046936  0
C  C10  1  0.46747395  0.43539901  0.55391216  1  0  0.088185  0  3.753101  0  0  0.100539  0  3.982357  0  0  0.105292  0  4.001635  0  0  0.005509  0.097192  0  3.968506  0
C  C11  1  0.53248658  0.56459169  0.44611797  1  0  0.08807  0  3.75224  0  0  0.100638  0  3.981352  0  0  0.105389  0  4.00063  0  0  0.005462  0.097277  0  3.967518  0
C  C12  1  0.52276465  0.46069944  0.68525526  1  0  -0.147868  0  3.715657  0  0  -0.165501  0  3.956451  0  0  -0.172096  0  3.976793  0  0  -0.091703  -0.161404  0  3.943317  0
C  C13  1  0.47723960  0.53931794  0.31471851  1  0  -0.147748  0  3.714681  0  0  -0.165473  0  3.955486  0  0  -0.172057  0  3.975828  0  0  -0.091707  -0.161381  0  3.942359  0
C  C14  1  0.45811396  0.33820752  0.78535730  1  0  0.132875  0  3.679788  0  0  0.103318  0  3.931584  0  0  0.110528  0  3.946488  0  0  0.036496  0.09799  0  3.922733  0
C  C15  1  0.54191523  0.66182460  0.21464318  1  0  0.13309  0  3.681289  0  0  0.103447  0  3.933004  0  0  0.110647  0  3.947927  0  0  0.036742  0.098129  0  3.92413  0
C  C16  1  0.71238348  0.83524172  0.36270631  1  0  0.114873  0  3.70761  0  0  0.087418  0  3.956754  0  0  0.093334  0  3.974701  0  0  0.033944  0.083336  0  3.94468  0
C  C17  1  0.28767373  0.16478668  0.63728316  1  0  0.114742  0  3.707526  0  0  0.087423  0  3.956711  0  0  0.093333  0  3.97467  0  0  0.033951  0.083365  0  3.944615  0
C  C18  1  0.65239416  0.71918067  0.46843403  1  0  -0.159239  0  3.711999  0  0  -0.177136  0  3.95795  0  0  -0.184003  0  3.978259  0  0  -0.088688  -0.171577  0  3.944906  0
C  C19  1  0.34760915  0.28082720  0.53154889  1  0  -0.159265  0  3.712733  0  0  -0.177189  0  3.958666  0  0  -0.184055  0  3.978971  0  0  -0.088772  -0.171628  0  3.945623  0
I  I20  1  0.10774771  0.20404350  0.13236871  1  0  -0.346421  0  1.778496  0  0  -0.294896  0  2.235832  0  0  -0.311736  0  2.194376  0  0  -0.164944  -0.280669  0  2.266388  0
I  I21  1  0.89224358  0.79595874  0.86762713  1  0  -0.346372  0  1.778566  0  0  -0.294848  0  2.235916  0  0  -0.311685  0  2.194475  0  0  -0.164943  -0.280629  0  2.266481  0
N  N22  1  0.34004682  0.19146609  0.76342740  1  0  -0.262728  0  3.363884  0  0  -0.188595  0  3.644048  0  0  -0.201622  0  3.65476  0  0  -0.361577  -0.18035  0  3.637666  0
N  N23  1  0.65993825  0.80849342  0.23658739  1  0  -0.26315  0  3.365546  0  0  -0.188541  0  3.645158  0  0  -0.201579  0  3.655897  0  0  -0.361695  -0.180286  0  3.638746  0
