# generated using pymatgen
data_AlH5C12SO6F
_symmetry_space_group_name_H-M   'P 1'
_cell_length_a   6.62065983
_cell_length_b   12.91171017
_cell_length_c   17.67957957
_cell_angle_alpha   81.72444556
_cell_angle_beta   81.57394586
_cell_angle_gamma   71.43228348
_symmetry_Int_Tables_number   1
_chemical_formula_structural   AlH5C12SO6F
_chemical_formula_sum   'Al2 H10 C24 S2 O12 F2'
_cell_volume   1409.54435579
_cell_formula_units_Z   2
loop_
 _symmetry_equiv_pos_site_id
 _symmetry_equiv_pos_as_xyz
  1  'x, y, z'
loop_
 _atom_site_type_symbol
 _atom_site_label
 _atom_site_symmetry_multiplicity
 _atom_site_fract_x
 _atom_site_fract_y
 _atom_site_fract_z
 _atom_site_occupancy
 _atom_site_pbe_bader_charge
 _atom_site_pbe_bader_spin_density
 _atom_site_pbe_cm5_charge
 _atom_site_pbe_ddec_charge
 _atom_site_pbe_ddec_spin_density
 _atom_site_pbe_ddec_sum_bond_order
 _atom_site_pbe_magmom
Al  Al0  1  0.49999564  0.49995769  0.50001696  1  2.502236  0  0.39388  1.643488  0  2.589993  0
Al  Al1  1  0.00003191  0.49996129  0.49999511  1  2.503198  0  0.399507  1.646721  0  2.55641  0
H  H2  1  0.30110077  0.37969900  0.56545477  1  0.639392  0  0.353698  0.437516  0  0.84764  0
H  H3  1  0.69910718  0.62013547  0.43446007  1  0.640328  0  0.353506  0.437319  0  0.8478  0
H  H4  1  0.69810007  0.44183505  0.27806595  1  0.126624  0  0.112545  0.123963  0  1.003551  0
H  H5  1  0.77724380  0.44447861  0.13563444  1  0.078206  0  0.10446  0.109308  0  1.003124  0
H  H6  1  0.09710699  0.53144910  0.11782785  1  0.088446  0  0.113242  0.138023  0  0.990118  0
H  H7  1  0.90280211  0.46896189  0.88215650  1  0.108064  0  0.113116  0.137747  0  0.990623  0
H  H8  1  0.30185611  0.55803719  0.72192030  1  0.126538  0  0.112408  0.123811  0  1.003598  0
H  H9  1  0.22274004  0.55544796  0.86435548  1  0.091005  0  0.104315  0.109329  0  1.003289  0
H  H10  1  0.50756035  0.88607537  0.45647841  1  0.614874  0  0.303167  0.318615  0  0.978519  0
H  H11  1  0.49252468  0.11381762  0.54353826  1  0.61362  0  0.303218  0.318966  0  0.978612  0
C  C12  1  0.87348541  0.30354941  0.50828282  1  1.604937  0  0.257069  0.658965  0  4.154447  0
C  C13  1  0.67690534  0.51499213  0.63600401  1  1.575488  0  0.263068  0.649756  0  4.11248  0
C  C14  1  0.12659339  0.69635507  0.49173336  1  1.605517  0  0.257611  0.659645  0  4.153499  0
C  C15  1  0.32314676  0.48503474  0.36398173  1  1.575508  0  0.26298  0.649542  0  4.112723  0
C  C16  1  0.35869616  0.48250084  0.27873342  1  0.037102  0  -0.020191  -0.155727  0  3.947018  0
C  C17  1  0.56919329  0.45945424  0.24184298  1  0.002125  0  -0.075383  -0.059537  0  3.981406  0
C  C18  1  0.61283636  0.46177063  0.16262518  1  -0.002513  0  -0.089064  -0.148679  0  3.957424  0
C  C19  1  0.44340955  0.48860313  0.11609090  1  0.132403  0  0.005992  0.173254  0  4.127703  0
C  C20  1  0.23176974  0.51027235  0.15181367  1  0.052555  0  -0.095864  -0.26561  0  3.944362  0
C  C21  1  0.19343987  0.50670439  0.23124436  1  0.392031  0  0.110558  0.289146  0  4.044733  0
C  C22  1  0.48335631  0.49602354  0.03501640  1  -0.535563  0  -0.040255  -0.100274  0  4.097753  0
C  C23  1  0.51656564  0.50414294  0.96497530  1  0.176415  0  -0.040198  -0.099901  0  4.097645  0
C  C24  1  0.55652526  0.51154837  0.88390341  1  0.054279  0  0.006336  0.173165  0  4.128247  0
C  C25  1  0.76812086  0.49008428  0.84818909  1  0.032644  0  -0.096081  -0.26556  0  3.945014  0
C  C26  1  0.80646801  0.49358469  0.76874668  1  0.392749  0  0.110922  0.289643  0  4.043956  0
C  C27  1  0.64125914  0.51763660  0.72124765  1  0.038593  0  -0.020208  -0.155679  0  3.946175  0
C  C28  1  0.43076863  0.54052857  0.75813548  1  0.00146  0  -0.075232  -0.059296  0  3.981198  0
C  C29  1  0.38711313  0.53828877  0.83734984  1  -0.015427  0  -0.089186  -0.149026  0  3.957221  0
C  C30  1  0.21712859  0.87766233  0.47664188  1  0.600565  0  0.092837  0.291914  0  4.065981  0
C  C31  1  0.78295521  0.12225217  0.52339247  1  0.600262  0  0.092604  0.292269  0  4.065211  0
C  C32  1  0.07567001  0.81492341  0.49277893  1  -0.083574  0  -0.03186  -0.233616  0  3.894556  0
C  C33  1  0.92442369  0.18498222  0.50724017  1  -0.08283  0  -0.03175  -0.233289  0  3.89471  0
C  C34  1  0.89087697  0.01016115  0.51228216  1  -0.16492  0  -0.036131  -0.130342  0  4.128735  0
C  C35  1  0.10921768  0.98975677  0.48775859  1  -0.105686  0  -0.036419  -0.130495  0  4.129286  0
S  S36  1  0.81452932  0.89250689  0.52302916  1  0.195312  0  0.078611  0.111873  0  2.869675  0
S  S37  1  0.18556081  0.10738834  0.47701307  1  0.195851  0  0.078585  0.111792  0  2.870609  0
O  O38  1  0.67681398  0.35522436  0.52511218  1  -1.263845  0  -0.230841  -0.580483  0  2.368462  0
O  O39  1  0.86911772  0.48951886  0.60420837  1  -1.250981  0  -0.237809  -0.600358  0  2.376833  0
O  O40  1  0.97370481  0.65376461  0.50733308  1  -1.250528  0  -0.239459  -0.580386  0  2.285473  0
O  O41  1  0.49047494  0.46411714  0.39814303  1  -1.245948  0  -0.236056  -0.582729  0  2.324933  0
O  O42  1  0.32329547  0.64466270  0.47487791  1  -1.263589  0  -0.231273  -0.581148  0  2.368843  0
O  O43  1  0.13089052  0.51044009  0.39581148  1  -1.250758  0  -0.237954  -0.600825  0  2.376261  0
O  O44  1  0.02637083  0.34614926  0.49268880  1  -1.249518  0  -0.239423  -0.580523  0  2.285578  0
O  O45  1  0.50956536  0.53582183  0.60182818  1  -1.245564  0  -0.236079  -0.583087  0  2.324386  0
O  O46  1  0.26392631  0.45279374  0.53816477  1  -1.438823  0  -0.447695  -0.995437  0  2.199018  0
O  O47  1  0.73611048  0.54710647  0.46185384  1  -1.439531  0  -0.447612  -0.995502  0  2.199809  0
O  O48  1  0.42723647  0.83535173  0.45258949  1  -1.128974  0  -0.325382  -0.38644  0  2.345737  0
O  O49  1  0.57282602  0.16455514  0.54743151  1  -1.127585  0  -0.325464  -0.387221  0  2.345616  0
F  F50  1  0.98516992  0.52940546  0.26131469  1  -0.625178  0  -0.085637  -0.127153  0  1.379652  0
F  F51  1  0.01466822  0.47098183  0.73865561  1  -0.626992  0  -0.085732  -0.127447  0  1.380562  0
