# generated using pymatgen
data_ZnH14C21(NO3)2
_symmetry_space_group_name_H-M   'P 1'
_cell_length_a   7.59344079
_cell_length_b   9.98691116
_cell_length_c   11.46120676
_cell_angle_alpha   100.78407506
_cell_angle_beta   96.93821034
_cell_angle_gamma   90.39969258
_symmetry_Int_Tables_number   1
_chemical_formula_structural   ZnH14C21(NO3)2
_chemical_formula_sum   'Zn2 H28 C42 N4 O12'
_cell_volume   847.16839322
_cell_formula_units_Z   2
loop_
 _symmetry_equiv_pos_site_id
 _symmetry_equiv_pos_as_xyz
  1  'x, y, z'
loop_
 _atom_site_type_symbol
 _atom_site_label
 _atom_site_symmetry_multiplicity
 _atom_site_fract_x
 _atom_site_fract_y
 _atom_site_fract_z
 _atom_site_occupancy
 _atom_site_hle17_bader_spin_density
 _atom_site_hle17_ddec_charge
 _atom_site_hle17_ddec_spin_density
 _atom_site_hle17_ddec_sum_bond_order
 _atom_site_hle17_magmom
 _atom_site_hse06_10hf_bader_spin_density
 _atom_site_hse06_10hf_ddec_charge
 _atom_site_hse06_10hf_ddec_spin_density
 _atom_site_hse06_10hf_ddec_sum_bond_order
 _atom_site_hse06_10hf_magmom
 _atom_site_hse06_bader_spin_density
 _atom_site_hse06_ddec_charge
 _atom_site_hse06_ddec_spin_density
 _atom_site_hse06_ddec_sum_bond_order
 _atom_site_hse06_magmom
 _atom_site_pbe_bader_spin_density
 _atom_site_pbe_cm5_charge
 _atom_site_pbe_ddec_charge
 _atom_site_pbe_ddec_spin_density
 _atom_site_pbe_ddec_sum_bond_order
 _atom_site_pbe_magmom
Zn  Zn0  1  0.32425934  0.50739140  0.61555232  1  0  1.093443  0  1.735287  0  0  0.900197  0  2.210159  0  0  0.951339  0  2.15006  0  0  0.695994  0.863731  0  2.252106  0
Zn  Zn1  1  0.67574039  0.49260837  0.38444582  1  0  1.093471  0  1.735224  0  0  0.900231  0  2.210102  0  0  0.951376  0  2.150004  0  0  0.69601  0.86376  0  2.252047  0
H  H2  1  0.24299680  0.22899744  0.47651915  1  0  0.307227  0  0.928184  0  0  0.279701  0  0.996529  0  0  0.290472  0  0.988313  0  0  0.309084  0.272056  0  1.002379  0
H  H3  1  0.75700431  0.77100334  0.52347927  1  0  0.307317  0  0.928045  0  0  0.279783  0  0.996402  0  0  0.290553  0  0.988184  0  0  0.309104  0.272137  0  1.002253  0
H  H4  1  0.49755803  0.21049185  0.87521069  1  0  0.090128  0  0.982543  0  0  0.099938  0  1.049181  0  0  0.102635  0  1.047939  0  0  0.10181  0.098026  0  1.049957  0
H  H5  1  0.50244308  0.78950893  0.12478772  1  0  0.090043  0  0.982626  0  0  0.099891  0  1.049242  0  0  0.102587  0  1.048  0  0  0.101793  0.09798  0  1.050017  0
H  H6  1  0.74855731  0.29740841  0.03418079  1  0  0.086319  0  0.972018  0  0  0.097847  0  1.031461  0  0  0.101091  0  1.030073  0  0  0.097164  0.095512  0  1.032707  0
H  H7  1  0.25144251  0.70259339  0.96582031  1  0  0.086313  0  0.972008  0  0  0.09784  0  1.031453  0  0  0.101084  0  1.030064  0  0  0.097144  0.095504  0  1.032703  0
H  H8  1  0.02514249  0.38703217  0.97378535  1  0  0.089132  0  0.983208  0  0  0.098501  0  1.048594  0  0  0.101182  0  1.047395  0  0  0.10112  0.09658  0  1.049595  0
H  H9  1  0.97485870  0.61297064  0.02621690  1  0  0.089128  0  0.983249  0  0  0.098489  0  1.048645  0  0  0.101168  0  1.047449  0  0  0.101127  0.096567  0  1.049646  0
H  H10  1  0.40951725  0.80945468  0.64793564  1  0  0.106235  0  0.94719  0  0  0.112936  0  1.009555  0  0  0.116236  0  1.006452  0  0  0.122346  0.110225  0  1.012169  0
H  H11  1  0.59048518  0.19054609  0.35206463  1  0  0.106212  0  0.947176  0  0  0.112908  0  1.009556  0  0  0.116209  0  1.006453  0  0  0.122339  0.110198  0  1.012171  0
H  H12  1  0.57971344  0.98557537  0.80164143  1  0  0.113469  0  0.972239  0  0  0.11839  0  1.042725  0  0  0.12174  0  1.0419  0  0  0.104947  0.116413  0  1.042761  0
H  H13  1  0.42028756  0.01442337  0.19835925  1  0  0.113457  0  0.972242  0  0  0.118376  0  1.042735  0  0  0.121726  0  1.04191  0  0  0.104942  0.1164  0  1.042768  0
H  H14  1  0.70579212  0.66815728  0.00947492  1  0  0.121254  0  0.994999  0  0  0.129527  0  1.056493  0  0  0.133596  0  1.054137  0  0  0.108006  0.126259  0  1.058771  0
H  H15  1  0.29420481  0.33183944  0.99052423  1  0  0.121254  0  0.994953  0  0  0.129498  0  1.05648  0  0  0.133583  0  1.054103  0  0  0.107968  0.126228  0  1.058764  0
H  H16  1  0.52572926  0.50977528  0.84936122  1  0  0.082597  0  0.982085  0  0  0.090028  0  1.04784  0  0  0.091362  0  1.047862  0  0  0.114331  0.089295  0  1.047593  0
H  H17  1  0.47426905  0.49022245  0.15063734  1  0  0.082631  0  0.982074  0  0  0.090047  0  1.047843  0  0  0.091381  0  1.047864  0  0  0.114341  0.089314  0  1.047596  0
H  H18  1  0.77943709  0.04641549  0.99295514  1  0  0.089598  0  0.966449  0  0  0.1005  0  1.031055  0  0  0.102729  0  1.031167  0  0  0.100149  0.098984  0  1.030761  0
H  H19  1  0.22056254  0.95358223  0.00704702  1  0  0.089597  0  0.966425  0  0  0.1005  0  1.031028  0  0  0.10273  0  1.031139  0  0  0.100156  0.098976  0  1.030747  0
H  H20  1  0.80893342  0.81795388  0.14235586  1  0  0.103863  0  0.979541  0  0  0.111859  0  1.04545  0  0  0.114782  0  1.044107  0  0  0.106898  0.109695  0  1.046598  0
H  H21  1  0.19106631  0.18204588  0.85764489  1  0  0.103799  0  0.979608  0  0  0.111833  0  1.045484  0  0  0.114755  0  1.044146  0  0  0.106909  0.109666  0  1.046635  0
H  H22  1  0.20903621  0.99808929  0.47849086  1  0  0.115147  0  0.943035  0  0  0.117354  0  1.011914  0  0  0.121518  0  1.007597  0  0  0.130598  0.114202  0  1.015125  0
H  H23  1  0.79096352  0.00191047  0.52150989  1  0  0.115151  0  0.943061  0  0  0.117353  0  1.011942  0  0  0.121518  0  1.007623  0  0  0.130607  0.114203  0  1.015151  0
H  H24  1  0.00290138  0.84901292  0.31743401  1  0  0.1203  0  0.965091  0  0  0.126432  0  1.02831  0  0  0.129198  0  1.028391  0  0  0.11347  0.124408  0  1.028621  0
H  H25  1  0.99709839  0.15098786  0.68256866  1  0  0.120324  0  0.965084  0  0  0.126437  0  1.028323  0  0  0.129204  0  1.028404  0  0  0.113487  0.124416  0  1.028634  0
H  H26  1  0.89409341  0.20396323  0.15688636  1  0  0.106044  0  0.961905  0  0  0.117604  0  1.019282  0  0  0.120234  0  1.019469  0  0  0.109419  0.115573  0  1.019604  0
H  H27  1  0.10590755  0.79603449  0.84311154  1  0  0.106057  0  0.961912  0  0  0.117637  0  1.01926  0  0  0.120267  0  1.019447  0  0  0.109432  0.115608  0  1.019582  0
H  H28  1  0.08938783  0.34047280  0.33150326  1  0  0.115814  0  0.953067  0  0  0.120126  0  1.017282  0  0  0.123436  0  1.014441  0  0  0.129421  0.117576  0  1.019595  0
H  H29  1  0.91061313  0.65952493  0.66849377  1  0  0.115785  0  0.953054  0  0  0.120104  0  1.017265  0  0  0.123413  0  1.014425  0  0  0.129404  0.117554  0  1.019581  0
C  C30  1  0.91434219  0.37960454  0.79154473  1  0  -0.0967  0  3.734707  0  0  -0.080278  0  3.970592  0  0  -0.087929  0  3.991277  0  0  -0.021055  -0.075758  0  3.957356  0
C  C31  1  0.08565896  0.62039725  0.20845648  1  0  -0.096775  0  3.734851  0  0  -0.080417  0  3.970753  0  0  -0.088063  0  3.991437  0  0  -0.021101  -0.075895  0  3.957516  0
C  C32  1  0.76388649  0.34583049  0.70542683  1  0  -0.052174  0  3.664614  0  0  -0.048152  0  3.901391  0  0  -0.047584  0  3.917597  0  0  0.002046  -0.048242  0  3.890716  0
C  C33  1  0.23611206  0.65417234  0.29457346  1  0  -0.052171  0  3.664813  0  0  -0.048031  0  3.901431  0  0  -0.047473  0  3.917652  0  0  0.002084  -0.048121  0  3.890757  0
C  C34  1  0.61633545  0.28019902  0.73671048  1  0  -0.093233  0  3.742303  0  0  -0.077296  0  3.980304  0  0  -0.084271  0  3.999778  0  0  -0.014662  -0.073289  0  3.967307  0
C  C35  1  0.38366442  0.71980380  0.26329079  1  0  -0.093175  0  3.742069  0  0  -0.077296  0  3.980039  0  0  -0.084268  0  3.999517  0  0  -0.014688  -0.073289  0  3.967043  0
C  C36  1  0.61451119  0.25977232  0.85389185  1  0  -0.0639  0  3.755792  0  0  -0.08923  0  4.007418  0  0  -0.086491  0  4.023605  0  0  -0.084136  -0.090223  0  3.994972  0
C  C37  1  0.38549002  0.74023050  0.14610778  1  0  -0.063792  0  3.755641  0  0  -0.089165  0  4.007284  0  0  -0.086426  0  4.023471  0  0  -0.084098  -0.090159  0  3.994839  0
C  C38  1  0.75648817  0.30475308  0.94137174  1  0  -0.083145  0  3.783323  0  0  -0.096301  0  4.039831  0  0  -0.098929  0  4.057845  0  0  -0.099139  -0.094778  0  4.027179  0
C  C39  1  0.24351170  0.69524975  0.05862953  1  0  -0.083213  0  3.783286  0  0  -0.096369  0  4.039811  0  0  -0.098997  0  4.057824  0  0  -0.099136  -0.094846  0  4.027157  0
C  C40  1  0.90800544  0.35940765  0.90873314  1  0  -0.064269  0  3.759084  0  0  -0.089839  0  4.011635  0  0  -0.088134  0  4.030259  0  0  -0.085753  -0.090531  0  3.999035  0
C  C41  1  0.09199438  0.64059415  0.09126795  1  0  -0.064172  0  3.759075  0  0  -0.089725  0  4.011609  0  0  -0.088019  0  4.03023  0  0  -0.085734  -0.090416  0  3.999008  0
C  C42  1  0.08950898  0.42594018  0.76072471  1  0  0.630158  0  3.931119  0  0  0.581085  0  4.223433  0  0  0.615133  0  4.216406  0  0  0.198114  0.557852  0  4.227624  0
C  C43  1  0.91048947  0.57406062  0.23927349  1  0  0.630267  0  3.931003  0  0  0.581193  0  4.22332  0  0  0.61524  0  4.216292  0  0  0.198195  0.557959  0  4.227514  0
C  C44  1  0.76098996  0.36361105  0.57717961  1  0  0.667552  0  3.929061  0  0  0.609829  0  4.239646  0  0  0.644599  0  4.229588  0  0  0.203205  0.586001  0  4.245625  0
C  C45  1  0.23900996  0.63639279  0.42281921  1  0  0.667468  0  3.929095  0  0  0.609741  0  4.239628  0  0  0.644512  0  4.229572  0  0  0.203161  0.585913  0  4.24561  0
C  C46  1  0.45803096  0.22621661  0.64798030  1  0  0.668709  0  3.874947  0  0  0.612723  0  4.179183  0  0  0.646374  0  4.171122  0  0  0.21454  0.589715  0  4.184127  0
C  C47  1  0.54197167  0.77378824  0.35202066  1  0  0.66849  0  3.875306  0  0  0.612585  0  4.179438  0  0  0.646233  0  4.171382  0  0  0.214453  0.589578  0  4.184384  0
C  C48  1  0.47888461  0.78347962  0.72938010  1  0  0.138438  0  3.6639  0  0  0.103238  0  3.920494  0  0  0.112175  0  3.93634  0  0  0.048071  0.097512  0  3.910068  0
C  C49  1  0.52111512  0.21652014  0.27062065  1  0  0.138597  0  3.663779  0  0  0.103373  0  3.920392  0  0  0.112318  0  3.936241  0  0  0.048145  0.097645  0  3.909966  0
C  C50  1  0.57463981  0.88119458  0.81692106  1  0  -0.167806  0  3.683621  0  0  -0.185605  0  3.933913  0  0  -0.194631  0  3.955885  0  0  -0.083716  -0.179725  0  3.918737  0
C  C51  1  0.42535859  0.11880519  0.18307958  1  0  -0.167916  0  3.68371  0  0  -0.185716  0  3.934019  0  0  -0.194743  0  3.955989  0  0  -0.083767  -0.179838  0  3.918844  0
C  C52  1  0.66118403  0.84443312  0.92155641  1  0  0.130479  0  3.796539  0  0  0.146303  0  4.023926  0  0  0.152227  0  4.046682  0  0  0.005725  0.142463  0  4.008377  0
C  C53  1  0.33881693  0.15556460  0.07844498  1  0  0.130514  0  3.796544  0  0  0.146333  0  4.02392  0  0  0.152254  0  4.046683  0  0  0.005762  0.142493  0  4.008368  0
C  C54  1  0.64530290  0.70635546  0.93125974  1  0  -0.172273  0  3.679499  0  0  -0.185428  0  3.919042  0  0  -0.19553  0  3.941567  0  0  -0.084067  -0.178815  0  3.904521  0
C  C55  1  0.35469673  0.29364226  0.06873980  1  0  -0.172207  0  3.679428  0  0  -0.185319  0  3.918933  0  0  -0.195428  0  3.941447  0  0  -0.084013  -0.178707  0  3.904411  0
C  C56  1  0.54579690  0.61531358  0.84129858  1  0  0.135479  0  3.704613  0  0  0.101622  0  3.957494  0  0  0.108959  0  3.977384  0  0  0.043911  0.096569  0  3.944129  0
C  C57  1  0.45420146  0.38468517  0.15870015  1  0  0.135332  0  3.70454  0  0  0.101472  0  3.957421  0  0  0.108815  0  3.977316  0  0  0.043822  0.096418  0  3.944055  0
C  C58  1  0.76106473  0.94580186  0.01504163  1  0  -0.094733  0  3.687787  0  0  -0.113653  0  3.936236  0  0  -0.116971  0  3.957103  0  0  -0.077735  -0.111339  0  3.921901  0
C  C59  1  0.23893362  0.05419689  0.98495885  1  0  -0.094672  0  3.687689  0  0  -0.113581  0  3.936135  0  0  -0.116902  0  3.957011  0  0  -0.07769  -0.111261  0  3.921802  0
C  C60  1  0.82911970  0.91973152  0.12302709  1  0  -0.093221  0  3.683155  0  0  -0.114419  0  3.935406  0  0  -0.117322  0  3.954808  0  0  -0.074188  -0.112444  0  3.922361  0
C  C61  1  0.17087860  0.08026620  0.87697583  1  0  -0.093263  0  3.68321  0  0  -0.114501  0  3.935463  0  0  -0.117406  0  3.954867  0  0  -0.074285  -0.112524  0  3.922411  0
C  C62  1  0.13372971  0.03615155  0.40497560  1  0  0.152919  0  3.604968  0  0  0.110427  0  3.863124  0  0  0.120055  0  3.87656  0  0  0.073054  0.104316  0  3.854275  0
C  C63  1  0.86627134  0.96384821  0.59502526  1  0  0.15289  0  3.605027  0  0  0.11041  0  3.863171  0  0  0.120037  0  3.876609  0  0  0.073043  0.104299  0  3.854322  0
C  C64  1  0.02147531  0.95612408  0.31466218  1  0  -0.13892  0  3.648616  0  0  -0.157473  0  3.900291  0  0  -0.166894  0  3.921749  0  0  -0.065464  -0.151735  0  3.886329  0
C  C65  1  0.97852314  0.04387671  0.68533864  1  0  -0.13897  0  3.648505  0  0  -0.157553  0  3.900245  0  0  -0.166975  0  3.921702  0  0  -0.065486  -0.151817  0  3.886284  0
C  C66  1  0.93533177  0.01216189  0.21976481  1  0  0.15706  0  3.749283  0  0  0.170257  0  3.979286  0  0  0.177775  0  3.999854  0  0  0.02359  0.16538  0  3.965395  0
C  C67  1  0.06466796  0.98783787  0.78023594  1  0  0.157165  0  3.749142  0  0  0.170387  0  3.979131  0  0  0.177908  0  3.999696  0  0  0.023624  0.16551  0  3.965241  0
C  C68  1  0.96017752  0.15321323  0.22534688  1  0  -0.157295  0  3.671681  0  0  -0.173428  0  3.920589  0  0  -0.183158  0  3.94189  0  0  -0.072729  -0.16717  0  3.906684  0
C  C69  1  0.03982083  0.84678552  0.77465359  1  0  -0.15734  0  3.671678  0  0  -0.173475  0  3.920553  0  0  -0.183205  0  3.941852  0  0  -0.07273  -0.167217  0  3.90665  0
C  C70  1  0.06858981  0.23046591  0.32009693  1  0  0.163118  0  3.602556  0  0  0.120411  0  3.860433  0  0  0.13052  0  3.87408  0  0  0.07082  0.113847  0  3.851481  0
C  C71  1  0.93141125  0.76953385  0.67990219  1  0  0.163133  0  3.602488  0  0  0.120401  0  3.86035  0  0  0.13051  0  3.874001  0  0  0.070815  0.113837  0  3.851402  0
N  N72  1  0.46397179  0.65180426  0.74100520  1  0  -0.3462  0  3.305715  0  0  -0.261353  0  3.597721  0  0  -0.281753  0  3.609408  0  0  -0.328837  -0.24764  0  3.590088  0
N  N73  1  0.53602789  0.34819448  0.25899451  1  0  -0.346197  0  3.305496  0  0  -0.261312  0  3.597475  0  0  -0.281731  0  3.609178  0  0  -0.328802  -0.247595  0  3.589835  0
N  N74  1  0.15450604  0.17010282  0.40522546  1  0  -0.20627  0  3.443096  0  0  -0.13171  0  3.667752  0  0  -0.147868  0  3.682516  0  0  -0.332766  -0.121247  0  3.657983  0
N  N75  1  0.84549232  0.82989593  0.59477239  1  0  -0.206345  0  3.443017  0  0  -0.131741  0  3.667623  0  0  -0.147898  0  3.682388  0  0  -0.332783  -0.121278  0  3.657857  0
O  O76  1  0.22916122  0.40772994  0.82599212  1  0  -0.617616  0  1.956345  0  0  -0.568476  0  2.186835  0  0  -0.592202  0  2.179661  0  0  -0.3169  -0.551772  0  2.191283  0
O  O77  1  0.77084102  0.59226675  0.17400833  1  0  -0.617622  0  1.956327  0  0  -0.568474  0  2.186797  0  0  -0.592194  0  2.17962  0  0  -0.316928  -0.551772  0  2.191247  0
O  O78  1  0.08455329  0.47920470  0.66601914  1  0  -0.63634  0  2.062228  0  0  -0.558798  0  2.324676  0  0  -0.587835  0  2.31026  0  0  -0.317012  -0.538322  0  2.333902  0
O  O79  1  0.91544648  0.52079608  0.33398091  1  0  -0.636463  0  2.062229  0  0  -0.558898  0  2.324659  0  0  -0.587937  0  2.310245  0  0  -0.317052  -0.538422  0  2.333886  0
O  O80  1  0.70367284  0.47916133  0.55494929  1  0  -0.654271  0  2.055482  0  0  -0.58021  0  2.33979  0  0  -0.609906  0  2.322878  0  0  -0.327139  -0.559119  0  2.350728  0
O  O81  1  0.29632703  0.52084149  0.44505110  1  0  -0.654221  0  2.055453  0  0  -0.580167  0  2.339762  0  0  -0.609873  0  2.322873  0  0  -0.327087  -0.559077  0  2.350704  0
O  O82  1  0.80290397  0.26567776  0.50202786  1  0  -0.601524  0  1.905031  0  0  -0.552722  0  2.126768  0  0  -0.577079  0  2.120062  0  0  -0.310415  -0.534847  0  2.130592  0
O  O83  1  0.19709463  0.73432609  0.49797260  1  0  -0.601501  0  1.904996  0  0  -0.552727  0  2.126746  0  0  -0.577082  0  2.12004  0  0  -0.31043  -0.534841  0  2.130556  0
O  O84  1  0.38785386  0.30790345  0.57935575  1  0  -0.668255  0  2.112618  0  0  -0.584293  0  2.377185  0  0  -0.614633  0  2.362853  0  0  -0.324689  -0.562846  0  2.386577  0
O  O85  1  0.61214715  0.69209529  0.42064232  1  0  -0.668175  0  2.11254  0  0  -0.584315  0  2.377159  0  0  -0.614654  0  2.362827  0  0  -0.324682  -0.562865  0  2.386549  0
O  O86  1  0.40228833  0.10762905  0.64285046  1  0  -0.57634  0  1.870558  0  0  -0.52818  0  2.083158  0  0  -0.550252  0  2.076495  0  0  -0.307444  -0.512358  0  2.087291  0
O  O87  1  0.59770988  0.89236664  0.35714863  1  0  -0.576201  0  1.871001  0  0  -0.528035  0  2.083526  0  0  -0.550102  0  2.076864  0  0  -0.307359  -0.512214  0  2.087662  0
