# generated using pymatgen
data_CuH28C22S2BrO4
_symmetry_space_group_name_H-M   'P 1'
_cell_length_a   11.33314099
_cell_length_b   11.35954612
_cell_length_c   24.34060669
_cell_angle_alpha   85.50086206
_cell_angle_beta   82.07439136
_cell_angle_gamma   66.16248878
_symmetry_Int_Tables_number   1
_chemical_formula_structural   CuH28C22S2BrO4
_chemical_formula_sum   'Cu4 H112 C88 S8 Br4 O16'
_cell_volume   2838.01161446
_cell_formula_units_Z   4
loop_
 _symmetry_equiv_pos_site_id
 _symmetry_equiv_pos_as_xyz
  1  'x, y, z'
loop_
 _atom_site_type_symbol
 _atom_site_label
 _atom_site_symmetry_multiplicity
 _atom_site_fract_x
 _atom_site_fract_y
 _atom_site_fract_z
 _atom_site_occupancy
 _atom_site_pbe_bader_charge
 _atom_site_pbe_bader_spin_density
 _atom_site_pbe_cm5_charge
 _atom_site_pbe_ddec_charge
 _atom_site_pbe_ddec_spin_density
 _atom_site_pbe_ddec_sum_bond_order
 _atom_site_pbe_magmom
Cu  Cu0  1  0.52303339  0.09344201  0.52360807  1  0.43745  0  0.263194  0.113005  0  2.778864  0
Cu  Cu1  1  0.47696976  0.90655394  0.47639150  1  0.437605  0  0.263193  0.113032  0  2.778831  0
Cu  Cu2  1  0.91121049  0.97147668  0.97653600  1  0.434007  0  0.262923  0.113731  0  2.779867  0
Cu  Cu3  1  0.08879046  0.02852696  0.02346218  1  0.434261  0  0.262917  0.113751  0  2.779826  0
H  H4  1  0.07423627  0.60225424  0.45366091  1  0.06504  0  0.107962  0.081983  0  0.986227  0
H  H5  1  0.92576448  0.39774558  0.54634154  1  0.06502  0  0.107961  0.081999  0  0.986222  0
H  H6  1  0.92863726  0.74564838  0.45577649  1  0.035434  0  0.102099  0.069772  0  1.011762  0
H  H7  1  0.07136587  0.25435431  0.54422323  1  0.035401  0  0.102104  0.069766  0  1.011792  0
H  H8  1  0.88682493  0.63313441  0.53481338  1  0.086099  0  0.098715  0.07459  0  1.013758  0
H  H9  1  0.11317400  0.36686540  0.46518591  1  0.086201  0  0.098681  0.07455  0  1.013853  0
H  H10  1  0.94531341  0.73746801  0.56255732  1  0.071504  0  0.103911  0.077755  0  0.994118  0
H  H11  1  0.05468031  0.26253373  0.43744306  1  0.071523  0  0.103894  0.077725  0  0.994085  0
H  H12  1  0.85937050  0.63801277  0.62876473  1  0.059136  0  0.101084  0.117343  0  1.028272  0
H  H13  1  0.14062971  0.36198606  0.37123410  1  0.059105  0  0.101074  0.117295  0  1.028339  0
H  H14  1  0.83170559  0.53311409  0.71889780  1  0.056544  0  0.098398  0.093999  0  1.023244  0
H  H15  1  0.16829195  0.46688474  0.28110121  1  0.056666  0  0.098371  0.093916  0  1.02326  0
H  H16  1  0.00890612  0.32953641  0.74812605  1  0.051414  0  0.096147  0.096124  0  1.017702  0
H  H17  1  0.99108988  0.67045952  0.25187153  1  0.051442  0  0.096128  0.096115  0  1.017689  0
H  H18  1  0.21363817  0.23231259  0.68418341  1  0.080889  0  0.092552  0.091886  0  1.036373  0
H  H19  1  0.78636053  0.76768336  0.31581564  1  0.080925  0  0.092575  0.091948  0  1.036377  0
H  H20  1  0.30565458  0.40151038  0.56268336  1  0.116809  0  0.113563  0.139709  0  0.970016  0
H  H21  1  0.69434731  0.59849331  0.43732010  1  0.116491  0  0.113558  0.139733  0  0.969986  0
H  H22  1  0.25163949  0.28792387  0.54316543  1  0.088089  0  0.084076  0.100701  0  1.061437  0
H  H23  1  0.74836553  0.71208073  0.45683326  1  0.088075  0  0.08408  0.100704  0  1.061415  0
H  H24  1  0.59268905  0.20078657  0.63731978  1  0.099254  0  0.097855  0.117425  0  1.023834  0
H  H25  1  0.40732201  0.79920745  0.36267933  1  0.099223  0  0.097862  0.117418  0  1.023849  0
H  H26  1  0.53076501  0.33029420  0.58903667  1  0.078869  0  0.106021  0.125569  0  0.967173  0
H  H27  1  0.46923915  0.66970367  0.41096193  1  0.078951  0  0.106038  0.125567  0  0.967114  0
H  H28  1  0.38450958  0.32133680  0.70411934  1  0.049146  0  0.090434  0.044825  0  1.028954  0
H  H29  1  0.61549459  0.67866107  0.29587967  1  0.049093  0  0.090408  0.04483  0  1.028918  0
H  H30  1  0.50603529  0.38616953  0.69338714  1  0.041519  0  0.094025  0.057276  0  0.983413  0
H  H31  1  0.49397066  0.61382834  0.30661175  1  0.041572  0  0.094031  0.057239  0  0.983463  0
H  H32  1  0.32394490  0.57980490  0.72500537  1  0.04429  0  0.095871  0.058475  0  0.989108  0
H  H33  1  0.67605888  0.42019394  0.27499404  1  0.044555  0  0.095842  0.058432  0  0.989112  0
H  H34  1  0.19930781  0.52309183  0.71984158  1  0.026159  0  0.090452  0.047178  0  1.019938  0
H  H35  1  0.80069801  0.47690411  0.28015657  1  0.025925  0  0.090435  0.047141  0  1.019974  0
H  H36  1  0.12681137  0.68240481  0.63989307  1  0.052345  0  0.095795  0.064446  0  0.998704  0
H  H37  1  0.87319368  0.31759306  0.36010506  1  0.052329  0  0.095794  0.064487  0  0.998724  0
H  H38  1  0.10753069  0.75278086  0.70551577  1  0.024274  0  0.092592  0.050932  0  0.983168  0
H  H39  1  0.89247346  0.24721700  0.29448243  1  0.024159  0  0.092621  0.051026  0  0.98314  0
H  H40  1  0.14941178  0.95385787  0.66294825  1  0.050168  0  0.091198  0.056253  0  0.97549  0
H  H41  1  0.85059239  0.04614001  0.33705117  1  0.050119  0  0.091202  0.056247  0  0.97557  0
H  H42  1  0.10706325  0.88856356  0.60839206  1  0.028652  0  0.092166  0.0555  0  1.010879  0
H  H43  1  0.89294309  0.11143334  0.39160685  1  0.028431  0  0.092165  0.055481  0  1.010946  0
H  H44  1  0.37582295  0.89796386  0.60357306  1  0.109192  0  0.096956  0.126207  0  1.000151  0
H  H45  1  0.62418185  0.10203691  0.39642703  1  0.109259  0  0.096928  0.126183  0  1.000199  0
H  H46  1  0.24186400  0.03091740  0.58020025  1  0.08847  0  0.094884  0.109071  0  0.997164  0
H  H47  1  0.75813825  0.96907854  0.41979855  1  0.08842  0  0.094865  0.109043  0  0.997139  0
H  H48  1  0.08879210  0.95954650  0.52137068  1  0.089541  0  0.097303  0.107156  0  1.038788  0
H  H49  1  0.91121529  0.04044561  0.47862958  1  0.089618  0  0.09729  0.107135  0  1.038709  0
H  H50  1  0.17382764  0.05561630  0.48911071  1  0.06793  0  0.086333  0.103036  0  1.046772  0
H  H51  1  0.82617593  0.94437871  0.51089174  1  0.067907  0  0.086376  0.103073  0  1.04674  0
H  H52  1  0.22493379  0.05988833  0.39129379  1  0.076527  0  0.088497  0.099852  0  1.044073  0
H  H53  1  0.77507817  0.94010570  0.60870690  1  0.07637  0  0.08852  0.099895  0  1.044101  0
H  H54  1  0.20098771  0.00166695  0.29779029  1  0.042269  0  0.094799  0.093388  0  1.02324  0
H  H55  1  0.79901952  0.99832996  0.70220897  1  0.042217  0  0.094861  0.093528  0  1.023342  0
H  H56  1  0.12493573  0.82556992  0.29033911  1  0.052017  0  0.096854  0.092858  0  1.016039  0
H  H57  1  0.87506758  0.17442799  0.70966406  1  0.051862  0  0.09685  0.092835  0  1.016109  0
H  H58  1  0.07156163  0.71283431  0.37405545  1  0.071739  0  0.096771  0.105249  0  1.073468  0
H  H59  1  0.92844678  0.28715974  0.62594671  1  0.072434  0  0.0968  0.105341  0  1.073457  0
H  H60  1  0.71994006  0.45792981  0.06835614  1  0.063826  0  0.103738  0.077443  0  0.992519  0
H  H61  1  0.28005545  0.54207193  0.93164494  1  0.064131  0  0.103736  0.07746  0  0.992513  0
H  H62  1  0.62263201  0.39125891  0.04114319  1  0.08102  0  0.098162  0.074946  0  1.010576  0
H  H63  1  0.37736184  0.60874476  0.95885875  1  0.081039  0  0.098206  0.075058  0  1.010513  0
H  H64  1  0.75304326  0.41365217  0.96202587  1  0.08137  0  0.101184  0.069524  0  1.014702  0
H  H65  1  0.24694880  0.58635150  0.03797537  1  0.081321  0  0.101189  0.069498  0  1.01473  0
H  H66  1  0.60922571  0.55763833  0.95872635  1  0.067408  0  0.108406  0.082406  0  0.986138  0
H  H67  1  0.39076687  0.44236632  0.04127605  1  0.067477  0  0.108429  0.082409  0  0.986212  0
H  H68  1  0.73534298  0.53710973  0.87913240  1  0.066547  0  0.097259  0.106001  0  1.066401  0
H  H69  1  0.26464808  0.46289202  0.12086980  1  0.066734  0  0.097214  0.105923  0  1.066366  0
H  H70  1  0.86481433  0.57144406  0.79484778  1  0.064231  0  0.093459  0.085661  0  1.054449  0
H  H71  1  0.13517394  0.42855578  0.20515468  1  0.064452  0  0.093501  0.085756  0  1.054416  0
H  H72  1  0.03878873  0.65004907  0.80025943  1  0.051133  0  0.094046  0.093875  0  1.022744  0
H  H73  1  0.96120244  0.34994784  0.19973885  1  0.051095  0  0.094109  0.093865  0  1.022719  0
H  H74  1  0.07777754  0.69849751  0.89317972  1  0.079168  0  0.088873  0.098872  0  1.042374  0
H  H75  1  0.92221503  0.30150036  0.10681883  1  0.079374  0  0.088864  0.098892  0  1.042399  0
H  H76  1  0.05478196  0.67043719  0.99077159  1  0.080668  0  0.087127  0.10377  0  1.045654  0
H  H77  1  0.94521745  0.32956354  0.00922475  1  0.080577  0  0.087117  0.103767  0  1.0457  0
H  H78  1  0.95027786  0.59544108  0.02458977  1  0.089241  0  0.097513  0.10701  0  1.038961  0
H  H79  1  0.04972131  0.40456257  0.97540935  1  0.089295  0  0.097501  0.106986  0  1.038987  0
H  H80  1  0.01315707  0.76166071  0.08058496  1  0.027702  0  0.094352  0.109052  0  0.997085  0
H  H81  1  0.98684042  0.23834485  0.91941255  1  0.027697  0  0.09435  0.10905  0  0.996993  0
H  H82  1  0.87587741  0.90158486  0.10373247  1  0.10205  0  0.096768  0.125572  0  1.000288  0
H  H83  1  0.12412225  0.09841973  0.89626453  1  0.10203  0  0.096755  0.125524  0  1.000382  0
H  H84  1  0.86293740  0.63541362  0.11015571  1  0.05273  0  0.092841  0.057019  0  1.008962  0
H  H85  1  0.13706700  0.36458810  0.88984354  1  0.052726  0  0.092854  0.057047  0  1.008903  0
H  H86  1  0.91750508  0.68975973  0.16418321  1  0.02441  0  0.088584  0.050813  0  0.997453  0
H  H87  1  0.08249444  0.31024968  0.83581484  1  0.02439  0  0.088585  0.050849  0  0.997457  0
H  H88  1  0.70528578  0.65820177  0.20576628  1  0.038514  0  0.091317  0.047592  0  1.010221  0
H  H89  1  0.29471863  0.34179995  0.79423257  1  0.038291  0  0.091295  0.047625  0  1.010233  0
H  H90  1  0.64749455  0.66643755  0.14022498  1  0.05262  0  0.096724  0.066226  0  0.996116  0
H  H91  1  0.35250861  0.33355840  0.85977459  1  0.052593  0  0.0967  0.066219  0  0.99613  0
H  H92  1  0.53045341  0.88094683  0.22538546  1  0.04035  0  0.095703  0.057685  0  0.978423  0
H  H93  1  0.46954690  0.11905391  0.77461082  1  0.040396  0  0.09575  0.057791  0  0.978326  0
H  H94  1  0.47236329  0.75671288  0.22128062  1  0.02822  0  0.091982  0.049753  0  1.024513  0
H  H95  1  0.52764011  0.24328692  0.77871919  1  0.028173  0  0.091956  0.049737  0  1.024531  0
H  H96  1  0.33995785  0.05690601  0.19305594  1  0.03398  0  0.095099  0.057598  0  0.965898  0
H  H97  1  0.66004331  0.94308612  0.80694596  1  0.033856  0  0.095134  0.057632  0  0.9659  0
H  H98  1  0.27392361  0.93688307  0.20547247  1  0.026307  0  0.08983  0.047098  0  1.012414  0
H  H99  1  0.72607613  0.06310807  0.79452710  1  0.02639  0  0.089859  0.047124  0  1.012438  0
H  H100  1  0.30866369  0.05291466  0.08918174  1  0.068538  0  0.106582  0.125973  0  0.96733  0
H  H101  1  0.69133832  0.94708418  0.91081820  1  0.068726  0  0.106583  0.125965  0  0.967396  0
H  H102  1  0.16723681  0.12685009  0.13648247  1  0.109417  0  0.09754  0.116365  0  1.027431  0
H  H103  1  0.83276405  0.87315165  0.86351867  1  0.10952  0  0.097564  0.11635  0  1.027451  0
H  H104  1  0.27697648  0.76059950  0.04596550  1  0.097282  0  0.084027  0.100356  0  1.059507  0
H  H105  1  0.72301534  0.23940031  0.95403508  1  0.097338  0  0.084055  0.100387  0  1.059509  0
H  H106  1  0.38666044  0.81937123  0.06486215  1  0.124277  0  0.113868  0.139956  0  0.968882  0
H  H107  1  0.61333236  0.18063048  0.93513624  1  0.124322  0  0.113852  0.139917  0  0.968868  0
H  H108  1  0.19033387  0.76684446  0.18781201  1  0.069383  0  0.087159  0.079195  0  1.062927  0
H  H109  1  0.80966225  0.23316015  0.81218727  1  0.069144  0  0.087158  0.07916  0  1.062896  0
H  H110  1  0.27435876  0.58607849  0.25614603  1  0.053004  0  0.094474  0.092296  0  1.038376  0
H  H111  1  0.72563685  0.41393192  0.74385594  1  0.053101  0  0.0945  0.092371  0  1.038396  0
H  H112  1  0.48026363  0.39625731  0.22955510  1  0.062258  0  0.103096  0.10315  0  0.987805  0
H  H113  1  0.51973480  0.60375505  0.77044948  1  0.06229  0  0.103068  0.103122  0  0.987785  0
H  H114  1  0.60323124  0.39142354  0.13689335  1  0.092522  0  0.102012  0.117027  0  1.023577  0
H  H115  1  0.39677051  0.60858497  0.86311116  1  0.092365  0  0.102003  0.117026  0  1.023546  0
C  C116  1  0.01511843  0.69013621  0.47701018  1  0.461657  0  -0.066142  0.001632  0  3.893272  0
C  C117  1  0.98487964  0.30986362  0.52299163  1  0.461811  0  -0.066214  0.001443  0  3.893518  0
C  C118  1  0.97263656  0.65558486  0.53513215  1  0.379978  0  -0.070846  -0.012581  0  3.912629  0
C  C119  1  0.02735909  0.34441882  0.46487049  1  0.379776  0  -0.07076  -0.012416  0  3.912716  0
C  C120  1  0.05361001  0.49478060  0.60557916  1  0.386419  0  0.08008  0.192025  0  4.047991  0
C  C121  1  0.94638688  0.50522209  0.39442015  1  0.386475  0  0.080011  0.191942  0  4.048089  0
C  C122  1  0.93789235  0.54983325  0.64078272  1  0.004399  0  -0.116005  -0.231117  0  4.035738  0
C  C123  1  0.06211044  0.45016368  0.35921847  1  0.004255  0  -0.115986  -0.231046  0  4.035741  0
C  C124  1  0.92259328  0.48972992  0.69202222  1  -0.081665  0  -0.100605  -0.074269  0  4.067487  0
C  C125  1  0.07740454  0.51026604  0.30797852  1  -0.081778  0  -0.100603  -0.074226  0  4.067422  0
C  C126  1  0.02104948  0.37622990  0.70811838  1  -0.072707  0  -0.110871  -0.119684  0  4.063839  0
C  C127  1  0.97894717  0.62376894  0.29188069  1  -0.072708  0  -0.110825  -0.119615  0  4.06397  0
C  C128  1  0.13609866  0.32171439  0.67225679  1  -0.000812  0  -0.100169  -0.130678  0  4.013528  0
C  C129  1  0.86390207  0.67827866  0.32774100  1  -0.000728  0  -0.100235  -0.130841  0  4.013773  0
C  C130  1  0.15469231  0.37924831  0.62090618  1  -0.006996  0  -0.021226  0.027461  0  3.961353  0
C  C131  1  0.84530844  0.62074475  0.37909325  1  -0.007099  0  -0.021162  0.027597  0  3.961395  0
C  C132  1  0.27339696  0.32536988  0.57924020  1  -0.129759  0  -0.15211  -0.225535  0  3.913039  0
C  C133  1  0.72660683  0.67462897  0.42075962  1  -0.129389  0  -0.152053  -0.225512  0  3.913002  0
C  C134  1  0.50354303  0.27780407  0.62498375  1  -0.132275  0  -0.151299  -0.219386  0  3.899366  0
C  C135  1  0.49646277  0.72219861  0.37501455  1  -0.132216  0  -0.151292  -0.21928  0  3.899285  0
C  C136  1  0.43420951  0.36723241  0.67286982  1  0.440676  0  -0.073205  0.041503  0  3.941811  0
C  C137  1  0.56579694  0.63276643  0.32712900  1  0.440661  0  -0.073225  0.041436  0  3.941752  0
C  C138  1  0.26308283  0.56663736  0.69613463  1  0.44291  0  -0.073697  -0.004564  0  3.966828  0
C  C139  1  0.73692045  0.43336051  0.30386486  1  0.442694  0  -0.073654  -0.004515  0  3.96682  0
C  C140  1  0.18020389  0.69565555  0.67202243  1  0.465682  0  -0.072969  0.002841  0  3.969968  0
C  C141  1  0.81980283  0.30434039  0.32797608  1  0.465982  0  -0.07301  0.002663  0  3.970013  0
C  C142  1  0.19020006  0.88568136  0.62834816  1  0.453721  0  -0.075278  0.041978  0  3.949967  0
C  C143  1  0.80980410  0.11431651  0.37165085  1  0.45414  0  -0.075308  0.041965  0  3.950025  0
C  C144  1  0.28175882  0.92605581  0.58768403  1  -0.157903  0  -0.154191  -0.218578  0  3.896614  0
C  C145  1  0.71824586  0.07394303  0.41231573  1  -0.157966  0  -0.154132  -0.218506  0  3.896604  0
C  C146  1  0.17053088  0.96012384  0.49154092  1  -0.104952  0  -0.155528  -0.224403  0  3.919427  0
C  C147  1  0.82947419  0.03987405  0.50845926  1  -0.104849  0  -0.155606  -0.224469  0  3.919481  0
C  C148  1  0.16091355  0.92165600  0.43556187  1  -0.034824  0  -0.027922  0.015247  0  3.98295  0
C  C149  1  0.83909013  0.07834092  0.56443885  1  -0.034752  0  -0.028036  0.014995  0  3.98292  0
C  C150  1  0.19019009  0.98457974  0.38723267  1  -0.045953  0  -0.097236  -0.128589  0  4.007027  0
C  C151  1  0.80981882  0.01541527  0.61276902  1  -0.045606  0  -0.097124  -0.128435  0  4.007012  0
C  C152  1  0.17769223  0.95122273  0.33488432  1  -0.039508  0  -0.111614  -0.127287  0  4.07502  0
C  C153  1  0.82231313  0.04877229  0.66511883  1  -0.039466  0  -0.111762  -0.127577  0  4.075393  0
C  C154  1  0.13546031  0.85298881  0.33076658  1  -0.024524  0  -0.096321  -0.066311  0  4.057476  0
C  C155  1  0.86454034  0.14700911  0.66923801  1  -0.024554  0  -0.096314  -0.06625  0  4.05742  0
C  C156  1  0.10493448  0.78868447  0.37830546  1  -0.047335  0  -0.114844  -0.222631  0  4.010444  0
C  C157  1  0.89507249  0.21131534  0.62169452  1  -0.048447  0  -0.114936  -0.222759  0  4.010377  0
C  C158  1  0.11773449  0.82281769  0.43058488  1  0.437769  0  0.082433  0.205176  0  4.021314  0
C  C159  1  0.88227649  0.17717444  0.56941842  1  0.437919  0  0.082591  0.205384  0  4.02111  0
C  C160  1  0.64425036  0.47758953  0.04082165  1  0.405897  0  -0.070762  -0.011446  0  3.910347  0
C  C161  1  0.35574311  0.52241512  0.95918110  1  0.40567  0  -0.070806  -0.011568  0  3.910438  0
C  C162  1  0.69207786  0.50544353  0.98241364  1  0.398463  0  -0.065872  -0.000545  0  3.890834  0
C  C163  1  0.30791421  0.49456016  0.01758925  1  0.398564  0  -0.06593  -0.000542  0  3.891046  0
C  C164  1  0.83324011  0.59858828  0.93463784  1  0.457508  0  0.083186  0.205441  0  4.019357  0
C  C165  1  0.16675335  0.40141636  0.06536368  1  0.45737  0  0.083215  0.205366  0  4.01922  0
C  C166  1  0.81005182  0.57232903  0.88280492  1  -0.050677  0  -0.114938  -0.220963  0  4.007869  0
C  C167  1  0.18993961  0.42767174  0.11719524  1  -0.05066  0  -0.114846  -0.220749  0  4.007718  0
C  C168  1  0.88364475  0.59217573  0.83484730  1  -0.079123  0  -0.097749  -0.06474  0  4.057553  0
C  C169  1  0.11634428  0.40782217  0.16515478  1  -0.079268  0  -0.0978  -0.064998  0  4.057733  0
C  C170  1  0.98095112  0.63610607  0.83789881  1  -0.008809  0  -0.111203  -0.124491  0  4.069201  0
C  C171  1  0.01903787  0.36389856  0.16210178  1  -0.008807  0  -0.111231  -0.124298  0  4.069052  0
C  C172  1  0.00347581  0.66208962  0.88977324  1  -0.081826  0  -0.096839  -0.128102  0  4.009523  0
C  C173  1  0.99651791  0.33790536  0.11022495  1  -0.082655  0  -0.096968  -0.12842  0  4.009576  0
C  C174  1  0.93058798  0.64445355  0.93853063  1  -0.007911  0  -0.027711  0.014233  0  3.981385  0
C  C175  1  0.06940088  0.35554914  0.06146840  1  -0.007495  0  -0.02764  0.014477  0  3.981226  0
C  C176  1  0.95796607  0.66879672  0.99387085  1  -0.116943  0  -0.156317  -0.224882  0  3.91971  0
C  C177  1  0.04203031  0.33120500  0.00612812  1  -0.117135  0  -0.156279  -0.224805  0  3.9197  0
C  C178  1  0.90649415  0.80401593  0.08835195  1  -0.083444  0  -0.154164  -0.217688  0  3.899055  0
C  C179  1  0.09350717  0.19598674  0.91164542  1  -0.082699  0  -0.154104  -0.217482  0  3.89883  0
C  C180  1  0.85661516  0.72293406  0.12956768  1  0.451331  0  -0.075777  0.040644  0  3.951826  0
C  C181  1  0.14338629  0.27707053  0.87043002  1  0.451226  0  -0.075806  0.040514  0  3.951891  0
C  C182  1  0.65540360  0.72496663  0.17265014  1  0.433984  0  -0.074379  0.001571  0  3.9642  0
C  C183  1  0.34460079  0.27503507  0.82734706  1  0.433685  0  -0.074363  0.001588  0  3.964258  0
C  C184  1  0.52169247  0.81394246  0.19705640  1  0.464339  0  -0.074165  -0.005554  0  3.968183  0
C  C185  1  0.47830850  0.18605444  0.80294164  1  0.46487  0  -0.074143  -0.005655  0  3.968411  0
C  C186  1  0.32618100  0.97903567  0.17355222  1  0.459559  0  -0.071604  0.042437  0  3.952907  0
C  C187  1  0.67382181  0.02095452  0.82644842  1  0.459504  0  -0.071632  0.042454  0  3.952986  0
C  C188  1  0.24760645  0.03482291  0.12518585  1  -0.132293  0  -0.151816  -0.219803  0  3.901547  0
C  C189  1  0.75238969  0.96517497  0.87481370  1  -0.132581  0  -0.151874  -0.219811  0  3.901688  0
C  C190  1  0.30601381  0.79206309  0.08170144  1  -0.1478  0  -0.151227  -0.223636  0  3.91019  0
C  C191  1  0.69397952  0.20793961  0.91829852  1  -0.147902  0  -0.151258  -0.223615  0  3.910127  0
C  C192  1  0.34932209  0.68550529  0.12481532  1  -0.022953  0  -0.022034  0.028693  0  3.95592  0
C  C193  1  0.65067225  0.31449933  0.87518449  1  -0.022897  0  -0.022052  0.028595  0  3.955993  0
C  C194  1  0.28137168  0.68457421  0.17699431  1  -0.057506  0  -0.102696  -0.134157  0  4.029657  0
C  C195  1  0.71862279  0.31543235  0.82300665  1  -0.05722  0  -0.102689  -0.134049  0  4.029626  0
C  C196  1  0.32804535  0.58236471  0.21514417  1  -0.029267  0  -0.113659  -0.125017  0  4.075517  0
C  C197  1  0.67195014  0.41764378  0.78485748  1  -0.029473  0  -0.113735  -0.125204  0  4.075519  0
C  C198  1  0.44337670  0.47715406  0.20044028  1  -0.082597  0  -0.099176  -0.07371  0  4.065001  0
C  C199  1  0.55661611  0.52285443  0.79956154  1  -0.082878  0  -0.099102  -0.073585  0  4.06478  0
C  C200  1  0.51343790  0.47435760  0.14811951  1  -0.027011  0  -0.115148  -0.229506  0  4.033039  0
C  C201  1  0.48655977  0.52564993  0.85188285  1  -0.026676  0  -0.115108  -0.229522  0  4.03294  0
C  C202  1  0.46713420  0.57867859  0.11086205  1  0.423379  0  0.080221  0.190241  0  4.045102  0
C  C203  1  0.53286233  0.42132509  0.88914012  1  0.423284  0  0.080133  0.190158  0  4.045134  0
S  S204  1  0.41270355  0.19253950  0.60301164  1  -0.010397  0  -0.036693  0.0664  0  3.170874  0
S  S205  1  0.58729856  0.80746127  0.39698739  1  -0.010495  0  -0.036709  0.066297  0  3.171027  0
S  S206  1  0.31810216  0.85021991  0.52069037  1  0.019352  0  -0.034892  0.089239  0  3.075874  0
S  S207  1  0.68190523  0.14977220  0.47931029  1  0.019019  0  -0.034874  0.08928  0  3.076055  0
S  S208  1  0.84359556  0.82438528  0.02174908  1  0.016241  0  -0.034474  0.089686  0  3.075998  0
S  S209  1  0.15640193  0.17562029  0.97824884  1  0.015521  0  -0.034506  0.089551  0  3.075985  0
S  S210  1  0.16787262  0.93793012  0.10374786  1  -0.008312  0  -0.037986  0.064824  0  3.173827  0
S  S211  1  0.83212477  0.06207353  0.89625097  1  -0.00829  0  -0.037938  0.064865  0  3.173731  0
Br  Br212  1  0.36860105  0.14472432  0.45296720  1  -0.590162  0  -0.279635  -0.430559  0  1.614915  0
Br  Br213  1  0.63140045  0.85527356  0.54703281  1  -0.590143  0  -0.279641  -0.430568  0  1.614917  0
Br  Br214  1  0.84521601  0.14341370  0.04581763  1  -0.587762  0  -0.280515  -0.431087  0  1.614837  0
Br  Br215  1  0.15478398  0.85658130  0.95418301  1  -0.587747  0  -0.280517  -0.43109  0  1.614823  0
O  O216  1  0.08783302  0.76726514  0.47938742  1  -1.074552  0  -0.179393  -0.19013  0  2.561333  0
O  O217  1  0.91216874  0.23273662  0.52061488  1  -1.074328  0  -0.17936  -0.190036  0  2.561259  0
O  O218  1  0.07732308  0.54547342  0.55447766  1  -1.07415  0  -0.178035  -0.185909  0  2.556123  0
O  O219  1  0.92267776  0.45452831  0.44552184  1  -1.074159  0  -0.178027  -0.185933  0  2.556136  0
O  O220  1  0.34303597  0.48480457  0.65245928  1  -1.049309  0  -0.227654  -0.208584  0  2.490206  0
O  O221  1  0.65696909  0.51519330  0.34754008  1  -1.049293  0  -0.227634  -0.208476  0  2.490191  0
O  O222  1  0.26137867  0.75919427  0.64872632  1  -1.053696  0  -0.237822  -0.224579  0  2.485249  0
O  O223  1  0.73862601  0.24080457  0.35127303  1  -1.053704  0  -0.237797  -0.224539  0  2.485205  0
O  O224  1  0.52915083  0.58663681  0.05918503  1  -1.082046  0  -0.17903  -0.187733  0  2.563346  0
O  O225  1  0.47084315  0.41336880  0.94081723  1  -1.082087  0  -0.178986  -0.187684  0  2.563396  0
O  O226  1  0.76811115  0.57977651  0.98389866  1  -1.069366  0  -0.179959  -0.189451  0  2.552854  0
O  O227  1  0.23188703  0.42022523  0.01610224  1  -1.069134  0  -0.179938  -0.189393  0  2.552811  0
O  O228  1  0.72581878  0.79972552  0.14976303  1  -1.053616  0  -0.238686  -0.223658  0  2.484852  0
O  O229  1  0.27418204  0.20027619  0.85023441  1  -1.053524  0  -0.238705  -0.223707  0  2.48476  0
O  O230  1  0.44862234  0.88393914  0.15346102  1  -1.045613  0  -0.226986  -0.20727  0  2.496553  0
O  O231  1  0.55137561  0.11605200  0.84653827  1  -1.045485  0  -0.227022  -0.207331  0  2.496522  0
