# generated using pymatgen
data_ZnH28C24(NO3)2
_symmetry_space_group_name_H-M   'P 1'
_cell_length_a   8.97241926
_cell_length_b   11.27336489
_cell_length_c   12.14915589
_cell_angle_alpha   73.05222824
_cell_angle_beta   68.36392649
_cell_angle_gamma   66.55578685
_symmetry_Int_Tables_number   1
_chemical_formula_structural   ZnH28C24(NO3)2
_chemical_formula_sum   'Zn2 H56 C48 N4 O12'
_cell_volume   1032.78054379
_cell_formula_units_Z   2
loop_
 _symmetry_equiv_pos_site_id
 _symmetry_equiv_pos_as_xyz
  1  'x, y, z'
loop_
 _atom_site_type_symbol
 _atom_site_label
 _atom_site_symmetry_multiplicity
 _atom_site_fract_x
 _atom_site_fract_y
 _atom_site_fract_z
 _atom_site_occupancy
 _atom_site_hle17_bader_spin_density
 _atom_site_hle17_ddec_charge
 _atom_site_hle17_ddec_spin_density
 _atom_site_hle17_ddec_sum_bond_order
 _atom_site_hle17_magmom
 _atom_site_hse06_10hf_bader_spin_density
 _atom_site_hse06_10hf_ddec_charge
 _atom_site_hse06_10hf_ddec_spin_density
 _atom_site_hse06_10hf_ddec_sum_bond_order
 _atom_site_hse06_10hf_magmom
 _atom_site_hse06_bader_spin_density
 _atom_site_hse06_ddec_charge
 _atom_site_hse06_ddec_spin_density
 _atom_site_hse06_ddec_sum_bond_order
 _atom_site_hse06_magmom
 _atom_site_pbe_bader_charge
 _atom_site_pbe_bader_spin_density
 _atom_site_pbe_cm5_charge
 _atom_site_pbe_ddec_charge
 _atom_site_pbe_ddec_spin_density
 _atom_site_pbe_ddec_sum_bond_order
 _atom_site_pbe_magmom
Zn  Zn0  1  0.94854534  0.24996923  0.75002975  1  0  0.998048  0  1.792938  0  0  0.801849  0  2.221663  0  0  0.854116  0  2.170138  0  1.273422  0  0.677781  0.76516  0  2.257132  0
Zn  Zn1  1  0.05145382  0.75003132  0.24997061  1  0  0.998101  0  1.792913  0  0  0.80192  0  2.22162  0  0  0.8542  0  2.170093  0  1.273427  0  0.677794  0.765242  0  2.257094  0
H  H2  1  0.91191219  0.97655300  0.59616643  1  0  0.087191  0  0.972278  0  0  0.096566  0  1.042588  0  0  0.099799  0  1.04004  0  0.048075  0  0.097238  0.094244  0  1.044416  0
H  H3  1  0.48456476  0.52342526  0.90393624  1  0  0.086656  0  0.972579  0  0  0.095604  0  1.043365  0  0  0.098909  0  1.040717  0  0.074988  0  0.096432  0.093202  0  1.045255  0
H  H4  1  0.08808696  0.02344755  0.40383394  1  0  0.087174  0  0.972288  0  0  0.09654  0  1.042607  0  0  0.099775  0  1.04006  0  0.048053  0  0.097236  0.094229  0  1.044425  0
H  H5  1  0.51543645  0.47657431  0.09606263  1  0  0.086685  0  0.972586  0  0  0.095634  0  1.043369  0  0  0.098935  0  1.040723  0  0.074998  0  0.096446  0.093233  0  1.04526  0
H  H6  1  0.03723440  0.82252261  0.46834258  1  0  0.083385  0  0.952668  0  0  0.092734  0  1.026724  0  0  0.0945  0  1.024467  0  0.061195  0  0.105537  0.091486  0  1.02835  0
H  H7  1  0.32811555  0.67748508  0.03169785  1  0  0.081724  0  0.951849  0  0  0.091398  0  1.02576  0  0  0.093189  0  1.023423  0  0.062711  0  0.104357  0.090051  0  1.027553  0
H  H8  1  0.96276687  0.17747696  0.53165744  1  0  0.083398  0  0.952665  0  0  0.092752  0  1.026708  0  0  0.094516  0  1.02445  0  0.061201  0  0.10554  0.091504  0  1.028334  0
H  H9  1  0.67188484  0.32251449  0.96830184  1  0  0.081707  0  0.951825  0  0  0.091373  0  1.025747  0  0  0.093162  0  1.023411  0  0.062715  0  0.104346  0.090024  0  1.02754  0
H  H10  1  0.04323851  0.65935319  0.52700821  1  0  0.090448  0  0.929982  0  0  0.104433  0  0.993349  0  0  0.105658  0  0.992522  0  0.057393  0  0.10967  0.103547  0  0.994026  0
H  H11  1  0.22957860  0.84066530  0.97301084  1  0  0.089907  0  0.930484  0  0  0.103959  0  0.993793  0  0  0.105183  0  0.992973  0  0.076229  0  0.10876  0.103007  0  0.994521  0
H  H12  1  0.95676106  0.34064639  0.47299230  1  0  0.090446  0  0.93  0  0  0.104423  0  0.993376  0  0  0.105647  0  0.992547  0  0.057388  0  0.109666  0.103538  0  0.994054  0
H  H13  1  0.77042184  0.15933427  0.02699001  1  0  0.089912  0  0.930447  0  0  0.103949  0  0.993771  0  0  0.105172  0  0.992952  0  0.076234  0  0.108765  0.102997  0  0.994496  0
H  H14  1  0.81003529  0.97199084  0.40210908  1  0  0.086004  0  0.934108  0  0  0.100738  0  0.99847  0  0  0.101253  0  0.998734  0  0.078824  0  0.11246  0.100286  0  0.998304  0
H  H15  1  0.18416260  0.52803845  0.09794360  1  0  0.086447  0  0.933823  0  0  0.101145  0  0.997771  0  0  0.101667  0  0.998031  0  0.077232  0  0.111909  0.100859  0  0.997265  0
H  H16  1  0.18996469  0.02800972  0.59789046  1  0  0.086033  0  0.934107  0  0  0.100765  0  0.998459  0  0  0.10128  0  0.998723  0  0.078831  0  0.112471  0.100313  0  0.998292  0
H  H17  1  0.81583655  0.47196211  0.90205676  1  0  0.086441  0  0.93381  0  0  0.101144  0  0.997766  0  0  0.101666  0  0.998026  0  0.077225  0  0.111909  0.100858  0  0.997259  0
H  H18  1  0.63605392  0.92086420  0.50328497  1  0  0.060458  0  0.943529  0  0  0.078239  0  1.006855  0  0  0.078452  0  1.007602  0  0.032742  0  0.099915  0.078021  0  1.006444  0
H  H19  1  0.06014072  0.57912878  0.99673759  1  0  0.062172  0  0.943129  0  0  0.079761  0  1.006068  0  0  0.079954  0  1.006833  0  0.042731  0  0.100961  0.079526  0  1.005761  0
H  H20  1  0.36394606  0.07913635  0.49671457  1  0  0.060463  0  0.943542  0  0  0.078244  0  1.006857  0  0  0.078456  0  1.007607  0  0.032745  0  0.099912  0.078024  0  1.006448  0
H  H21  1  0.93985885  0.42087079  0.00326293  1  0  0.062169  0  0.943114  0  0  0.079766  0  1.006055  0  0  0.07996  0  1.006822  0  0.042734  0  0.100959  0.079532  0  1.005747  0
H  H22  1  0.57869265  0.88172771  0.33424324  1  0  0.057976  0  0.936321  0  0  0.073181  0  0.997659  0  0  0.073525  0  0.997441  0  0.044509  0  0.103754  0.072717  0  0.998054  0
H  H23  1  0.79473300  0.61824663  0.16567772  1  0  0.05648  0  0.935984  0  0  0.071986  0  0.997439  0  0  0.072254  0  0.997296  0  0.045902  0  0.103704  0.071548  0  0.997841  0
H  H24  1  0.42130820  0.11827284  0.66575662  1  0  0.057985  0  0.936288  0  0  0.073188  0  0.997632  0  0  0.073533  0  0.997414  0  0.044505  0  0.103757  0.072723  0  0.998027  0
H  H25  1  0.20526740  0.38175294  0.83432197  1  0  0.056463  0  0.935971  0  0  0.071971  0  0.997435  0  0  0.072241  0  0.997293  0  0.045907  0  0.103698  0.071532  0  0.997837  0
H  H26  1  0.59174498  0.04204254  0.30324372  1  0  0.062726  0  0.926136  0  0  0.075729  0  0.992712  0  0  0.075569  0  0.994116  0  0.066367  0  0.100485  0.075521  0  0.992088  0
H  H27  1  0.93711027  0.45795676  0.19674484  1  0  0.062669  0  0.92434  0  0  0.07592  0  0.991271  0  0  0.07576  0  0.992613  0  0.044612  0  0.100447  0.075691  0  0.990721  0
H  H28  1  0.40825459  0.95795703  0.69675680  1  0  0.062715  0  0.926114  0  0  0.075716  0  0.992698  0  0  0.075559  0  0.994101  0  0.066356  0  0.100472  0.075509  0  0.992072  0
H  H29  1  0.06288930  0.54204281  0.80325567  1  0  0.062701  0  0.9243  0  0  0.075939  0  0.991251  0  0  0.075782  0  0.992595  0  0.044619  0  0.100419  0.07571  0  0.9907  0
H  H30  1  0.65724095  0.69768320  0.54436222  1  0  0.070102  0  0.949633  0  0  0.086929  0  1.011799  0  0  0.086309  0  1.014395  0  0.062634  0  0.103973  0.087174  0  1.010375  0
H  H31  1  0.89922273  0.80235589  0.95560231  1  0  0.07074  0  0.949547  0  0  0.087218  0  1.012124  0  0  0.086633  0  1.014656  0  0.063533  0  0.103922  0.087367  0  1.010835  0
H  H32  1  0.34275944  0.30231637  0.45563748  1  0  0.070117  0  0.949648  0  0  0.086932  0  1.011801  0  0  0.086312  0  1.014397  0  0.062625  0  0.10397  0.087176  0  1.010379  0
H  H33  1  0.10077725  0.19764466  0.04439723  1  0  0.070728  0  0.949541  0  0  0.087226  0  1.012099  0  0  0.086636  0  1.014635  0  0.06336  0  0.103927  0.087373  0  1.01081  0
H  H34  1  0.86344502  0.58188668  0.52493610  1  0  0.081426  0  0.926191  0  0  0.097331  0  0.988486  0  0  0.098141  0  0.988062  0  0.059617  0  0.111824  0.096635  0  0.988979  0
H  H35  1  0.97020674  0.91815437  0.97508233  1  0  0.082092  0  0.925555  0  0  0.097782  0  0.988025  0  0  0.098583  0  0.987618  0  0.082234  0  0.111976  0.096993  0  0.988646  0
H  H36  1  0.13655496  0.41811387  0.47506344  1  0  0.081431  0  0.926204  0  0  0.09732  0  0.98849  0  0  0.098129  0  0.988066  0  0.059705  0  0.111816  0.096624  0  0.988983  0
H  H37  1  0.02979411  0.08184618  0.02491754  1  0  0.0821  0  0.92555  0  0  0.097775  0  0.988036  0  0  0.098577  0  0.987629  0  0.082262  0  0.111979  0.096986  0  0.988658  0
H  H38  1  0.67877114  0.97194669  0.07853741  1  0  0.07056  0  0.944236  0  0  0.083344  0  1.011904  0  0  0.083374  0  1.012497  0  0.051327  0  0.10485  0.083358  0  1.01125  0
H  H39  1  0.72931672  0.52798154  0.42141807  1  0  0.071034  0  0.944284  0  0  0.083913  0  1.011823  0  0  0.083944  0  1.01239  0  0.090324  0  0.105294  0.083754  0  1.011618  0
H  H40  1  0.32122802  0.02805387  0.92146295  1  0  0.070579  0  0.94424  0  0  0.083361  0  1.011905  0  0  0.083392  0  1.012501  0  0.051331  0  0.104853  0.083375  0  1.011251  0
H  H41  1  0.27068244  0.47201901  0.57858229  1  0  0.071033  0  0.944308  0  0  0.083926  0  1.011832  0  0  0.083958  0  1.012399  0  0.090323  0  0.105307  0.083766  0  1.011627  0
H  H42  1  0.68981525  0.81118098  0.15751453  1  0  0.054911  0  0.954298  0  0  0.066151  0  1.02352  0  0  0.067377  0  1.021772  0  0.046014  0  0.099555  0.064909  0  1.025327  0
H  H43  1  0.65845972  0.68876393  0.34242799  1  0  0.054228  0  0.953639  0  0  0.065618  0  1.022867  0  0  0.066834  0  1.021115  0  0.044448  0  0.099102  0.064435  0  1.024607  0
H  H44  1  0.31018560  0.18881957  0.84248534  1  0  0.05493  0  0.954331  0  0  0.066168  0  1.023546  0  0  0.067397  0  1.021799  0  0.045999  0  0.099555  0.064927  0  1.025351  0
H  H45  1  0.34153985  0.31123564  0.65757252  1  0  0.054242  0  0.953601  0  0  0.065637  0  1.022842  0  0  0.066853  0  1.02109  0  0.044481  0  0.099108  0.064454  0  1.024579  0
H  H46  1  0.77075028  0.62588850  0.71460821  1  0  0.102708  0  0.977056  0  0  0.108097  0  1.048726  0  0  0.11171  0  1.046251  0  0.10149  0  0.09953  0.105637  0  1.050299  0
H  H47  1  0.11117469  0.87408781  0.78531845  1  0  0.102466  0  0.97716  0  0  0.10752  0  1.049325  0  0  0.111139  0  1.046859  0  0.094933  0  0.098658  0.104991  0  1.051078  0
H  H48  1  0.22925057  0.37411206  0.28539166  1  0  0.10272  0  0.977053  0  0  0.108114  0  1.048724  0  0  0.111725  0  1.04625  0  0.101485  0  0.099539  0.105653  0  1.050298  0
H  H49  1  0.88882657  0.12591177  0.21468157  1  0  0.102458  0  0.977192  0  0  0.107518  0  1.049341  0  0  0.111137  0  1.046876  0  0.094949  0  0.098668  0.104989  0  1.051094  0
H  H50  1  0.59319880  0.69990934  0.90889452  1  0  0.088458  0  0.961522  0  0  0.102426  0  1.01814  0  0  0.104634  0  1.017882  0  0.067911  0  0.098992  0.10091  0  1.018233  0
H  H51  1  0.20202267  0.80008560  0.59101129  1  0  0.089031  0  0.960726  0  0  0.103318  0  1.016802  0  0  0.105452  0  1.016632  0  0.049074  0  0.09966  0.101663  0  1.017081  0
H  H52  1  0.40680293  0.30008925  0.09110681  1  0  0.088441  0  0.961567  0  0  0.102414  0  1.018178  0  0  0.104623  0  1.017919  0  0.067928  0  0.099012  0.1009  0  1.018268  0
H  H53  1  0.79797772  0.19991397  0.40898840  1  0  0.089026  0  0.96074  0  0  0.103315  0  1.016816  0  0  0.10545  0  1.016644  0  0.049064  0  0.099657  0.10166  0  1.017093  0
H  H54  1  0.57503296  0.90766042  0.94912637  1  0  0.104258  0  0.986153  0  0  0.111877  0  1.054611  0  0  0.11602  0  1.050851  0  0.09642  0  0.102462  0.109138  0  1.056723  0
H  H55  1  0.43188761  0.59236592  0.55076993  1  0  0.104753  0  0.985377  0  0  0.11203  0  1.054218  0  0  0.116062  0  1.050593  0  0.127431  0  0.102542  0.109115  0  1.056801  0
H  H56  1  0.42496830  0.09233915  0.05087365  1  0  0.104251  0  0.986152  0  0  0.111876  0  1.0546  0  0  0.116017  0  1.050842  0  0.096381  0  0.102458  0.109136  0  1.056712  0
H  H57  1  0.56811104  0.40763365  0.44922911  1  0  0.104758  0  0.985385  0  0  0.112031  0  1.054217  0  0  0.116068  0  1.050597  0  0.127413  0  0.102547  0.109117  0  1.056801  0
C  C58  1  0.75153137  0.07329678  0.80539619  1  0  0.644321  0  3.923877  0  0  0.593892  0  4.220593  0  0  0.628162  0  4.212393  0  1.594385  0  0.199529  0.57048  0  4.225718  0
C  C59  1  0.63022542  0.42675843  0.69461287  1  0  0.64812  0  3.920022  0  0  0.597717  0  4.216176  0  0  0.631984  0  4.207979  0  1.581722  0  0.203212  0.57425  0  4.221287  0
C  C60  1  0.24846861  0.92670377  0.19460335  1  0  0.644314  0  3.923933  0  0  0.593894  0  4.220631  0  0  0.628165  0  4.212428  0  1.594582  0  0.199529  0.570482  0  4.225757  0
C  C61  1  0.36977533  0.57324016  0.30538583  1  0  0.648193  0  3.919916  0  0  0.597777  0  4.216073  0  0  0.632047  0  4.207878  0  1.581648  0  0.203249  0.57431  0  4.221187  0
C  C62  1  0.74396082  0.95576229  0.77463877  1  0  -0.058057  0  3.771699  0  0  -0.031766  0  3.999621  0  0  -0.038851  0  4.022865  0  0.000334  0  -0.020499  -0.027133  0  3.983652  0
C  C63  1  0.47440301  0.54427386  0.72535561  1  0  -0.064188  0  3.772952  0  0  -0.038338  0  4.001892  0  0  -0.045454  0  4.025143  0  -0.051402  0  -0.022975  -0.033666  0  3.985946  0
C  C64  1  0.25604044  0.04423728  0.22536125  1  0  -0.05805  0  3.771741  0  0  -0.031769  0  3.999675  0  0  -0.038858  0  4.022918  0  0.000316  0  -0.02049  -0.027138  0  3.983708  0
C  C65  1  0.52559436  0.45572473  0.27464407  1  0  -0.064255  0  3.773102  0  0  -0.038375  0  4.002004  0  0  -0.045492  0  4.025256  0  -0.051318  0  -0.022986  -0.033701  0  3.986056  0
C  C66  1  0.83923017  0.91617253  0.66319439  1  0  -0.132662  0  3.734505  0  0  -0.162332  0  3.977555  0  0  -0.163648  0  3.999117  0  -0.073101  0  -0.091807  -0.161103  0  3.962488  0
C  C67  1  0.41853716  0.58383713  0.83685106  1  0  -0.127869  0  3.73044  0  0  -0.15686  0  3.973328  0  0  -0.15822  0  3.994882  0  -0.05131  0  -0.08973  -0.155563  0  3.95846  0
C  C68  1  0.16076981  0.08382802  0.33680515  1  0  -0.13261  0  3.734517  0  0  -0.162261  0  3.977567  0  0  -0.163577  0  3.999131  0  -0.073085  0  -0.091784  -0.161039  0  3.962494  0
C  C69  1  0.58146236  0.41616244  0.16314831  1  0  -0.127891  0  3.730477  0  0  -0.156892  0  3.973373  0  0  -0.158245  0  3.99492  0  -0.051333  0  -0.089771  -0.155594  0  3.958505  0
C  C70  1  0.84815454  0.79973731  0.63777822  1  0  0.06004  0  3.752767  0  0  0.084366  0  3.987929  0  0  0.082824  0  4.013052  0  -0.103436  0  -0.018361  0.085293  0  3.970728  0
C  C71  1  0.28564641  0.70029688  0.86222806  1  0  0.058677  0  3.750243  0  0  0.082805  0  3.985392  0  0  0.081236  0  4.010505  0  -0.067542  0  -0.019925  0.083667  0  3.968341  0
C  C72  1  0.15184585  0.20026226  0.36222147  1  0  0.060048  0  3.752766  0  0  0.084363  0  3.987949  0  0  0.082819  0  4.013073  0  -0.103442  0  -0.018364  0.085287  0  3.970753  0
C  C73  1  0.71435522  0.29970171  0.13777096  1  0  0.058695  0  3.750206  0  0  0.082804  0  3.985394  0  0  0.081234  0  4.010507  0  -0.067561  0  -0.019894  0.083663  0  3.968342  0
C  C74  1  0.95680616  0.76053901  0.51659856  1  0  -0.071018  0  3.653579  0  0  -0.134376  0  3.908609  0  0  -0.130165  0  3.918613  0  0.275966  0  -0.073041  -0.137211  0  3.901825  0
C  C75  1  0.23394319  0.73948537  0.98342401  1  0  -0.065932  0  3.648368  0  0  -0.129439  0  3.902388  0  0  -0.125184  0  3.912345  0  0.26779  0  -0.069064  -0.132309  0  3.895719  0
C  C76  1  0.04319382  0.23946154  0.48340098  1  0  -0.071102  0  3.653618  0  0  -0.134473  0  3.908694  0  0  -0.130252  0  3.918684  0  0.27598  0  -0.073085  -0.137311  0  3.901914  0
C  C77  1  0.76605766  0.26051519  0.01657585  1  0  -0.065857  0  3.648215  0  0  -0.129411  0  3.902233  0  0  -0.125153  0  3.912186  0  0.267782  0  -0.069046  -0.132271  0  3.895558  0
C  C78  1  0.74021684  0.90450419  0.41933716  1  0  -0.045017  0  3.65178  0  0  -0.103234  0  3.906206  0  0  -0.100472  0  3.918369  0  0.259318  0  -0.074452  -0.104947  0  3.897515  0
C  C79  1  0.06408144  0.59548683  0.08070506  1  0  -0.051127  0  3.654038  0  0  -0.108293  0  3.907289  0  0  -0.105505  0  3.919328  0  0.248263  0  -0.077163  -0.110086  0  3.898642  0
C  C80  1  0.25978442  0.09549539  0.58066286  1  0  -0.045072  0  3.651839  0  0  -0.103265  0  3.906237  0  0  -0.100504  0  3.918407  0  0.259321  0  -0.074444  -0.104979  0  3.897546  0
C  C81  1  0.93591772  0.40451372  0.91929530  1  0  -0.051119  0  3.653999  0  0  -0.108364  0  3.907249  0  0  -0.105575  0  3.919289  0  0.248259  0  -0.077142  -0.110155  0  3.898604  0
C  C82  1  0.66517209  0.93657276  0.31671408  1  0  0.069639  0  3.626064  0  0  0.008581  0  3.893293  0  0  0.015439  0  3.899814  0  0.412384  0  -0.071339  0.004105  0  3.888628  0
C  C83  1  0.91850046  0.56343690  0.18328830  1  0  0.0759  0  3.622186  0  0  0.013264  0  3.890877  0  0  0.020336  0  3.897338  0  0.432417  0  -0.069141  0.008735  0  3.886246  0
C  C84  1  0.33482748  0.06342682  0.68328644  1  0  0.069644  0  3.626054  0  0  0.008573  0  3.893282  0  0  0.015423  0  3.899812  0  0.412388  0  -0.071341  0.004097  0  3.888615  0
C  C85  1  0.08149911  0.43656267  0.81671222  1  0  0.075889  0  3.622081  0  0  0.013246  0  3.890839  0  0  0.020304  0  3.897315  0  0.432415  0  -0.069111  0.008717  0  3.886208  0
C  C86  1  0.78179518  0.66622979  0.47791261  1  0  -0.043755  0  3.630255  0  0  -0.101079  0  3.884801  0  0  -0.098732  0  3.897966  0  0.261545  0  -0.075654  -0.102788  0  3.876063  0
C  C87  1  0.92594397  0.83378968  0.02209762  1  0  -0.043628  0  3.629461  0  0  -0.10088  0  3.884285  0  0  -0.098601  0  3.89763  0  0.212275  0  -0.075004  -0.102403  0  3.875209  0
C  C88  1  0.21820397  0.33377077  0.52208775  1  0  -0.043851  0  3.630427  0  0  -0.101078  0  3.884849  0  0  -0.098726  0  3.898004  0  0.261619  0  -0.075642  -0.102789  0  3.876112  0
C  C89  1  0.07405647  0.16620989  0.97790322  1  0  -0.043557  0  3.629564  0  0  -0.100871  0  3.884341  0  0  -0.098585  0  3.897691  0  0.212627  0  -0.074979  -0.102392  0  3.875267  0
C  C90  1  0.76119620  0.88087218  0.11897689  1  0  0.063616  0  3.620129  0  0  -9.6e-05  0  3.89055  0  0  0.006863  0  3.896475  0  0.438762  0  -0.071138  -0.004585  0  3.886331  0
C  C91  1  0.76098596  0.61910019  0.38101192  1  0  0.06336  0  3.620843  0  0  -0.000801  0  3.891779  0  0  0.006333  0  3.897645  0  0.398775  0  -0.072303  -0.005473  0  3.887897  0
C  C92  1  0.23880465  0.11912837  0.88102298  1  0  0.063538  0  3.620201  0  0  -0.000172  0  3.890623  0  0  0.006772  0  3.896565  0  0.438762  0  -0.071153  -0.004661  0  3.886402  0
C  C93  1  0.23901233  0.38090036  0.61898811  1  0  0.063353  0  3.620856  0  0  -0.000867  0  3.891842  0  0  0.006262  0  3.897709  0  0.398552  0  -0.072346  -0.005535  0  3.887953  0
C  C94  1  0.76049385  0.72049401  0.72843150  1  0  -0.117086  0  3.715817  0  0  -0.140196  0  3.967336  0  0  -0.140799  0  3.986809  0  -0.036793  0  -0.096279  -0.139612  0  3.954026  0
C  C95  1  0.20935444  0.77947346  0.77152122  1  0  -0.117789  0  3.715476  0  0  -0.14051  0  3.966898  0  0  -0.141123  0  3.986353  0  -0.085471  0  -0.095443  -0.140028  0  3.953856  0
C  C96  1  0.23950741  0.27950556  0.27156852  1  0  -0.117069  0  3.715787  0  0  -0.140184  0  3.967319  0  0  -0.140785  0  3.986793  0  -0.036784  0  -0.096269  -0.1396  0  3.954009  0
C  C97  1  0.79064513  0.22052611  0.22847930  1  0  -0.117804  0  3.715559  0  0  -0.140525  0  3.966994  0  0  -0.141136  0  3.986448  0  -0.085494  0  -0.095469  -0.14004  0  3.95395  0
C  C98  1  0.66166452  0.76103840  0.83874969  1  0  -0.071524  0  3.777853  0  0  -0.08193  0  4.025894  0  0  -0.084571  0  4.04734  0  -0.055021  0  -0.097116  -0.080093  0  4.010927  0
C  C99  1  0.26156356  0.73893987  0.66115802  1  0  -0.07147  0  3.777464  0  0  -0.081968  0  4.025457  0  0  -0.084537  0  4.04688  0  -0.017629  0  -0.096969  -0.080128  0  4.010825  0
C  C100  1  0.33833675  0.23896118  0.16125033  1  0  -0.07155  0  3.777922  0  0  -0.081959  0  4.025966  0  0  -0.0846  0  4.04741  0  -0.055025  0  -0.097165  -0.08012  0  4.010998  0
C  C101  1  0.73843601  0.26105970  0.33884250  1  0  -0.071475  0  3.777509  0  0  -0.081975  0  4.025504  0  0  -0.084544  0  4.046929  0  -0.017655  0  -0.096979  -0.080135  0  4.010871  0
C  C102  1  0.65126932  0.87864016  0.86182603  1  0  -0.09464  0  3.754551  0  0  -0.118219  0  3.999032  0  0  -0.118291  0  4.018283  0  -0.066068  0  -0.090528  -0.117483  0  3.985093  0
C  C103  1  0.39179274  0.62134301  0.63811117  1  0  -0.093089  0  3.752658  0  0  -0.116602  0  3.997665  0  0  -0.11656  0  4.01688  0  -0.088874  0  -0.090985  -0.116177  0  3.984211  0
C  C104  1  0.34873194  0.12135941  0.13817399  1  0  -0.09462  0  3.754612  0  0  -0.118193  0  3.999096  0  0  -0.118266  0  4.018351  0  -0.066067  0  -0.090524  -0.117457  0  3.985155  0
C  C105  1  0.60820632  0.37865558  0.36188802  1  0  -0.093084  0  3.75274  0  0  -0.116597  0  3.997736  0  0  -0.116565  0  4.016962  0  -0.088879  0  -0.09098  -0.116174  0  3.984283  0
N  N106  1  0.86250360  0.76996748  0.43348397  1  0  -0.21277  0  3.200248  0  0  -0.111935  0  3.435765  0  0  -0.129946  0  3.455311  0  -0.985989  0  -0.325185  -0.099207  0  3.421963  0
N  N107  1  0.06601795  0.73005493  0.06652652  1  0  -0.216181  0  3.201385  0  0  -0.115475  0  3.437289  0  0  -0.133508  0  3.456704  0  -0.969405  0  -0.326898  -0.102598  0  3.423318  0
N  N108  1  0.13749638  0.23003307  0.56651557  1  0  -0.212678  0  3.200247  0  0  -0.111871  0  3.435729  0  0  -0.12988  0  3.455272  0  -0.985975  0  -0.325164  -0.099139  0  3.421921  0
N  N109  1  0.93398336  0.26994464  0.93347465  1  0  -0.216257  0  3.20153  0  0  -0.115321  0  3.437191  0  0  -0.133348  0  3.456602  0  -0.969589  0  -0.326922  -0.102455  0  3.423238  0
O  O110  1  0.89625142  0.09358615  0.75127283  1  0  -0.663118  0  2.098617  0  0  -0.588598  0  2.378865  0  0  -0.617921  0  2.36418  0  -1.177393  0  -0.335379  -0.567892  0  2.388274  0
O  O111  1  0.74114545  0.40645828  0.74876187  1  0  -0.664856  0  2.096922  0  0  -0.589698  0  2.376719  0  0  -0.61902  0  2.362024  0  -1.183152  0  -0.336201  -0.569102  0  2.386132  0
O  O112  1  0.10374943  0.90641441  0.24872704  1  0  -0.663121  0  2.098581  0  0  -0.588609  0  2.378824  0  0  -0.617935  0  2.364142  0  -1.177595  0  -0.335386  -0.567906  0  2.38824  0
O  O113  1  0.25885283  0.59354227  0.25123816  1  0  -0.664882  0  2.096917  0  0  -0.589727  0  2.37674  0  0  -0.619052  0  2.362043  0  -1.18314  0  -0.336204  -0.569133  0  2.386158  0
O  O114  1  0.62962881  0.13618791  0.88055870  1  0  -0.608906  0  1.90747  0  0  -0.564008  0  2.130898  0  0  -0.586533  0  2.123111  0  -1.18721  0  -0.325282  -0.548723  0  2.136018  0
O  O115  1  0.64640316  0.36387417  0.61938093  1  0  -0.609895  0  1.906598  0  0  -0.565044  0  2.129883  0  0  -0.587553  0  2.122046  0  -1.178817  0  -0.326514  -0.54955  0  2.135109  0
O  O116  1  0.37037076  0.86381166  0.11944182  1  0  -0.608918  0  1.907557  0  0  -0.564011  0  2.130964  0  0  -0.586536  0  2.123176  0  -1.18721  0  -0.325275  -0.548726  0  2.136085  0
O  O117  1  0.35359847  0.63612442  0.38061810  1  0  -0.609892  0  1.906442  0  0  -0.565054  0  2.129751  0  0  -0.587564  0  2.121918  0  -1.178758  0  -0.326505  -0.549559  0  2.134976  0
O  O118  1  0.80327388  0.90537934  0.21111590  1  0  -0.318497  0  2.362574  0  0  -0.2275  0  2.611254  0  0  -0.246448  0  2.613548  0  -1.064736  0  -0.222608  -0.214618  0  2.609668  0
O  O119  1  0.91965203  0.59474021  0.28892527  1  0  -0.319699  0  2.365153  0  0  -0.2283  0  2.614442  0  0  -0.247592  0  2.616953  0  -1.064873  0  -0.221523  -0.215057  0  2.61263  0
O  O120  1  0.19672739  0.09462024  0.78888412  1  0  -0.318471  0  2.362582  0  0  -0.227469  0  2.611256  0  0  -0.246414  0  2.613563  0  -1.064728  0  -0.222604  -0.214587  0  2.609667  0
O  O121  1  0.08034625  0.40526035  0.71107477  1  0  -0.31965  0  2.365046  0  0  -0.228252  0  2.614383  0  0  -0.247535  0  2.616891  0  -1.064889  0  -0.221523  -0.215008  0  2.612569  0
