# generated using pymatgen
data_EuH21(C3O)6
_symmetry_space_group_name_H-M   'P 1'
_cell_length_a   7.47980903
_cell_length_b   16.41718537
_cell_length_c   16.41713597
_cell_angle_alpha   119.99992103
_cell_angle_beta   89.99973311
_cell_angle_gamma   89.99988081
_symmetry_Int_Tables_number   1
_chemical_formula_structural   EuH21(C3O)6
_chemical_formula_sum   'Eu4 H84 C72 O24'
_cell_volume   1745.89284011
_cell_formula_units_Z   4
loop_
 _symmetry_equiv_pos_site_id
 _symmetry_equiv_pos_as_xyz
  1  'x, y, z'
loop_
 _atom_site_type_symbol
 _atom_site_label
 _atom_site_symmetry_multiplicity
 _atom_site_fract_x
 _atom_site_fract_y
 _atom_site_fract_z
 _atom_site_occupancy
 _atom_site_pbe_bader_charge
 _atom_site_pbe_bader_spin_density
 _atom_site_pbe_cm5_charge
 _atom_site_pbe_ddec_charge
 _atom_site_pbe_ddec_spin_density
 _atom_site_pbe_ddec_sum_bond_order
 _atom_site_pbe_magmom
Eu  Eu0  1  0.64079124  0.66666647  0.33333418  1  2.171732  0  1.516847  2.047003  0  2.148059  0
Eu  Eu1  1  0.14078957  0.33333424  0.66666753  1  2.171645  0  1.516847  2.046994  0  2.148043  0
Eu  Eu2  1  0.14078917  0.66666785  0.33333435  1  2.171813  0  1.516822  2.046943  0  2.148082  0
Eu  Eu3  1  0.64079030  0.33333357  0.66666665  1  2.171838  0  1.516826  2.046975  0  2.148095  0
H  H4  1  0.26938746  0.19024453  0.00000110  1  0.002851  0  0.089669  0.052363  0  0.968296  0
H  H5  1  0.26938196  0.80975821  0.80975902  1  -0.009648  0  0.089639  0.052318  0  0.968354  0
H  H6  1  0.26938827  0.00000037  0.19024397  1  0.003044  0  0.089673  0.052365  0  0.968311  0
H  H7  1  0.76938412  0.80975718  0.00000068  1  0.003012  0  0.089654  0.05237  0  0.968307  0
H  H8  1  0.76938857  0.19024399  0.19024406  1  -0.008843  0  0.089631  0.052304  0  0.968208  0
H  H9  1  0.76938185  0.00000139  0.80975891  1  0.002979  0  0.089648  0.052337  0  0.968326  0
H  H10  1  0.40273272  0.48781335  0.99999908  1  0.041298  0  0.099983  0.108383  0  0.971169  0
H  H11  1  0.40273647  0.51218565  0.51218511  1  0.041894  0  0.099981  0.108349  0  0.971211  0
H  H12  1  0.40273241  0.00000023  0.48781458  1  0.041292  0  0.09998  0.108366  0  0.97115  0
H  H13  1  0.90273473  0.51218575  0.99999952  1  0.041276  0  0.099983  0.108371  0  0.971177  0
H  H14  1  0.90273338  0.48781410  0.48781472  1  0.042535  0  0.099975  0.108361  0  0.971163  0
H  H15  1  0.90273744  0.99999865  0.51218368  1  0.041239  0  0.099955  0.10834  0  0.971228  0
H  H16  1  0.18972444  0.44051488  0.00000222  1  0.025544  0  0.096286  0.100898  0  1.015129  0
H  H17  1  0.18972668  0.55948782  0.55948816  1  0.028761  0  0.096263  0.100891  0  1.015193  0
H  H18  1  0.18972320  0.00000222  0.44051631  1  0.025744  0  0.096286  0.100893  0  1.015154  0
H  H19  1  0.68972490  0.55948818  0.00000238  1  0.02764  0  0.096271  0.100888  0  1.015172  0
H  H20  1  0.68972294  0.44051520  0.44051581  1  0.029078  0  0.096298  0.100898  0  1.015176  0
H  H21  1  0.68972600  0.00000169  0.55948736  1  0.023356  0  0.096278  0.100905  0  1.015171  0
H  H22  1  0.62606242  0.40756880  0.15229808  1  0.017865  0  0.091302  0.085569  0  1.037163  0
H  H23  1  0.62606344  0.74472820  0.59243081  1  0.01904  0  0.091302  0.085557  0  1.037193  0
H  H24  1  0.62606892  0.84770143  0.25526988  1  0.010478  0  0.091284  0.085523  0  1.037219  0
H  H25  1  0.12606710  0.59243057  0.84770019  1  0.017816  0  0.091281  0.085535  0  1.037159  0
H  H26  1  0.12606608  0.25527046  0.40756816  1  0.019012  0  0.091287  0.085535  0  1.037216  0
H  H27  1  0.12606193  0.15229663  0.74472848  1  0.010418  0  0.091295  0.085546  0  1.037212  0
H  H28  1  0.12606785  0.40756779  0.25526992  1  0.019  0  0.091282  0.085531  0  1.037235  0
H  H29  1  0.12606092  0.74472899  0.15229743  1  0.010411  0  0.091293  0.08555  0  1.037196  0
H  H30  1  0.12606648  0.84770161  0.59243126  1  0.01784  0  0.091291  0.085543  0  1.037184  0
H  H31  1  0.62606301  0.59243123  0.74472870  1  0.019035  0  0.091292  0.085568  0  1.037183  0
H  H32  1  0.62606993  0.25527039  0.84770084  1  0.010477  0  0.091275  0.085497  0  1.037221  0
H  H33  1  0.62606304  0.15229671  0.40756806  1  0.017854  0  0.0913  0.085581  0  1.037181  0
H  H34  1  0.66016641  0.46793381  0.08968373  1  0.070258  0  0.098291  0.108208  0  1.028829  0
H  H35  1  0.66017184  0.62174876  0.53206339  1  0.0806  0  0.098288  0.108182  0  1.028856  0
H  H36  1  0.66016662  0.91031583  0.37825017  1  0.070891  0  0.098299  0.108204  0  1.028818  0
H  H37  1  0.16017073  0.53206451  0.91031416  1  0.070917  0  0.098301  0.108165  0  1.028837  0
H  H38  1  0.16016530  0.37824956  0.46793450  1  0.080789  0  0.098297  0.108183  0  1.028879  0
H  H39  1  0.16017052  0.08968336  0.62174930  1  0.070932  0  0.098291  0.10821  0  1.028758  0
H  H40  1  0.16016555  0.46793380  0.37824972  1  0.080832  0  0.098295  0.108205  0  1.028844  0
H  H41  1  0.16016934  0.62174957  0.08968353  1  0.070941  0  0.098304  0.108199  0  1.02881  0
H  H42  1  0.16017179  0.91031400  0.53206360  1  0.070719  0  0.098285  0.108143  0  1.028834  0
H  H43  1  0.66017159  0.53206417  0.62174852  1  0.080602  0  0.098289  0.108171  0  1.028868  0
H  H44  1  0.66016780  0.37824970  0.91031462  1  0.070703  0  0.098314  0.108191  0  1.028802  0
H  H45  1  0.66016535  0.08968432  0.46793429  1  0.070778  0  0.098294  0.108201  0  1.028838  0
H  H46  1  0.78626030  0.30681773  0.99999829  1  -0.033207  0  0.088922  0.053243  0  0.969288  0
H  H47  1  0.78625831  0.69317888  0.69317856  1  -0.025935  0  0.088933  0.053243  0  0.969343  0
H  H48  1  0.78626091  0.99999818  0.30681611  1  -0.032919  0  0.088909  0.05325  0  0.969313  0
H  H49  1  0.28625869  0.69317899  0.99999732  1  -0.031695  0  0.088938  0.05325  0  0.969334  0
H  H50  1  0.28626174  0.30681701  0.30681610  1  -0.026192  0  0.088906  0.053249  0  0.969262  0
H  H51  1  0.28625822  0.99999814  0.69317876  1  -0.034374  0  0.088937  0.053245  0  0.969323  0
H  H52  1  0.14274838  0.35210032  0.08948951  1  -0.012931  0  0.092999  0.091751  0  0.993927  0
H  H53  1  0.14274869  0.73739051  0.64790392  1  -0.007991  0  0.093002  0.091772  0  0.993922  0
H  H54  1  0.14275159  0.91051445  0.26261276  1  0.021882  0  0.093022  0.091778  0  0.993943  0
H  H55  1  0.64274963  0.64790318  0.91051428  1  -0.009656  0  0.093005  0.091778  0  0.993922  0
H  H56  1  0.64275066  0.26261228  0.35210057  1  -0.007958  0  0.093016  0.091775  0  0.99394  0
H  H57  1  0.64274776  0.08948844  0.73739042  1  0.021426  0  0.092998  0.091761  0  0.993898  0
H  H58  1  0.64275091  0.35210020  0.26261334  1  -0.013819  0  0.093011  0.091775  0  0.993936  0
H  H59  1  0.64274691  0.73738972  0.08948889  1  0.021926  0  0.092994  0.091742  0  0.993909  0
H  H60  1  0.64274903  0.91051445  0.64790386  1  -0.009065  0  0.093006  0.091778  0  0.993929  0
H  H61  1  0.14274844  0.64790391  0.73739106  1  -0.01427  0  0.092999  0.091772  0  0.993924  0
H  H62  1  0.14275244  0.26261246  0.91051499  1  0.021602  0  0.093032  0.091792  0  0.993942  0
H  H63  1  0.14274898  0.08948869  0.35210028  1  -0.008796  0  0.092998  0.091751  0  0.993922  0
H  H64  1  0.32463376  0.33863742  0.15164375  1  0.01701  0  0.09363  0.092778  0  1.000141  0
H  H65  1  0.32463411  0.81300584  0.66136282  1  0.014968  0  0.093651  0.092803  0  1.000157  0
H  H66  1  0.32463778  0.84835737  0.18699405  1  0.02739  0  0.093645  0.092797  0  1.000168  0
H  H67  1  0.82463691  0.66136219  0.84835671  1  0.017014  0  0.093645  0.092792  0  1.000153  0
H  H68  1  0.82463656  0.18699508  0.33863754  1  0.014932  0  0.093646  0.092803  0  1.000141  0
H  H69  1  0.82463290  0.15164320  0.81300666  1  0.027385  0  0.093636  0.09278  0  1.000166  0
H  H70  1  0.82463565  0.33863663  0.18699387  1  0.014913  0  0.093656  0.09282  0  1.000148  0
H  H71  1  0.82463208  0.81300647  0.15164429  1  0.027324  0  0.093635  0.092764  0  1.000173  0
H  H72  1  0.82463610  0.84835758  0.66136263  1  0.017032  0  0.093636  0.092784  0  1.00017  0
H  H73  1  0.32463235  0.66136359  0.81300720  1  0.014915  0  0.093637  0.092785  0  1.000174  0
H  H74  1  0.32463859  0.18699471  0.84835703  1  0.027394  0  0.093648  0.092805  0  1.000177  0
H  H75  1  0.32463457  0.15164273  0.33863713  1  0.017031  0  0.093649  0.092796  0  1.000127  0
H  H76  1  0.58188005  0.16657235  0.93752642  1  -0.003707  0  0.085656  0.0811  0  1.002711  0
H  H77  1  0.58187252  0.77095408  0.83342701  1  -0.001409  0  0.085647  0.081102  0  1.002658  0
H  H78  1  0.58187452  0.06247233  0.22904537  1  -0.002545  0  0.085664  0.08112  0  1.002659  0
H  H79  1  0.08187155  0.83342679  0.06247236  1  -0.00366  0  0.08565  0.081104  0  1.002674  0
H  H80  1  0.08187773  0.22904480  0.16657081  1  -0.001554  0  0.085634  0.081083  0  1.002703  0
H  H81  1  0.08187440  0.93752706  0.77095436  1  -0.002452  0  0.085639  0.081085  0  1.002663  0
H  H82  1  0.08187756  0.16657194  0.22904526  1  -0.001533  0  0.085639  0.08109  0  1.00269  0
H  H83  1  0.08187661  0.77095373  0.93752627  1  -0.002472  0  0.085651  0.081091  0  1.00269  0
H  H84  1  0.08187072  0.06247268  0.83342744  1  -0.003671  0  0.085646  0.081098  0  1.002676  0
H  H85  1  0.58187404  0.83342685  0.77095386  1  -0.001392  0  0.085649  0.081104  0  1.00265  0
H  H86  1  0.58187365  0.22904602  0.06247311  1  -0.002451  0  0.085641  0.081093  0  1.002668  0
H  H87  1  0.58188088  0.93752584  0.16657072  1  -0.003741  0  0.085639  0.081076  0  1.00273  0
C  C88  1  0.32066122  0.51410293  0.17527166  1  1.529079  0  0.228497  0.624342  0  4.060121  0
C  C89  1  0.32066332  0.66116867  0.48589768  1  1.520551  0  0.228488  0.624315  0  4.060216  0
C  C90  1  0.32066370  0.82472940  0.33883093  1  1.523706  0  0.228461  0.624259  0  4.060267  0
C  C91  1  0.82066808  0.48589810  0.82472740  1  1.528925  0  0.228513  0.62437  0  4.060211  0
C  C92  1  0.82066464  0.33883060  0.51410314  1  1.520394  0  0.228536  0.624366  0  4.060208  0
C  C93  1  0.82066694  0.17527310  0.66117031  1  1.523986  0  0.228559  0.624403  0  4.060131  0
C  C94  1  0.82066647  0.51410243  0.33883025  1  1.520403  0  0.228535  0.624396  0  4.060118  0
C  C95  1  0.82066563  0.66117051  0.17527363  1  1.524022  0  0.228581  0.624412  0  4.060197  0
C  C96  1  0.82066769  0.82472766  0.48589823  1  1.528926  0  0.228534  0.624399  0  4.060171  0
C  C97  1  0.32066416  0.48589824  0.66116916  1  1.5202  0  0.228494  0.624357  0  4.060114  0
C  C98  1  0.32066367  0.33883058  0.82472902  1  1.523914  0  0.228478  0.624302  0  4.060238  0
C  C99  1  0.32066026  0.17527186  0.51410355  1  1.52909  0  0.228527  0.624334  0  4.060209  0
C  C100  1  0.38644027  0.42502141  0.08885634  1  0.044755  0  -0.009407  0.048362  0  3.76799  0
C  C101  1  0.38644262  0.66383410  0.57497888  1  0.052054  0  -0.009408  0.048268  0  3.768151  0
C  C102  1  0.38644193  0.91114355  0.33616516  1  0.053487  0  -0.009427  0.048247  0  3.768155  0
C  C103  1  0.88644318  0.57497899  0.91114415  1  0.045031  0  -0.0094  0.048304  0  3.76813  0
C  C104  1  0.88643950  0.33616595  0.42502197  1  0.052144  0  -0.009381  0.048346  0  3.767999  0
C  C105  1  0.88644152  0.08885528  0.66383447  1  0.053466  0  -0.009399  0.048224  0  3.768223  0
C  C106  1  0.88644109  0.42502164  0.33616574  1  0.052049  0  -0.009393  0.048335  0  3.767993  0
C  C107  1  0.88644180  0.66383451  0.08885543  1  0.053098  0  -0.009441  0.048219  0  3.768181  0
C  C108  1  0.88644279  0.91114463  0.57497893  1  0.045013  0  -0.009398  0.04824  0  3.768296  0
C  C109  1  0.38644237  0.57497911  0.66383440  1  0.052292  0  -0.009412  0.048279  0  3.768113  0
C  C110  1  0.38644299  0.33616502  0.91114349  1  0.053503  0  -0.009433  0.048286  0  3.768055  0
C  C111  1  0.38643933  0.08885577  0.42502157  1  0.044766  0  -0.009414  0.048328  0  3.768016  0
C  C112  1  0.34121537  0.24891547  0.00000002  1  0.035726  0  -0.088907  0.046044  0  3.867403  0
C  C113  1  0.34121176  0.75108671  0.75108737  1  0.06153  0  -0.088952  0.045911  0  3.867568  0
C  C114  1  0.34121642  0.99999960  0.24891435  1  0.033863  0  -0.08892  0.046007  0  3.867431  0
C  C115  1  0.84121391  0.75108576  0.99999994  1  0.035131  0  -0.088933  0.045899  0  3.867492  0
C  C116  1  0.84121618  0.24891564  0.24891511  1  0.060832  0  -0.088892  0.04612  0  3.867292  0
C  C117  1  0.84121285  0.00000057  0.75108665  1  0.033954  0  -0.088936  0.045931  0  3.867519  0
C  C118  1  0.33383777  0.42850501  0.99999987  1  -0.016679  0  -0.157012  -0.227886  0  3.833883  0
C  C119  1  0.33384123  0.57149490  0.57149450  1  -0.01562  0  -0.157013  -0.227848  0  3.834135  0
C  C120  1  0.33383698  0.99999981  0.42850462  1  -0.016889  0  -0.15702  -0.227823  0  3.833847  0
C  C121  1  0.83383952  0.57149532  0.00000047  1  -0.018749  0  -0.15704  -0.227891  0  3.834031  0
C  C122  1  0.83383633  0.42850539  0.42850522  1  -0.016591  0  -0.157038  -0.227857  0  3.83387  0
C  C123  1  0.83384100  0.99999968  0.57149408  1  -0.01445  0  -0.156987  -0.227798  0  3.834042  0
C  C124  1  0.58878906  0.40900727  0.08838474  1  -0.045349  0  -0.166788  -0.237522  0  3.85906  0
C  C125  1  0.58879259  0.67937566  0.59099022  1  -0.055164  0  -0.166778  -0.237438  0  3.859048  0
C  C126  1  0.58879076  0.91161322  0.32062158  1  -0.035727  0  -0.166753  -0.237348  0  3.859012  0
C  C127  1  0.08879176  0.59099063  0.91161280  1  -0.045897  0  -0.166762  -0.237369  0  3.858938  0
C  C128  1  0.08878957  0.32062189  0.40900766  1  -0.055085  0  -0.166781  -0.237441  0  3.859075  0
C  C129  1  0.08879007  0.08838529  0.67937656  1  -0.035681  0  -0.166785  -0.237422  0  3.859013  0
C  C130  1  0.08878982  0.40900740  0.32062162  1  -0.055143  0  -0.166779  -0.237463  0  3.859076  0
C  C131  1  0.08879039  0.67937693  0.08838502  1  -0.035316  0  -0.166775  -0.237406  0  3.859012  0
C  C132  1  0.08879133  0.91161333  0.59099060  1  -0.045727  0  -0.166763  -0.237384  0  3.859022  0
C  C133  1  0.58879234  0.59099050  0.67937591  1  -0.055187  0  -0.166775  -0.237457  0  3.85904  0
C  C134  1  0.58879177  0.32062158  0.91161313  1  -0.035551  0  -0.166737  -0.237327  0  3.858922  0
C  C135  1  0.58878950  0.08838457  0.40900693  1  -0.045832  0  -0.166783  -0.237491  0  3.859115  0
C  C136  1  0.64031270  0.31619018  0.99999938  1  0.044886  0  -0.089705  0.049666  0  3.850526  0
C  C137  1  0.64031080  0.68380781  0.68380752  1  0.044099  0  -0.08968  0.049665  0  3.850637  0
C  C138  1  0.64031329  0.99999852  0.31618936  1  0.044536  0  -0.089771  0.049461  0  3.850698  0
C  C139  1  0.14030980  0.68380902  0.99999953  1  0.043219  0  -0.089696  0.049601  0  3.850596  0
C  C140  1  0.14031276  0.31618995  0.31618983  1  0.043587  0  -0.089714  0.049597  0  3.850516  0
C  C141  1  0.14031069  0.99999906  0.68380759  1  0.046097  0  -0.089686  0.049661  0  3.850522  0
C  C142  1  0.28829224  0.34123157  0.08800127  1  0.011889  0  -0.156632  -0.222851  0  3.854567  0
C  C143  1  0.28829378  0.74676954  0.65876909  1  -0.003958  0  -0.156624  -0.222809  0  3.85458  0
C  C144  1  0.28829412  0.91199870  0.25323019  1  -0.043364  0  -0.156665  -0.222887  0  3.854621  0
C  C145  1  0.78829476  0.65876849  0.91199896  1  0.008649  0  -0.156643  -0.222863  0  3.854631  0
C  C146  1  0.78829322  0.25323078  0.34123210  1  -0.004059  0  -0.156649  -0.222908  0  3.854596  0
C  C147  1  0.78829154  0.08800135  0.74677004  1  -0.04293  0  -0.156642  -0.222817  0  3.854609  0
C  C148  1  0.78829347  0.34123191  0.25323045  1  0.001912  0  -0.156646  -0.222926  0  3.854602  0
C  C149  1  0.78829206  0.74676971  0.08800137  1  -0.044976  0  -0.156606  -0.222735  0  3.854564  0
C  C150  1  0.78829414  0.91199956  0.65876880  1  0.008056  0  -0.156636  -0.22283  0  3.854659  0
C  C151  1  0.28829219  0.65876972  0.74677065  1  0.002348  0  -0.156631  -0.222821  0  3.854593  0
C  C152  1  0.28829494  0.25323035  0.91199886  1  -0.044692  0  -0.156665  -0.22292  0  3.854672  0
C  C153  1  0.28829153  0.08800049  0.34123143  1  0.00776  0  -0.156643  -0.222842  0  3.85455  0
C  C154  1  0.54385722  0.23364791  0.99999940  1  -0.01079  0  -0.16588  -0.216983  0  3.904136  0
C  C155  1  0.54385319  0.76635126  0.76635118  1  -0.02312  0  -0.165839  -0.216904  0  3.904031  0
C  C156  1  0.54385670  0.99999869  0.23364644  1  -0.010589  0  -0.165802  -0.216845  0  3.904091  0
C  C157  1  0.04385394  0.76635129  0.99999889  1  -0.010216  0  -0.165856  -0.216885  0  3.904059  0
C  C158  1  0.04385636  0.23364676  0.23364651  1  -0.02256  0  -0.16581  -0.216911  0  3.904089  0
C  C159  1  0.04385326  0.99999976  0.76635145  1  -0.010822  0  -0.16583  -0.216884  0  3.90402  0
O  O160  1  0.40736749  0.55204228  0.25400751  1  -1.218386  0  -0.429311  -0.739107  0  2.337971  0
O  O161  1  0.40736751  0.70196629  0.44795876  1  -1.213514  0  -0.429315  -0.739123  0  2.338039  0
O  O162  1  0.40736950  0.74599425  0.29803504  1  -1.215735  0  -0.429308  -0.739099  0  2.338061  0
O  O163  1  0.90736329  0.44795833  0.74599388  1  -1.218459  0  -0.429323  -0.739152  0  2.338308  0
O  O164  1  0.90736328  0.29803607  0.55204087  1  -1.213506  0  -0.429311  -0.73914  0  2.338246  0
O  O165  1  0.90736395  0.25400583  0.70196442  1  -1.215756  0  -0.429334  -0.739136  0  2.338202  0
O  O166  1  0.90736533  0.55204022  0.29803641  1  -1.213492  0  -0.42929  -0.739121  0  2.338196  0
O  O167  1  0.90736254  0.70196369  0.25400630  1  -1.215817  0  -0.429336  -0.739137  0  2.33828  0
O  O168  1  0.90736279  0.74599407  0.44795878  1  -1.218413  0  -0.429352  -0.739181  0  2.338265  0
O  O169  1  0.40736946  0.44795801  0.70196612  1  -1.213437  0  -0.429333  -0.739165  0  2.337997  0
O  O170  1  0.40736824  0.29803508  0.74599326  1  -1.215751  0  -0.429319  -0.739124  0  2.338052  0
O  O171  1  0.40736799  0.25400663  0.55204129  1  -1.218378  0  -0.429306  -0.739096  0  2.337978  0
O  O172  1  0.17137660  0.54858928  0.17128908  1  -1.178479  0  -0.37053  -0.597822  0  2.25195  0
O  O173  1  0.17137902  0.62270086  0.45141434  1  -1.179076  0  -0.370513  -0.597759  0  2.251939  0
O  O174  1  0.17137626  0.82871242  0.37729791  1  -1.179419  0  -0.370513  -0.597736  0  2.2519  0
O  O175  1  0.67137422  0.45141510  0.82871487  1  -1.17874  0  -0.370524  -0.59777  0  2.251624  0
O  O176  1  0.67137046  0.37729907  0.54858797  1  -1.179005  0  -0.370607  -0.597816  0  2.25173  0
O  O177  1  0.67137456  0.17128718  0.62269985  1  -1.17959  0  -0.370565  -0.597827  0  2.251691  0
O  O178  1  0.67137094  0.54858679  0.37729922  1  -1.178985  0  -0.370596  -0.597827  0  2.251654  0
O  O179  1  0.67137315  0.62269918  0.17128757  1  -1.179615  0  -0.370587  -0.597855  0  2.251759  0
O  O180  1  0.67137528  0.82871438  0.45141454  1  -1.178717  0  -0.370539  -0.597798  0  2.251666  0
O  O181  1  0.17137988  0.45141394  0.62270107  1  -1.178888  0  -0.370495  -0.597759  0  2.251923  0
O  O182  1  0.17137766  0.37729857  0.82871326  1  -1.179589  0  -0.370497  -0.597749  0  2.251933  0
O  O183  1  0.17137554  0.17128965  0.54858975  1  -1.178501  0  -0.370545  -0.59783  0  2.252042  0
