# generated using pymatgen
data_HgH2CN5Cl
_symmetry_space_group_name_H-M   'P 1'
_cell_length_a   5.71631838
_cell_length_b   6.35284540
_cell_length_c   7.47076324
_cell_angle_alpha   90.00072879
_cell_angle_beta   90.00059777
_cell_angle_gamma   90.35585942
_symmetry_Int_Tables_number   1
_chemical_formula_structural   HgH2CN5Cl
_chemical_formula_sum   'Hg2 H4 C2 N10 Cl2'
_cell_volume   271.29468969
_cell_formula_units_Z   2
loop_
 _symmetry_equiv_pos_site_id
 _symmetry_equiv_pos_as_xyz
  1  'x, y, z'
loop_
 _atom_site_type_symbol
 _atom_site_label
 _atom_site_symmetry_multiplicity
 _atom_site_fract_x
 _atom_site_fract_y
 _atom_site_fract_z
 _atom_site_occupancy
 _atom_site_hle17_bader_spin_density
 _atom_site_hle17_ddec_charge
 _atom_site_hle17_ddec_spin_density
 _atom_site_hle17_ddec_sum_bond_order
 _atom_site_hle17_magmom
 _atom_site_hse06_10hf_bader_spin_density
 _atom_site_hse06_10hf_ddec_charge
 _atom_site_hse06_10hf_ddec_spin_density
 _atom_site_hse06_10hf_ddec_sum_bond_order
 _atom_site_hse06_10hf_magmom
 _atom_site_hse06_bader_spin_density
 _atom_site_hse06_ddec_charge
 _atom_site_hse06_ddec_spin_density
 _atom_site_hse06_ddec_sum_bond_order
 _atom_site_hse06_magmom
 _atom_site_pbe_bader_spin_density
 _atom_site_pbe_cm5_charge
 _atom_site_pbe_ddec_charge
 _atom_site_pbe_ddec_spin_density
 _atom_site_pbe_ddec_sum_bond_order
 _atom_site_pbe_magmom
Hg  Hg0  1  0.73904541  0.99235645  0.91517879  1  0  0.883503  0  1.912982  0  0  0.719016  0  2.372577  0  0  0.767329  0  2.336738  0  0  0.649752  0.683921  0  2.397646  0
Hg  Hg1  1  0.26094960  0.00763955  0.41517556  1  0  0.883411  0  1.912958  0  0  0.718945  0  2.372555  0  0  0.767257  0  2.336719  0  0  0.649737  0.683846  0  2.397628  0
H  H2  1  0.10794517  0.63191539  0.04355107  1  0  0.331525  0  0.911283  0  0  0.313655  0  0.97987  0  0  0.320087  0  0.975216  0  0  0.28348  0.308928  0  0.983429  0
H  H3  1  0.89205587  0.36808751  0.54354722  1  0  0.331486  0  0.911335  0  0  0.313619  0  0.979944  0  0  0.320047  0  0.975296  0  0  0.283487  0.308893  0  0.983502  0
H  H4  1  0.10798605  0.35776959  0.04411842  1  0  0.331143  0  0.911796  0  0  0.312939  0  0.981253  0  0  0.319344  0  0.97664  0  0  0.283722  0.308239  0  0.984736  0
H  H5  1  0.89201829  0.64222850  0.54411095  1  0  0.331114  0  0.911817  0  0  0.31291  0  0.98127  0  0  0.319312  0  0.976664  0  0  0.283739  0.308212  0  0.984752  0
C  C6  1  0.81099300  0.49287174  0.95862566  1  0  0.580078  0  3.846823  0  0  0.521673  0  4.130268  0  0  0.548913  0  4.138905  0  0  0.341008  0.502712  0  4.124208  0
C  C7  1  0.18900810  0.50713103  0.45861673  1  0  0.57983  0  3.846909  0  0  0.521572  0  4.130215  0  0  0.548824  0  4.138838  0  0  0.341026  0.502579  0  4.124196  0
N  N8  1  0.68585418  0.32173660  0.90747145  1  0  -0.375866  0  3.245383  0  0  -0.285366  0  3.532251  0  0  -0.31353  0  3.550066  0  0  -0.242012  -0.26505  0  3.518785  0
N  N9  1  0.31414590  0.67825756  0.40746813  1  0  -0.375639  0  3.245405  0  0  -0.285127  0  3.532165  0  0  -0.313296  0  3.549981  0  0  -0.241934  -0.264801  0  3.518707  0
N  N10  1  0.48879019  0.38974765  0.82149186  1  0  -0.056386  0  2.971729  0  0  -0.05689  0  3.272073  0  0  -0.053276  0  3.283741  0  0  -0.094908  -0.058992  0  3.263699  0
N  N11  1  0.51121095  0.61025623  0.32148805  1  0  -0.05648  0  2.971617  0  0  -0.057  0  3.271953  0  0  -0.053385  0  3.283618  0  0  -0.094958  -0.059101  0  3.263578  0
N  N12  1  0.48925239  0.59190323  0.82045562  1  0  -0.056088  0  2.968607  0  0  -0.057596  0  3.269003  0  0  -0.05379  0  3.280664  0  0  -0.09482  -0.059857  0  3.260658  0
N  N13  1  0.51074854  0.40809592  0.32045088  1  0  -0.056132  0  2.968464  0  0  -0.057604  0  3.268893  0  0  -0.053796  0  3.280553  0  0  -0.094821  -0.059864  0  3.260544  0
N  N14  1  0.68683086  0.66258425  0.90554184  1  0  -0.375798  0  3.242001  0  0  -0.2853  0  3.530407  0  0  -0.31344  0  3.548046  0  0  -0.241595  -0.265009  0  3.517059  0
N  N15  1  0.31317127  0.33741770  0.40554005  1  0  -0.375554  0  3.241766  0  0  -0.285218  0  3.530263  0  0  -0.313356  0  3.547888  0  0  -0.241567  -0.264915  0  3.516923  0
N  N16  1  0.01404835  0.49430924  0.04780517  1  0  -0.666138  0  3.082186  0  0  -0.63364  0  3.314628  0  0  -0.654148  0  3.311853  0  0  -0.578044  -0.619045  0  3.316676  0
N  N17  1  0.98594205  0.50568930  0.54780497  1  0  -0.666061  0  3.082107  0  0  -0.633656  0  3.31458  0  0  -0.654167  0  3.311802  0  0  -0.578142  -0.61905  0  3.31664  0
Cl  Cl18  1  0.19540247  0.99467620  0.03328275  1  0  -0.595973  0  0.985706  0  0  -0.548473  0  1.29634  0  0  -0.567471  0  1.269516  0  0  -0.306576  -0.535829  0  1.31585  0
Cl  Cl19  1  0.80460193  0.00532646  0.53328484  1  0  -0.595975  0  0.985707  0  0  -0.54846  0  1.296335  0  0  -0.56746  0  1.269512  0  0  -0.306574  -0.535817  0  1.315844  0
