# generated using pymatgen
data_ZnH24C29O6
_symmetry_space_group_name_H-M   'P 1'
_cell_length_a   5.38754480
_cell_length_b   8.19876797
_cell_length_c   26.26122636
_cell_angle_alpha   93.85964584
_cell_angle_beta   97.59989903
_cell_angle_gamma   90.20246717
_symmetry_Int_Tables_number   1
_chemical_formula_structural   ZnH24C29O6
_chemical_formula_sum   'Zn2 H48 C58 O12'
_cell_volume   1147.10251488
_cell_formula_units_Z   2
loop_
 _symmetry_equiv_pos_site_id
 _symmetry_equiv_pos_as_xyz
  1  'x, y, z'
loop_
 _atom_site_type_symbol
 _atom_site_label
 _atom_site_symmetry_multiplicity
 _atom_site_fract_x
 _atom_site_fract_y
 _atom_site_fract_z
 _atom_site_occupancy
 _atom_site_hle17_bader_spin_density
 _atom_site_hle17_ddec_charge
 _atom_site_hle17_ddec_spin_density
 _atom_site_hle17_ddec_sum_bond_order
 _atom_site_hle17_magmom
 _atom_site_hse06_10hf_bader_spin_density
 _atom_site_hse06_10hf_ddec_charge
 _atom_site_hse06_10hf_ddec_spin_density
 _atom_site_hse06_10hf_ddec_sum_bond_order
 _atom_site_hse06_10hf_magmom
 _atom_site_hse06_bader_spin_density
 _atom_site_hse06_ddec_charge
 _atom_site_hse06_ddec_spin_density
 _atom_site_hse06_ddec_sum_bond_order
 _atom_site_hse06_magmom
 _atom_site_pbe_bader_spin_density
 _atom_site_pbe_cm5_charge
 _atom_site_pbe_ddec_charge
 _atom_site_pbe_ddec_spin_density
 _atom_site_pbe_ddec_sum_bond_order
 _atom_site_pbe_magmom
Zn  Zn0  1  0.00426879  0.64730768  0.08506154  1  0  1.164012  0  1.706295  0  0  0.992341  0  2.173621  0  0  1.043544  0  2.109713  0  0  0.687083  0.956102  0  2.21785  0
Zn  Zn1  1  0.09221716  0.14767403  0.08653691  1  0  1.159435  0  1.704141  0  0  0.985741  0  2.171013  0  0  1.037392  0  2.107213  0  0  0.684513  0.949186  0  2.215151  0
H  H2  1  0.57789192  0.64160543  0.11057880  1  0  0.418126  0  0.894137  0  0  0.384634  0  0.962142  0  0  0.396066  0  0.945676  0  0  0.290975  0.376579  0  0.973737  0
H  H3  1  0.55249759  0.14687133  0.10896476  1  0  0.419331  0  0.89303  0  0  0.385465  0  0.962002  0  0  0.396724  0  0.945776  0  0  0.291361  0.377537  0  0.973412  0
H  H4  1  0.66421027  0.83087033  0.11200571  1  0  0.433596  0  0.870803  0  0  0.401261  0  0.936242  0  0  0.411862  0  0.921103  0  0  0.296255  0.393817  0  0.946855  0
H  H5  1  0.46634925  0.33496547  0.11328624  1  0  0.432663  0  0.871899  0  0  0.400035  0  0.937735  0  0  0.410675  0  0.922544  0  0  0.296147  0.392571  0  0.94837  0
H  H6  1  0.54681088  0.95018652  0.01783930  1  0  0.133439  0  0.91428  0  0  0.151066  0  0.966635  0  0  0.153489  0  0.966083  0  0  0.113428  0.149325  0  0.96716  0
H  H7  1  0.45665948  0.43456640  0.01540471  1  0  0.133613  0  0.909188  0  0  0.152157  0  0.95956  0  0  0.154468  0  0.959117  0  0  0.11379  0.150485  0  0.960025  0
H  H8  1  0.27584785  0.04715669  0.99014525  1  0  0.111654  0  0.937491  0  0  0.1242  0  1.002341  0  0  0.126877  0  1.000619  0  0  0.105954  0.12225  0  1.003743  0
H  H9  1  0.69046412  0.54294740  0.99036299  1  0  0.110754  0  0.941764  0  0  0.122464  0  1.007166  0  0  0.125198  0  1.005292  0  0  0.105562  0.120459  0  1.008667  0
H  H10  1  0.55279027  0.88813366  0.92798861  1  0  0.116621  0  0.931379  0  0  0.131539  0  0.995505  0  0  0.133708  0  0.994095  0  0  0.106619  0.130006  0  0.996524  0
H  H11  1  0.35754778  0.37990872  0.92428044  1  0  0.116659  0  0.931964  0  0  0.131712  0  0.995538  0  0  0.133894  0  0.994209  0  0  0.106595  0.130134  0  0.996561  0
H  H12  1  0.43149359  0.70870450  0.94861718  1  0  0.11107  0  0.932091  0  0  0.131499  0  0.987712  0  0  0.132538  0  0.98805  0  0  0.109185  0.13071  0  0.987578  0
H  H13  1  0.50425136  0.20132647  0.94554540  1  0  0.110983  0  0.932836  0  0  0.130502  0  0.990029  0  0  0.13149  0  0.990456  0  0  0.108417  0.129755  0  0.989819  0
H  H14  1  0.51629008  0.64398420  0.86613544  1  0  0.098956  0  0.951676  0  0  0.110291  0  1.011438  0  0  0.112367  0  1.011599  0  0  0.107903  0.108808  0  1.011367  0
H  H15  1  0.34169447  0.13363602  0.86130746  1  0  0.094659  0  0.95409  0  0  0.105454  0  1.015316  0  0  0.107426  0  1.015591  0  0  0.105527  0.104031  0  1.01521  0
H  H16  1  0.48837969  0.50809375  0.78043585  1  0  0.086476  0  0.98962  0  0  0.096492  0  1.054049  0  0  0.098739  0  1.05467  0  0  0.096148  0.094864  0  1.053788  0
H  H17  1  0.29184856  0.99774362  0.77547682  1  0  0.088342  0  0.982235  0  0  0.098852  0  1.04585  0  0  0.101124  0  1.046401  0  0  0.097526  0.097243  0  1.045526  0
H  H18  1  0.76610156  0.72700921  0.73972413  1  0  0.086617  0  0.989039  0  0  0.097286  0  1.052269  0  0  0.09979  0  1.052135  0  0  0.096178  0.095485  0  1.052509  0
H  H19  1  0.96687995  0.23829949  0.74430949  1  0  0.086636  0  0.98981  0  0  0.096816  0  1.053949  0  0  0.099205  0  1.054045  0  0  0.096373  0.095075  0  1.054061  0
H  H20  1  0.79805397  0.86228415  0.82654479  1  0  0.094072  0  0.97932  0  0  0.099015  0  1.050328  0  0  0.101905  0  1.049489  0  0  0.100061  0.096877  0  1.051068  0
H  H21  1  0.01379871  0.37324020  0.83125777  1  0  0.093982  0  0.976084  0  0  0.098652  0  1.047701  0  0  0.101557  0  1.046799  0  0  0.100692  0.096574  0  1.048334  0
H  H22  1  0.45101584  0.38817587  0.71239000  1  0  0.087225  0  0.986132  0  0  0.097715  0  1.050048  0  0  0.100044  0  1.050115  0  0  0.096951  0.096035  0  1.050125  0
H  H23  1  0.26661604  0.87965398  0.70722923  1  0  0.086144  0  0.981864  0  0  0.09659  0  1.046461  0  0  0.098855  0  1.046557  0  0  0.097091  0.09494  0  1.046533  0
H  H24  1  0.41536682  0.25564415  0.62562421  1  0  0.08226  0  0.983538  0  0  0.092318  0  1.046849  0  0  0.094099  0  1.047999  0  0  0.094758  0.091043  0  1.046129  0
H  H25  1  0.22567509  0.74547937  0.62067230  1  0  0.082458  0  0.981001  0  0  0.092363  0  1.044645  0  0  0.094152  0  1.045868  0  0  0.094609  0.091078  0  1.043887  0
H  H26  1  0.05015307  0.31125603  0.55997553  1  0  0.083312  0  0.9635  0  0  0.095844  0  1.02401  0  0  0.09827  0  1.023337  0  0  0.098411  0.094093  0  1.024579  0
H  H27  1  0.52853578  0.80845369  0.55995807  1  0  0.08463  0  0.959865  0  0  0.097639  0  1.018767  0  0  0.100084  0  1.018064  0  0  0.099161  0.095912  0  1.019287  0
H  H28  1  0.72299605  0.50621049  0.58425054  1  0  0.081103  0  0.96947  0  0  0.09074  0  1.033656  0  0  0.092923  0  1.033657  0  0  0.095871  0.089183  0  1.033716  0
H  H29  1  0.87551455  0.01080097  0.58930872  1  0  0.080705  0  0.966787  0  0  0.090866  0  1.030442  0  0  0.09314  0  1.030386  0  0  0.095843  0.08925  0  1.030544  0
H  H30  1  0.75482159  0.63763674  0.67075766  1  0  0.084393  0  0.99637  0  0  0.094916  0  1.060142  0  0  0.097015  0  1.060524  0  0  0.095194  0.093481  0  1.059723  0
H  H31  1  0.92064306  0.14332175  0.67570004  1  0  0.086364  0  0.98796  0  0  0.097698  0  1.05071  0  0  0.099772  0  1.051273  0  0  0.097009  0.096198  0  1.050396  0
H  H32  1  0.03426365  0.66370659  0.24706253  1  0  0.101932  0  0.961716  0  0  0.109204  0  1.027377  0  0  0.111834  0  1.026787  0  0  0.103252  0.107274  0  1.027908  0
H  H33  1  0.24037156  0.16080103  0.25225137  1  0  0.100683  0  0.964705  0  0  0.107679  0  1.031243  0  0  0.110222  0  1.030973  0  0  0.102269  0.10582  0  1.031559  0
H  H34  1  0.08066377  0.60269679  0.33794984  1  0  0.086718  0  0.983164  0  0  0.097266  0  1.04686  0  0  0.099692  0  1.046854  0  0  0.096843  0.095529  0  1.046952  0
H  H35  1  0.26690603  0.10104241  0.34302533  1  0  0.085604  0  0.984664  0  0  0.096444  0  1.047872  0  0  0.098972  0  1.047711  0  0  0.096233  0.094651  0  1.048072  0
H  H36  1  0.74684298  0.32565863  0.31642960  1  0  0.088302  0  0.980106  0  0  0.098763  0  1.043435  0  0  0.101022  0  1.044067  0  0  0.097508  0.097154  0  1.043076  0
H  H37  1  0.56919541  0.82704046  0.30848353  1  0  0.086604  0  0.987957  0  0  0.096615  0  1.052256  0  0  0.098743  0  1.053157  0  0  0.096138  0.095095  0  1.051743  0
H  H38  1  0.69634559  0.39085686  0.22592727  1  0  0.105789  0  0.944485  0  0  0.113624  0  1.006944  0  0  0.116812  0  1.005209  0  0  0.106716  0.111308  0  1.008265  0
H  H39  1  0.54610041  0.89174536  0.21820991  1  0  0.106143  0  0.943919  0  0  0.114029  0  1.006014  0  0  0.117292  0  1.004126  0  0  0.106516  0.111681  0  1.007406  0
H  H40  1  0.12264162  0.55809900  0.40958091  1  0  0.087814  0  0.982491  0  0  0.098432  0  1.045537  0  0  0.100675  0  1.045838  0  0  0.097357  0.096813  0  1.045446  0
H  H41  1  0.28313550  0.05744858  0.41430801  1  0  0.084797  0  0.992858  0  0  0.095117  0  1.056928  0  0  0.097107  0  1.057669  0  0  0.095767  0.093667  0  1.056519  0
H  H42  1  0.16026670  0.48642674  0.49861095  1  0  0.079778  0  0.971  0  0  0.08954  0  1.035349  0  0  0.091704  0  1.035512  0  0  0.094558  0.087988  0  1.035302  0
H  H43  1  0.31781565  0.98782093  0.50352280  1  0  0.078758  0  0.974206  0  0  0.088789  0  1.038784  0  0  0.091068  0  1.038736  0  0  0.094197  0.087176  0  1.03885  0
H  H44  1  0.49952692  0.30065512  0.53365563  1  0  0.080732  0  0.966875  0  0  0.093523  0  1.027373  0  0  0.096138  0  1.026447  0  0  0.096384  0.091642  0  1.028126  0
H  H45  1  0.99909739  0.80524604  0.53270344  1  0  0.080383  0  0.96797  0  0  0.093517  0  1.028361  0  0  0.096056  0  1.027551  0  0  0.096352  0.091688  0  1.029012  0
H  H46  1  0.80493818  0.19230625  0.47606299  1  0  0.08275  0  0.97329  0  0  0.09282  0  1.036616  0  0  0.094699  0  1.037589  0  0  0.094739  0.091461  0  1.036035  0
H  H47  1  0.63699987  0.69995387  0.46912701  1  0  0.082087  0  0.976394  0  0  0.091799  0  1.040139  0  0  0.093662  0  1.041173  0  0  0.094236  0.090456  0  1.039511  0
H  H48  1  0.77089601  0.26507385  0.38700665  1  0  0.089223  0  0.979253  0  0  0.099296  0  1.04335  0  0  0.101792  0  1.042839  0  0  0.098763  0.097545  0  1.043712  0
H  H49  1  0.59886743  0.77055042  0.37974606  1  0  0.088451  0  0.981026  0  0  0.098855  0  1.044812  0  0  0.101352  0  1.044454  0  0  0.098189  0.0971  0  1.045062  0
C  C50  1  0.21099191  0.83574674  0.02873857  1  0  0.726247  0  3.781845  0  0  0.674533  0  4.076241  0  0  0.709736  0  4.06911  0  0  0.218162  0.65052  0  4.080358  0
C  C51  1  0.81305478  0.33198231  0.02845629  1  0  0.727868  0  3.782187  0  0  0.674539  0  4.07802  0  0  0.709808  0  4.070874  0  0  0.220766  0.650471  0  4.082155  0
C  C52  1  0.36139008  0.92697148  0.99535441  1  0  -0.252115  0  3.682496  0  0  -0.292673  0  3.936097  0  0  -0.298567  0  3.943123  0  0  -0.162154  -0.288652  0  3.9313  0
C  C53  1  0.61898089  0.41952142  0.99420004  1  0  -0.251826  0  3.683191  0  0  -0.291295  0  3.934964  0  0  -0.297198  0  3.942112  0  0  -0.160929  -0.287231  0  3.930062  0
C  C54  1  0.39028737  0.83843877  0.94378114  1  0  -0.213637  0  3.683334  0  0  -0.262639  0  3.937749  0  0  -0.265524  0  3.946546  0  0  -0.162017  -0.260469  0  3.931648  0
C  C55  1  0.53825837  0.33198145  0.94169580  1  0  -0.215318  0  3.683621  0  0  -0.264279  0  3.937992  0  0  -0.267153  0  3.94682  0  0  -0.162734  -0.262069  0  3.931752  0
C  C56  1  0.15930846  0.84893153  0.90468492  1  0  0.441524  0  3.660457  0  0  0.424583  0  3.930056  0  0  0.445351  0  3.933273  0  0  0.166183  0.410396  0  3.927784  0
C  C57  1  0.73037869  0.34823223  0.90520238  1  0  0.439713  0  3.661043  0  0  0.422175  0  3.93165  0  0  0.442863  0  3.934997  0  0  0.163542  0.408043  0  3.929255  0
C  C58  1  0.15607896  0.76228122  0.85275109  1  0  -0.048046  0  3.758593  0  0  -0.030047  0  3.993135  0  0  -0.036529  0  4.017046  0  0  -0.018587  -0.025742  0  3.976891  0
C  C59  1  0.68531340  0.26212763  0.85285902  1  0  -0.05007  0  3.757264  0  0  -0.03294  0  3.993174  0  0  -0.039428  0  4.017043  0  0  -0.020433  -0.028624  0  3.976959  0
C  C60  1  0.34986413  0.66196884  0.83874105  1  0  -0.067646  0  3.723225  0  0  -0.091431  0  3.975549  0  0  -0.091799  0  3.997229  0  0  -0.077553  -0.090961  0  3.9607  0
C  C61  1  0.48126170  0.15639910  0.83603216  1  0  -0.061394  0  3.720164  0  0  -0.08498  0  3.972865  0  0  -0.085194  0  3.994506  0  0  -0.07518  -0.084632  0  3.958075  0
C  C62  1  0.33373248  0.58500025  0.78946293  1  0  -0.115361  0  3.722155  0  0  -0.132463  0  3.969359  0  0  -0.13677  0  3.991224  0  0  -0.089617  -0.129568  0  3.954522  0
C  C63  1  0.45252943  0.07933879  0.78665153  1  0  -0.113632  0  3.720239  0  0  -0.130686  0  3.966971  0  0  -0.134854  0  3.988451  0  0  -0.088168  -0.127883  0  3.952407  0
C  C64  1  0.12457321  0.60514605  0.75220804  1  0  0.056829  0  3.761537  0  0  0.071171  0  3.990447  0  0  0.072862  0  4.013012  0  0  -0.002941  0.070117  0  3.975062  0
C  C65  1  0.62543260  0.10505109  0.75203288  1  0  0.054736  0  3.762224  0  0  0.069632  0  3.990046  0  0  0.071277  0  4.012736  0  0  -0.00354  0.068623  0  3.974551  0
C  C66  1  0.93202318  0.70686706  0.76684925  1  0  -0.122769  0  3.739413  0  0  -0.139627  0  3.987215  0  0  -0.143778  0  4.00786  0  0  -0.092685  -0.136871  0  3.973234  0
C  C67  1  0.82811578  0.21295187  0.76937118  1  0  -0.121505  0  3.738856  0  0  -0.13875  0  3.986431  0  0  -0.142901  0  4.007154  0  0  -0.091713  -0.135982  0  3.972386  0
C  C68  1  0.94770593  0.78349719  0.81585096  1  0  -0.062192  0  3.741828  0  0  -0.084721  0  3.989529  0  0  -0.084268  0  4.009493  0  0  -0.080902  -0.084784  0  3.975926  0
C  C69  1  0.85714014  0.28945773  0.81851049  1  0  -0.059699  0  3.739536  0  0  -0.081697  0  3.987423  0  0  -0.081149  0  4.007152  0  0  -0.078985  -0.081829  0  3.973961  0
C  C70  1  0.10542826  0.52408255  0.69953515  1  0  0.038431  0  3.76789  0  0  0.055439  0  3.99648  0  0  0.055325  0  4.019301  0  0  -0.009026  0.055504  0  3.98091  0
C  C71  1  0.59767000  0.02325996  0.69940017  1  0  0.03807  0  3.764459  0  0  0.054817  0  3.993016  0  0  0.054687  0  4.015941  0  0  -0.009577  0.0549  0  3.977361  0
C  C72  1  0.28965068  0.41556892  0.68488586  1  0  -0.111047  0  3.71858  0  0  -0.130833  0  3.96539  0  0  -0.133169  0  3.985508  0  0  -0.091254  -0.129131  0  3.951694  0
C  C73  1  0.40218791  0.91020463  0.68197695  1  0  -0.10717  0  3.714279  0  0  -0.127132  0  3.960706  0  0  -0.129464  0  3.981016  0  0  -0.088884  -0.125428  0  3.946879  0
C  C74  1  0.27009471  0.33994783  0.63529735  1  0  -0.071594  0  3.785709  0  0  -0.081974  0  4.030793  0  0  -0.083866  0  4.053025  0  0  -0.094904  -0.080633  0  4.015605  0
C  C75  1  0.37750674  0.83390203  0.63244167  1  0  -0.072602  0  3.783263  0  0  -0.082585  0  4.028064  0  0  -0.08452  0  4.050136  0  0  -0.094087  -0.08123  0  4.013027  0
C  C76  1  0.06641770  0.37113066  0.59866790  1  0  -0.082479  0  3.779723  0  0  -0.094769  0  4.023164  0  0  -0.097  0  4.044695  0  0  -0.095203  -0.093115  0  4.008395  0
C  C77  1  0.54664513  0.86911516  0.59855522  1  0  -0.083849  0  3.780891  0  0  -0.096155  0  4.025033  0  0  -0.098412  0  4.046667  0  0  -0.095657  -0.0945  0  4.010227  0
C  C78  1  0.88285408  0.47930401  0.61232037  1  0  -0.079764  0  3.803718  0  0  -0.090565  0  4.051925  0  0  -0.092665  0  4.073936  0  0  -0.096702  -0.08908  0  4.036885  0
C  C79  1  0.74114313  0.98125141  0.61502775  1  0  -0.077483  0  3.800525  0  0  -0.089389  0  4.049732  0  0  -0.091573  0  4.071873  0  0  -0.095371  -0.087852  0  4.034617  0
C  C80  1  0.90177175  0.55390321  0.66194136  1  0  -0.107474  0  3.728082  0  0  -0.125502  0  3.96955  0  0  -0.128028  0  3.991095  0  0  -0.090168  -0.123634  0  3.954898  0
C  C81  1  0.76668876  0.05639895  0.66464775  1  0  -0.104782  0  3.721476  0  0  -0.123215  0  3.963347  0  0  -0.125678  0  3.98456  0  0  -0.088536  -0.121407  0  3.948918  0
C  C82  1  0.32806585  0.56543688  0.17507553  1  0  0.674406  0  3.870249  0  0  0.620554  0  4.160553  0  0  0.656041  0  4.151667  0  0  0.224456  0.596483  0  4.165901  0
C  C83  1  0.87933120  0.06485154  0.17400957  1  0  0.672361  0  3.865687  0  0  0.619379  0  4.15375  0  0  0.654959  0  4.144768  0  0  0.224287  0.595235  0  4.159163  0
C  C84  1  0.36103428  0.53042976  0.23045937  1  0  -0.078037  0  3.759006  0  0  -0.056205  0  3.993633  0  0  -0.065901  0  4.016977  0  0  -0.019326  -0.049893  0  3.977843  0
C  C85  1  0.89270792  0.02932054  0.22914710  1  0  -0.075683  0  3.760022  0  0  -0.052637  0  3.99272  0  0  -0.062326  0  4.01604  0  0  -0.01821  -0.046326  0  3.976958  0
C  C86  1  0.19010848  0.59002074  0.26281709  1  0  -0.051153  0  3.727302  0  0  -0.073853  0  3.972696  0  0  -0.072272  0  3.992991  0  0  -0.077934  -0.074644  0  3.958837  0
C  C87  1  0.09381359  0.08813606  0.26508160  1  0  -0.052373  0  3.728471  0  0  -0.075444  0  3.974258  0  0  -0.074113  0  3.995029  0  0  -0.079031  -0.076088  0  3.960098  0
C  C88  1  0.21847607  0.55465478  0.31425657  1  0  -0.123792  0  3.73736  0  0  -0.141164  0  3.987029  0  0  -0.145827  0  4.007988  0  0  -0.092095  -0.138079  0  3.972807  0
C  C89  1  0.10690654  0.05343523  0.31644328  1  0  -0.123106  0  3.733557  0  0  -0.140213  0  3.982248  0  0  -0.144924  0  4.003164  0  0  -0.093082  -0.137121  0  3.968089  0
C  C90  1  0.41745022  0.45806094  0.33535466  1  0  0.050441  0  3.764693  0  0  0.063887  0  3.99616  0  0  0.065978  0  4.018891  0  0  -0.005431  0.062594  0  3.980692  0
C  C91  1  0.92066169  0.95827534  0.33396831  1  0  0.050667  0  3.765886  0  0  0.06503  0  3.99595  0  0  0.067237  0  4.018498  0  0  -0.005549  0.06367  0  3.980587  0
C  C92  1  0.58914014  0.40049649  0.30233545  1  0  -0.11853  0  3.724606  0  0  -0.134624  0  3.971611  0  0  -0.139504  0  3.993344  0  0  -0.089803  -0.131382  0  3.956882  0
C  C93  1  0.71875987  0.90094179  0.29730873  1  0  -0.116193  0  3.728297  0  0  -0.132805  0  3.975174  0  0  -0.137807  0  3.997548  0  0  -0.088977  -0.129496  0  3.960002  0
C  C94  1  0.56180914  0.43611302  0.25087341  1  0  -0.05022  0  3.725702  0  0  -0.074599  0  3.976014  0  0  -0.073055  0  3.995604  0  0  -0.077257  -0.075393  0  3.96265  0
C  C95  1  0.70435536  0.93612005  0.24593625  1  0  -0.052232  0  3.724044  0  0  -0.076543  0  3.974192  0  0  -0.07504  0  3.993727  0  0  -0.077569  -0.077313  0  3.960867  0
C  C96  1  0.44266520  0.41705587  0.39005387  1  0  0.041397  0  3.764149  0  0  0.057376  0  3.994361  0  0  0.05731  0  4.01717  0  0  -0.008865  0.05739  0  3.97882  0
C  C97  1  0.93894555  0.91882574  0.38875139  1  0  0.038653  0  3.767834  0  0  0.055274  0  3.99705  0  0  0.055148  0  4.019815  0  0  -0.00921  0.055331  0  3.981528  0
C  C98  1  0.27370533  0.47751332  0.42321998  1  0  -0.105469  0  3.718556  0  0  -0.122894  0  3.959943  0  0  -0.125387  0  3.981016  0  0  -0.088511  -0.121091  0  3.94559  0
C  C99  1  0.13920423  0.97859951  0.42532457  1  0  -0.104531  0  3.725527  0  0  -0.122549  0  3.96664  0  0  -0.125141  0  3.988387  0  0  -0.090578  -0.120666  0  3.951825  0
C  C100  1  0.29499850  0.43707075  0.47429483  1  0  -0.079112  0  3.806854  0  0  -0.090457  0  4.05501  0  0  -0.092443  0  4.076965  0  0  -0.096979  -0.089053  0  4.040042  0
C  C101  1  0.15978685  0.93913153  0.47646721  1  0  -0.081146  0  3.813822  0  0  -0.0923  0  4.061552  0  0  -0.094381  0  4.083428  0  0  -0.097458  -0.09084  0  4.046647  0
C  C102  1  0.48527003  0.33436111  0.49392151  1  0  -0.088395  0  3.793379  0  0  -0.100322  0  4.037084  0  0  -0.102438  0  4.058143  0  0  -0.096802  -0.098782  0  4.022691  0
C  C103  1  0.98108022  0.83801420  0.49282464  1  0  -0.090208  0  3.792971  0  0  -0.102328  0  4.036091  0  0  -0.104373  0  4.057203  0  0  -0.099221  -0.100835  0  4.021702  0
C  C104  1  0.65572848  0.27378742  0.46183257  1  0  -0.0718  0  3.78683  0  0  -0.081318  0  4.031089  0  0  -0.083177  0  4.053115  0  0  -0.095125  -0.080006  0  4.016076  0
C  C105  1  0.77941042  0.77892768  0.45737551  1  0  -0.068805  0  3.788138  0  0  -0.078577  0  4.032695  0  0  -0.080497  0  4.054922  0  0  -0.094195  -0.07723  0  4.017552  0
C  C106  1  0.63484598  0.31495969  0.41081337  1  0  -0.112866  0  3.724243  0  0  -0.132256  0  3.970875  0  0  -0.134536  0  3.991182  0  0  -0.090735  -0.13059  0  3.957058  0
C  C107  1  0.75850307  0.81912626  0.40624517  1  0  -0.111953  0  3.722063  0  0  -0.131763  0  3.968262  0  0  -0.134082  0  3.988514  0  0  -0.092189  -0.130063  0  3.95446  0
O  O108  1  0.15964852  0.68446608  0.01951470  1  0  -0.612478  0  1.984461  0  0  -0.542133  0  2.234611  0  0  -0.571705  0  2.222669  0  0  -0.299583  -0.521659  0  2.242258  0
O  O109  1  0.85318538  0.18052921  0.02025903  1  0  -0.614037  0  1.98695  0  0  -0.541436  0  2.235756  0  0  -0.571006  0  2.223853  0  0  -0.299711  -0.520914  0  2.243314  0
O  O110  1  0.14108200  0.90831173  0.06956191  1  0  -0.694925  0  2.092239  0  0  -0.612331  0  2.376271  0  0  -0.643832  0  2.357874  0  0  -0.324697  -0.590266  0  2.388235  0
O  O111  1  0.93443117  0.40725646  0.06901890  1  0  -0.694632  0  2.089328  0  0  -0.611787  0  2.373484  0  0  -0.643299  0  2.355036  0  0  -0.325216  -0.589724  0  2.385512  0
O  O112  1  0.97694175  0.93010976  0.91469637  1  0  -0.459377  0  1.910382  0  0  -0.415353  0  2.112454  0  0  -0.433066  0  2.110327  0  0  -0.26012  -0.403303  0  2.113794  0
O  O113  1  0.92078344  0.43374790  0.91782642  1  0  -0.456327  0  1.910864  0  0  -0.411633  0  2.112639  0  0  -0.429364  0  2.110539  0  0  -0.256968  -0.399648  0  2.114075  0
O  O114  1  0.14220484  0.65366888  0.15903912  1  0  -0.634057  0  2.035973  0  0  -0.564485  0  2.304866  0  0  -0.592893  0  2.288407  0  0  -0.314754  -0.544755  0  2.315595  0
O  O115  1  0.05487143  0.15218657  0.16094874  1  0  -0.627452  0  2.020671  0  0  -0.557737  0  2.285255  0  0  -0.586228  0  2.269279  0  0  -0.31293  -0.537987  0  2.29569  0
O  O116  1  0.48625931  0.50872255  0.14654994  1  0  -0.652172  0  2.041186  0  0  -0.585398  0  2.26113  0  0  -0.60961  0  2.247243  0  0  -0.313215  -0.56863  0  2.270318  0
O  O117  1  0.69317537  0.00954408  0.14228649  1  0  -0.657236  0  2.049404  0  0  -0.590598  0  2.272106  0  0  -0.615048  0  2.258175  0  0  -0.31326  -0.573615  0  2.281302  0
O  O118  1  0.65758912  0.72434824  0.09077975  1  0  -0.838276  0  1.945545  0  0  -0.766322  0  2.169199  0  0  -0.791906  0  2.134332  0  0  -0.571848  -0.748321  0  2.193195  0
O  O119  1  0.44352508  0.23076315  0.09085150  1  0  -0.838151  0  1.949721  0  0  -0.765455  0  2.172908  0  0  -0.791142  0  2.138293  0  0  -0.57066  -0.747393  0  2.196751  0
