# generated using pymatgen
data_CuH4C3N7
_symmetry_space_group_name_H-M   'P 1'
_cell_length_a   7.78981663
_cell_length_b   9.48083636
_cell_length_c   9.48076779
_cell_angle_alpha   67.95662952
_cell_angle_beta   80.28644868
_cell_angle_gamma   80.28669924
_symmetry_Int_Tables_number   1
_chemical_formula_structural   CuH4C3N7
_chemical_formula_sum   'Cu4 H16 C12 N28'
_cell_volume   635.43300398
_cell_formula_units_Z   4
loop_
 _symmetry_equiv_pos_site_id
 _symmetry_equiv_pos_as_xyz
  1  'x, y, z'
loop_
 _atom_site_type_symbol
 _atom_site_label
 _atom_site_symmetry_multiplicity
 _atom_site_fract_x
 _atom_site_fract_y
 _atom_site_fract_z
 _atom_site_occupancy
 _atom_site_hle17_ddec_charge
 _atom_site_hle17_ddec_spin_density
 _atom_site_hle17_ddec_sum_bond_order
 _atom_site_hle17_magmom
 _atom_site_hse06_10hf_ddec_charge
 _atom_site_hse06_10hf_ddec_spin_density
 _atom_site_hse06_10hf_ddec_sum_bond_order
 _atom_site_hse06_10hf_magmom
 _atom_site_hse06_ddec_charge
 _atom_site_hse06_ddec_spin_density
 _atom_site_hse06_ddec_sum_bond_order
 _atom_site_hse06_magmom
 _atom_site_pbe_cm5_charge
 _atom_site_pbe_ddec_charge
 _atom_site_pbe_ddec_spin_density
 _atom_site_pbe_ddec_sum_bond_order
 _atom_site_pbe_magmom
Cu  Cu0  1  0.64081852  0.98266762  0.61494693  1  0.724047  0.479623  1.998204  0.318  0.741751  0.673541  2.404881  0.505  0.841765  0.804164  2.325844  0.626  0.754497  0.692608  0.55054  2.451224  0.406
Cu  Cu1  1  0.85918234  0.38506443  0.01732638  1  0.724037  0.47961  1.998223  0.318  0.741765  0.673532  2.40489  0.505  0.841769  0.804164  2.32585  0.626  0.754512  0.692626  0.550556  2.451234  0.406
Cu  Cu2  1  0.35917844  0.01732608  0.38506601  1  0.723975  -0.47961  1.998378  -0.318  0.741617  -0.673515  2.405073  -0.505  0.841723  -0.804162  2.325968  -0.626  0.754456  0.692495  -0.550556  2.45139  -0.406
Cu  Cu3  1  0.14082104  0.61494216  0.98266531  1  0.724075  -0.479646  1.998249  -0.318  0.741731  -0.673546  2.404941  -0.505  0.841788  -0.80417  2.325829  -0.626  0.754482  0.692602  -0.550591  2.451259  -0.406
H  H4  1  0.69698146  0.92761121  0.93112765  1  0.093468  0.001046  0.979921  0.002  0.097546  0.001026  1.051512  0.002  0.099891  0.000705  1.050326  0.002  0.120236  0.095833  0.001048  1.052169  0.002
H  H5  1  0.80303118  0.06888581  0.07239244  1  0.093471  0.001041  0.979811  0.002  0.097573  0.001027  1.051372  0.002  0.099917  0.000706  1.050185  0.002  0.120201  0.09585  0.00105  1.052041  0.002
H  H6  1  0.30301500  0.07239617  0.06888363  1  0.09357  -0.001029  0.979833  -0.002  0.097628  -0.001026  1.051416  -0.002  0.099977  -0.000705  1.050224  -0.002  0.12023  0.095896  -0.001048  1.052084  -0.002
H  H7  1  0.19696185  0.93112853  0.92761258  1  0.093455  -0.00103  0.979721  -0.002  0.097548  -0.001027  1.051339  -0.002  0.099892  -0.000706  1.050153  -0.002  0.120183  0.095829  -0.00105  1.05199  -0.002
H  H8  1  0.68464764  0.25586948  0.43940809  1  0.120248  -0.000443  0.971282  0.0  0.130799  -0.000517  1.051477  0.0  0.133181  -0.000536  1.048477  0.0  0.093559  0.128407  -0.000427  1.054458  0.0
H  H9  1  0.81534786  0.56060257  0.74410916  1  0.1204  -0.000473  0.971139  0.0  0.130886  -0.000517  1.05144  0.0  0.133267  -0.000536  1.04844  0.0  0.093549  0.128484  -0.000427  1.054419  0.0
H  H10  1  0.31535437  0.74410601  0.56060439  1  0.120476  0.000467  0.971115  0.0  0.13092  0.000517  1.051444  0.0  0.133291  0.000536  1.048458  0.0  0.093553  0.12852  0.000427  1.054417  0.0
H  H11  1  0.18466294  0.43940886  0.25586507  1  0.120284  0.000419  0.971229  0.0  0.130821  0.000517  1.051408  0.0  0.133205  0.000538  1.048402  0.0  0.093572  0.128422  0.000427  1.054398  0.0
H  H12  1  0.83978159  0.37974735  0.42498147  1  0.132582  -0.000261  0.936806  0.0  0.157942  -0.000165  0.990066  0.0  0.15935  -0.000132  0.990941  0.0  0.10275  0.156818  -0.000178  0.989442  0.0
H  H13  1  0.66021602  0.57501393  0.62023605  1  0.13254  -0.000248  0.936822  0.0  0.157917  -0.000165  0.990059  0.0  0.159325  -0.000131  0.990938  0.0  0.102735  0.156791  -0.000178  0.989432  0.0
H  H14  1  0.16022173  0.62023985  0.57501293  1  0.13257  0.000279  0.936881  0.0  0.157939  0.000165  0.990122  0.0  0.159345  0.000131  0.990999  0.0  0.102704  0.156809  0.000178  0.989497  0.0
H  H15  1  0.33979863  0.42498706  0.37974775  1  0.132503  0.000275  0.936882  0.0  0.157897  0.000165  0.990088  0.0  0.159307  0.000132  0.990964  0.0  0.102735  0.156771  0.000178  0.98946  0.0
H  H16  1  0.61448575  0.43567750  0.46138043  1  0.12182  -0.000185  0.953763  0.0  0.144113  -0.000124  1.014468  0.0  0.145615  -0.000131  1.014302  0.0  0.098462  0.142975  -0.000115  1.014578  0.0
H  H17  1  0.88550612  0.53861343  0.56430816  1  0.121797  -0.000183  0.953764  0.0  0.144084  -0.000124  1.014481  0.0  0.145583  -0.000131  1.014305  0.0  0.098442  0.142947  -0.000115  1.014584  0.0
H  H18  1  0.38550557  0.56431205  0.53861362  1  0.121809  0.000178  0.953848  0.0  0.144087  0.000125  1.014563  0.0  0.145586  0.000131  1.014394  0.0  0.098444  0.142949  0.000116  1.014669  0.0
H  H19  1  0.11450046  0.46137961  0.43567740  1  0.121771  0.000182  0.953652  0.0  0.14398  0.000125  1.014465  0.0  0.145472  0.000131  1.0143  0.0  0.098395  0.142842  0.000116  1.01457  0.0
C  C20  1  0.72885710  0.26226931  0.65408616  1  0.238063  0.002101  3.636608  0.002  0.242763  0.003749  3.885008  0.004  0.249873  0.002336  3.902696  0.002  0.13965  0.237507  0.003994  3.874421  0.004
C  C21  1  0.77113478  0.34591636  0.73771822  1  0.238103  0.002126  3.636289  0.002  0.24296  0.003751  3.88458  0.004  0.250077  0.002337  3.902259  0.002  0.13961  0.237702  0.003996  3.873995  0.004
C  C22  1  0.27114858  0.73772921  0.34591022  1  0.238168  -0.002141  3.636383  -0.002  0.242966  -0.003749  3.884663  -0.004  0.25008  -0.002336  3.902348  -0.002  0.139664  0.237699  -0.003994  3.874082  -0.004
C  C23  1  0.22886750  0.65407884  0.26227451  1  0.238131  -0.002101  3.636096  -0.002  0.242811  -0.003753  3.884508  -0.004  0.249929  -0.002337  3.902184  -0.002  0.139594  0.237556  -0.003996  3.87392  -0.004
C  C24  1  0.72341487  0.04638877  0.87480116  1  0.085453  0.000801  3.667539  0.001  0.056043  0.002104  3.927249  0.002  0.061  0.000985  3.943349  0.001  0.049031  0.052382  0.002502  3.917927  0.002
C  C25  1  0.77658208  0.12521748  0.95360523  1  0.085443  0.00082  3.667764  0.001  0.05605  0.002102  3.927501  0.002  0.061019  0.000985  3.943588  0.001  0.04909  0.052389  0.002501  3.918188  0.002
C  C26  1  0.27656799  0.95361293  0.12521390  1  0.085163  -0.000857  3.667396  -0.001  0.055749  -0.002104  3.927144  -0.002  0.060722  -0.000986  3.943225  -0.001  0.048905  0.052092  -0.002502  3.917832  -0.002
C  C27  1  0.22341013  0.87479349  0.04639792  1  0.085621  -0.000831  3.667905  -0.001  0.056191  -0.002104  3.92754  -0.002  0.061126  -0.000984  3.943686  -0.001  0.049126  0.052537  -0.002501  3.918204  -0.002
C  C28  1  0.71562105  0.33650015  0.48660888  1  -0.361267  0.000883  3.692709  0.001  -0.44667  0.000919  3.931047  0.001  -0.449966  0.000592  3.939312  0.001  -0.238057  -0.44389  0.001012  3.925974  0.001
C  C29  1  0.78437215  0.51338568  0.66348691  1  -0.361361  0.000902  3.692731  0.001  -0.446708  0.000918  3.930938  0.001  -0.450001  0.00059  3.939207  0.001  -0.238018  -0.443914  0.00101  3.925861  0.001
C  C30  1  0.28437731  0.66348470  0.51339122  1  -0.361504  -0.000928  3.692848  -0.001  -0.446786  -0.000919  3.930985  -0.001  -0.450077  -0.000592  3.939253  -0.001  -0.238028  -0.443992  -0.001012  3.925913  -0.001
C  C31  1  0.21563907  0.48661195  0.33649536  1  -0.361177  -0.000865  3.692615  -0.001  -0.446509  -0.000918  3.930972  -0.001  -0.449799  -0.000593  3.939238  -0.001  -0.237981  -0.443729  -0.00101  3.925895  -0.001
N  N32  1  0.70146222  0.11438639  0.72536483  1  -0.294541  0.039629  3.286633  0.046  -0.24682  0.042435  3.564409  0.055  -0.271319  0.038295  3.582339  0.052  -0.318702  -0.234514  0.039952  3.555282  0.05
N  N33  1  0.79853760  0.27463747  0.88561864  1  -0.29451  0.039636  3.286399  0.046  -0.246897  0.042433  3.564191  0.055  -0.271398  0.038292  3.58211  0.052  -0.318666  -0.234593  0.03995  3.555061  0.05
N  N34  1  0.29854181  0.88561300  0.27464623  1  -0.294544  -0.039594  3.286408  -0.046  -0.246758  -0.042435  3.564006  -0.055  -0.271276  -0.038294  3.581945  -0.052  -0.318629  -0.234452  -0.039947  3.554865  -0.05
N  N35  1  0.20146337  0.72537703  0.11437580  1  -0.294619  -0.039602  3.286665  -0.046  -0.246883  -0.042441  3.564439  -0.055  -0.271385  -0.038298  3.582362  -0.052  -0.318619  -0.234578  -0.039957  3.555296  -0.05
N  N36  1  0.59693980  0.90627028  0.44578472  1  -0.537247  0.016026  2.88064  0.019  -0.572451  0.00382  3.258298  0.005  -0.630326  0.002107  3.272221  0.003  -0.348364  -0.541342  0.003192  3.25136  0.004
N  N37  1  0.90305828  0.55422500  0.09372321  1  -0.537164  0.016071  2.880776  0.019  -0.572437  0.003828  3.258462  0.005  -0.630322  0.00211  3.272434  0.003  -0.348372  -0.541327  0.003197  3.251523  0.004
N  N38  1  0.40305270  0.09371773  0.55422978  1  -0.537073  -0.016038  2.88073  -0.019  -0.57235  -0.003827  3.258446  -0.005  -0.630232  -0.002108  3.272389  -0.003  -0.348307  -0.541242  -0.00319  3.251511  -0.004
N  N39  1  0.09694304  0.44578730  0.90626775  1  -0.53725  -0.016001  2.880683  -0.019  -0.572425  -0.003821  3.25828  -0.005  -0.630309  -0.002109  3.272254  -0.003  -0.34835  -0.54132  -0.003187  3.251347  -0.004
N  N40  1  0.72467078  0.86562710  0.37108957  1  0.395677  -0.010359  4.137285  -0.014  0.446479  -0.003047  4.432988  -0.005  0.468853  -0.003276  4.466782  -0.005  0.099789  0.433515  -0.00205  4.40783  -0.004
N  N41  1  0.77532734  0.62891021  0.13437854  1  0.395591  -0.010379  4.137861  -0.014  0.446469  -0.003048  4.43344  -0.005  0.468839  -0.003276  4.467227  -0.005  0.099797  0.433503  -0.00205  4.408287  -0.004
N  N42  1  0.27532219  0.13437818  0.62891341  1  0.395535  0.010361  4.137988  0.014  0.446407  0.003047  4.433572  0.005  0.468784  0.003276  4.467366  0.005  0.099774  0.433443  0.002047  4.408418  0.004
N  N43  1  0.22467144  0.37109048  0.86562534  1  0.39562  0.010353  4.13747  0.014  0.44643  0.003045  4.433162  0.005  0.468797  0.003276  4.466948  0.005  0.099712  0.433468  0.002046  4.408008  0.004
N  N44  1  0.85182936  0.82517823  0.30682411  1  -0.279904  0.029628  2.396868  0.032  -0.29132  0.010058  2.625154  0.012  -0.300094  0.008219  2.637738  0.01  -0.133125  -0.282376  0.009101  2.612915  0.011
N  N45  1  0.64816843  0.69316845  0.17483536  1  -0.279826  0.029637  2.397135  0.032  -0.291304  0.010065  2.625412  0.012  -0.300069  0.008223  2.637998  0.01  -0.133131  -0.282363  0.00911  2.613178  0.011
N  N46  1  0.14816355  0.17483864  0.69316735  1  -0.279855  -0.029642  2.397324  -0.032  -0.291329  -0.010064  2.625602  -0.012  -0.300104  -0.008222  2.638184  -0.01  -0.133161  -0.282388  -0.009096  2.613366  -0.011
N  N47  1  0.35182883  0.30682295  0.82517836  1  -0.279833  -0.029635  2.397023  -0.032  -0.291254  -0.010058  2.625291  -0.012  -0.300019  -0.008219  2.637877  -0.01  -0.13306  -0.282315  -0.009088  2.613054  -0.011
N  N48  1  0.88367663  0.87889956  0.60258422  1  -0.431585  0.079718  2.686657  0.091  -0.468172  0.041316  3.011666  0.053  -0.506069  0.024141  3.026349  0.035  -0.28191  -0.448483  0.046888  3.004011  0.056
N  N49  1  0.61631816  0.39741102  0.12110459  1  -0.431668  0.079743  2.686743  0.091  -0.468301  0.041319  3.0117  0.053  -0.5062  0.024146  3.026389  0.035  -0.281988  -0.448612  0.046891  3.004044  0.056
N  N50  1  0.11632087  0.12110117  0.39741770  1  -0.431585  -0.079728  2.686533  -0.091  -0.468176  -0.041314  3.011523  -0.053  -0.506094  -0.024138  3.026219  -0.035  -0.281944  -0.448484  -0.046878  3.003858  -0.056
N  N51  1  0.38368277  0.60259307  0.87889886  1  -0.431735  -0.079731  2.686882  -0.091  -0.468332  -0.041322  3.011901  -0.053  -0.506237  -0.024148  3.026583  -0.035  -0.282018  -0.448636  -0.046891  3.004231  -0.056
N  N52  1  0.97236015  0.85275707  0.70238088  1  0.391119  -0.030671  4.171109  -0.044  0.446275  -0.003064  4.477408  -0.011  0.468032  -0.005103  4.517681  -0.012  0.089346  0.433692  -0.000159  4.453042  -0.007
N  N53  1  0.52764051  0.29761322  0.14724863  1  0.391158  -0.030689  4.17146  -0.044  0.446405  -0.003065  4.477649  -0.011  0.468162  -0.005101  4.517927  -0.012  0.089414  0.433824  -0.00016  4.45328  -0.007
N  N54  1  0.02763957  0.14724717  0.29761528  1  0.391102  0.030663  4.171052  0.044  0.446287  0.003061  4.477344  0.011  0.468046  0.005102  4.51762  0.012  0.089409  0.433708  0.000156  4.452973  0.007
N  N55  1  0.47236255  0.70238394  0.85276018  1  0.391319  0.030665  4.171689  0.044  0.446477  0.00306  4.477982  0.011  0.468234  0.005099  4.518259  0.012  0.089425  0.433894  0.000156  4.453612  0.007
N  N56  1  0.06462415  0.82752297  0.79735605  1  -0.39801  0.142528  2.608607  0.146  -0.438364  0.07644  2.918561  0.083  -0.469882  0.065885  2.932543  0.075  -0.227168  -0.423215  0.075328  2.912194  0.08
N  N57  1  0.43538730  0.20263368  0.17248248  1  -0.39797  0.142528  2.608927  0.146  -0.438334  0.076435  2.918761  0.083  -0.469886  0.065874  2.932794  0.075  -0.227142  -0.423182  0.075327  2.912392  0.08
N  N58  1  0.93538039  0.17248477  0.20263402  1  -0.397956  -0.142523  2.608727  -0.146  -0.438331  -0.076439  2.918662  -0.083  -0.469849  -0.065882  2.932644  -0.075  -0.227178  -0.423191  -0.07532  2.912316  -0.08
N  N59  1  0.56462098  0.79735314  0.82753042  1  -0.397981  -0.142515  2.608859  -0.146  -0.438389  -0.076426  2.91887  -0.083  -0.469906  -0.065866  2.932862  -0.075  -0.227117  -0.423246  -0.075318  2.912514  -0.08
