# generated using pymatgen
data_CoH19C18N5O4
_symmetry_space_group_name_H-M   'P 1'
_cell_length_a   9.11179805
_cell_length_b   9.89574137
_cell_length_c   11.23650881
_cell_angle_alpha   73.60744395
_cell_angle_beta   81.96056459
_cell_angle_gamma   64.84163691
_symmetry_Int_Tables_number   1
_chemical_formula_structural   CoH19C18N5O4
_chemical_formula_sum   'Co2 H38 C36 N10 O8'
_cell_volume   879.55158230
_cell_formula_units_Z   2
loop_
 _symmetry_equiv_pos_site_id
 _symmetry_equiv_pos_as_xyz
  1  'x, y, z'
loop_
 _atom_site_type_symbol
 _atom_site_label
 _atom_site_symmetry_multiplicity
 _atom_site_fract_x
 _atom_site_fract_y
 _atom_site_fract_z
 _atom_site_occupancy
 _atom_site_hle17_ddec_charge
 _atom_site_hle17_ddec_spin_density
 _atom_site_hle17_ddec_sum_bond_order
 _atom_site_hle17_magmom
 _atom_site_hse06_10hf_ddec_charge
 _atom_site_hse06_10hf_ddec_spin_density
 _atom_site_hse06_10hf_ddec_sum_bond_order
 _atom_site_hse06_10hf_magmom
 _atom_site_hse06_ddec_charge
 _atom_site_hse06_ddec_spin_density
 _atom_site_hse06_ddec_sum_bond_order
 _atom_site_hse06_magmom
 _atom_site_pbe_cm5_charge
 _atom_site_pbe_ddec_charge
 _atom_site_pbe_ddec_spin_density
 _atom_site_pbe_ddec_sum_bond_order
 _atom_site_pbe_magmom
Co  Co0  1  0.80787918  0.69683715  0.38997124  1  0.990832  2.850827  1.95007  2.587  0.958996  2.84908  2.345388  2.654  1.03548  2.887479  2.277969  2.73  0.664395  0.88526  2.811031  2.414554  2.579
Co  Co1  1  0.19211191  0.30319186  0.61008151  1  0.991847  2.851315  1.949813  2.588  0.959006  2.849076  2.345304  2.654  1.035514  2.887473  2.277871  2.73  0.664435  0.885301  2.811034  2.41448  2.579
H  H2  1  0.70143017  0.88736810  0.57517587  1  0.121444  -0.000374  0.985774  0.0  0.126372  -0.000234  1.0568  0.0  0.131296  -0.000258  1.052798  0.0  0.106621  0.122632  -0.000214  1.059986  0.0
H  H3  1  0.29855778  0.11266455  0.42485055  1  0.121425  -0.000378  0.985771  0.0  0.126335  -0.000235  1.056836  0.0  0.131264  -0.000258  1.05282  0.0  0.106555  0.122592  -0.000215  1.060026  0.0
H  H4  1  0.51491180  0.94064260  0.94036090  1  0.095646  2.2e-05  0.981771  0.0  0.107174  5.2e-05  1.045448  0.0  0.110709  3.7e-05  1.043088  0.0  0.099225  0.104286  7.2e-05  1.047974  0.0
H  H5  1  0.48505561  0.05938326  0.05966267  1  0.095676  2.1e-05  0.981609  0.0  0.107206  5.2e-05  1.045283  0.0  0.110735  3.7e-05  1.042929  0.0  0.099241  0.10433  7.2e-05  1.047807  0.0
H  H6  1  0.94583303  0.54328897  0.89770440  1  0.083572  4.9e-05  1.003659  0.0  0.096647  4.2e-05  1.067688  0.0  0.100399  1.8e-05  1.064654  0.0  0.095311  0.093679  0.000101  1.070195  0.0
H  H7  1  0.05412735  0.45672297  0.10234311  1  0.083424  4.9e-05  1.003753  0.0  0.096509  4.2e-05  1.067761  0.0  0.100243  1.8e-05  1.064745  0.0  0.09529  0.093505  0.000101  1.070371  0.0
H  H8  1  0.79674306  0.36254642  0.53731545  1  0.105743  2.4e-05  0.977378  0.001  0.113873  6.1e-05  1.040496  0.0  0.11645  -2.1e-05  1.039452  0.0  0.112914  0.111814  0.000149  1.041389  0.001
H  H9  1  0.20322356  0.63746162  0.46262189  1  0.105805  2.4e-05  0.977628  0.001  0.113962  6e-05  1.040704  0.0  0.116542  -2.1e-05  1.039655  0.0  0.112922  0.111904  0.000148  1.041594  0.001
H  H10  1  0.54686510  0.34562526  0.70767295  1  0.121749  9.8e-05  0.971202  0.0  0.12919  0.000103  1.037501  0.0  0.132811  3.8e-05  1.035132  0.0  0.116962  0.126318  0.000182  1.039473  0.0
H  H11  1  0.45313968  0.65438452  0.29232414  1  0.121916  0.000101  0.970949  0.0  0.129354  0.000102  1.037271  0.0  0.132975  3.8e-05  1.034902  0.0  0.117014  0.126479  0.000181  1.039248  0.0
H  H12  1  0.47574693  0.81226805  0.56029712  1  0.102845  5.7e-05  0.958418  0.001  0.110596  0.000105  1.02427  0.0  0.113732  3e-05  1.020752  0.0  0.131756  0.107734  0.000183  1.02744  0.0
H  H13  1  0.52425081  0.18774556  0.43964739  1  0.102708  5.8e-05  0.958459  0.001  0.110331  0.000104  1.024513  0.0  0.113446  3e-05  1.021025  0.0  0.131682  0.107476  0.000183  1.027683  0.0
H  H14  1  0.31300311  0.53247389  0.78808310  1  0.081516  -3e-06  0.954978  0.0  0.097053  -4.4e-05  1.019091  0.0  0.098494  -5.3e-05  1.018407  0.0  0.11088  0.095501  2e-06  1.020398  0.0
H  H15  1  0.68701846  0.46753479  0.21189614  1  0.081492  -5e-06  0.955037  0.0  0.097058  -4.4e-05  1.019147  0.0  0.098472  -5.3e-05  1.018492  0.0  0.110846  0.095513  2e-06  1.020442  0.0
H  H16  1  0.22492010  0.71901057  0.68852325  1  0.070504  -0.000211  0.910592  0.0  0.090029  -0.000119  0.966238  0.0  0.090146  -7.7e-05  0.966445  0.0  0.108229  0.089264  -0.000121  0.967019  0.0
H  H17  1  0.77508623  0.28101648  0.31146933  1  0.0704  -0.000216  0.910625  0.0  0.089953  -0.000119  0.9663  0.0  0.090061  -7.7e-05  0.966512  0.0  0.108183  0.089185  -0.000121  0.967087  0.0
H  H18  1  0.36084875  0.81996189  0.79079657  1  0.073175  -7.1e-05  0.959601  0.0  0.089053  -7.4e-05  1.025113  0.0  0.08923  -7.4e-05  1.027048  0.0  0.091406  0.088579  -7.4e-05  1.024025  0.0
H  H19  1  0.63916257  0.18004322  0.20920798  1  0.073118  -6.8e-05  0.959693  0.0  0.089023  -7.4e-05  1.025137  0.0  0.089199  -7.4e-05  1.027076  0.0  0.091422  0.08855  -7.4e-05  1.02405  0.0
H  H20  1  0.48470473  0.63393299  0.87519179  1  0.073226  3e-06  0.927348  0.0  0.094021  0.0  0.98239  0.0  0.09429  1e-06  0.984046  0.0  0.092833  0.094042  -9e-06  0.980493  0.0
H  H21  1  0.51530673  0.36606640  0.12480973  1  0.073145  2e-06  0.927377  0.0  0.093895  0.0  0.982472  0.0  0.094179  1e-06  0.984107  0.0  0.092815  0.093918  -9e-06  0.980574  0.0
H  H22  1  0.11349351  0.77222019  0.90687088  1  0.063523  1.7e-05  0.955487  0.0  0.078738  3e-06  1.024506  0.0  0.078692  7e-06  1.02676  0.0  0.087956  0.078986  -3e-06  1.022084  0.0
H  H23  1  0.88651741  0.22777233  0.09312619  1  0.063522  1.3e-05  0.955489  0.0  0.07872  3e-06  1.024534  0.0  0.078675  7e-06  1.02679  0.0  0.087939  0.078975  -3e-06  1.022107  0.0
H  H24  1  0.25539220  0.60364633  0.00245279  1  0.068984  -7e-06  0.942199  0.0  0.088322  1e-06  1.002593  0.0  0.088695  6e-06  1.003588  0.0  0.091313  0.087887  -1.4e-05  1.001815  0.0
H  H25  1  0.74461628  0.39635195  0.99754314  1  0.069003  -8e-06  0.942157  0.0  0.088331  1e-06  1.002573  0.0  0.088703  6e-06  1.003567  0.0  0.091311  0.087909  -1.4e-05  1.001777  0.0
H  H26  1  0.37115761  0.76751668  0.05950321  1  0.074161  -2e-06  0.919879  0.0  0.093243  5e-05  0.979405  0.0  0.093638  3.9e-05  0.979469  0.0  0.109602  0.092384  5.1e-05  0.98004  0.0
H  H27  1  0.62884156  0.23248043  0.94050308  1  0.074095  1e-06  0.919802  0.0  0.093145  5e-05  0.979367  0.0  0.093535  3.9e-05  0.97943  0.0  0.109574  0.092286  5.1e-05  0.98  0.0
H  H28  1  0.22826365  0.93406997  0.96255540  1  0.076926  -0.000116  0.914317  0.0  0.094603  -7.9e-05  0.973667  0.0  0.094799  -7e-05  0.974319  0.0  0.110533  0.09437  -7.6e-05  0.973162  0.0
H  H29  1  0.77173494  0.06592598  0.03745305  1  0.076916  -0.000113  0.914298  0.0  0.094572  -7.9e-05  0.973653  0.0  0.094765  -7e-05  0.974302  0.0  0.110544  0.094338  -7.6e-05  0.973149  0.0
H  H30  1  0.03314970  0.67230541  0.13137152  1  0.082106  -7e-06  0.987969  0.001  0.08775  -3e-06  1.062584  0.0  0.090135  -4.2e-05  1.059291  0.0  0.127629  0.086244  -1.4e-05  1.064164  0.0
H  H31  1  0.96689695  0.32764778  0.86864246  1  0.082  -7e-06  0.98807  0.001  0.087769  -3e-06  1.062581  0.0  0.090157  -4.1e-05  1.059286  0.0  0.127633  0.086246  -1.4e-05  1.064172  0.0
H  H32  1  0.93992078  0.96353700  0.36721766  1  0.10623  -3e-05  0.935077  0.0  0.119943  2.7e-05  0.986291  0.0  0.122719  -3e-06  0.984547  0.0  0.121605  0.117499  7.1e-05  0.988327  0.0
H  H33  1  0.06010410  0.03640242  0.63280783  1  0.106381  -3.3e-05  0.934815  0.0  0.120028  2.7e-05  0.986115  0.0  0.122835  -3e-06  0.984333  0.0  0.121625  0.117582  7.1e-05  0.988156  0.0
H  H34  1  0.17116697  0.00716026  0.18729528  1  0.106226  0.000159  1.001037  0.0  0.112849  0.000169  1.070054  0.0  0.113984  0.000133  1.071823  0.0  0.113058  0.112266  0.00025  1.068265  0.0
H  H35  1  0.82879314  0.99286348  0.81270571  1  0.106275  0.000156  1.00108  0.0  0.112927  0.000169  1.070073  0.0  0.114062  0.000134  1.071843  0.0  0.113123  0.112342  0.00025  1.068285  0.0
H  H36  1  0.66777588  0.74835945  0.11937707  1  0.328101  -0.000112  0.947221  0.0  0.311019  -4.7e-05  1.013352  0.0  0.319163  -9.2e-05  1.006354  0.0  0.288762  0.305243  -2e-06  1.018038  0.0
H  H37  1  0.33223108  0.25160986  0.88065834  1  0.328058  -0.000113  0.947147  0.0  0.311036  -4.7e-05  1.013218  0.0  0.319146  -9.2e-05  1.006275  0.0  0.288836  0.305298  -2e-06  1.017841  0.0
H  H38  1  0.83572690  0.59075468  0.10432984  1  0.29776  -1.3e-05  0.943123  0.0  0.285569  -2.1e-05  1.005036  0.0  0.291777  -5.6e-05  1.000031  0.0  0.288688  0.28092  5e-05  1.008988  0.0
H  H39  1  0.16425586  0.40925178  0.89566283  1  0.297777  -1.3e-05  0.942987  0.0  0.285581  -2e-05  1.004937  0.0  0.291791  -5.5e-05  0.99993  0.0  0.288635  0.280929  5.1e-05  1.008888  0.0
C  C40  1  0.84053330  0.70819328  0.72824990  1  -0.041603  0.005031  3.79865  0.008  -0.017856  0.002427  4.034115  0.004  -0.022875  0.001389  4.054573  0.003  -0.022377  -0.013992  0.003745  4.020615  0.006
C  C41  1  0.15948369  0.29183118  0.27177937  1  -0.04208  0.00501  3.79861  0.008  -0.018286  0.002423  4.034137  0.004  -0.023345  0.001386  4.054661  0.003  -0.022365  -0.01441  0.003743  4.020619  0.006
C  C42  1  0.71267260  0.84658107  0.67534114  1  -0.132802  -0.002442  3.725186  -0.001  -0.17334  6.6e-05  3.978615  0.0  -0.174545  -2.7e-05  3.996438  0.0  -0.101905  -0.173807  -0.000584  3.968288  0.0
C  C43  1  0.28735131  0.15343994  0.32468367  1  -0.132461  -0.002378  3.72475  -0.001  -0.172962  7.2e-05  3.978207  0.0  -0.174155  -2.5e-05  3.996041  0.0  -0.101812  -0.173422  -0.000572  3.967883  0.0
C  C44  1  0.59669847  0.92882224  0.75313194  1  -0.034576  0.00225  3.818489  0.003  -0.009019  0.000713  4.05358  0.001  -0.010994  0.000311  4.070535  0.001  -0.020552  -0.008142  0.001275  4.043258  0.002
C  C45  1  0.40328833  0.07118634  0.24688639  1  -0.034586  0.002233  3.817956  0.003  -0.009202  0.000711  4.053202  0.001  -0.011186  0.00031  4.070158  0.001  -0.020476  -0.008342  0.001274  4.042922  0.002
C  C46  1  0.60861135  0.87617126  0.88182022  1  -0.208992  -0.004324  3.706334  -0.003  -0.23976  0.000131  3.957142  0.001  -0.24231  0.000434  3.972638  0.001  -0.105358  -0.23811  -0.001108  3.947389  0.0
C  C47  1  0.39136510  0.12384548  0.11818492  1  -0.209064  -0.004265  3.705948  -0.003  -0.239887  0.000142  3.956753  0.001  -0.242432  0.000442  3.972244  0.001  -0.105547  -0.23824  -0.00109  3.947008  0.0
C  C48  1  0.73342099  0.73503781  0.93684717  1  0.309432  0.000867  3.90715  0.001  0.307206  1.8e-05  4.16091  0.0  0.316938  -0.000109  4.18056  0.0  0.089891  0.300475  0.000226  4.145372  0.001
C  C49  1  0.26654996  0.26498463  0.06316970  1  0.309083  0.000852  3.907921  0.001  0.307134  1.7e-05  4.161302  0.0  0.316863  -0.000115  4.18095  0.0  0.089921  0.300412  0.000226  4.145752  0.001
C  C50  1  0.96029096  0.61502928  0.64518694  1  0.657977  -0.010333  3.848763  -0.006  0.61429  0.002689  4.146901  0.006  0.655127  0.002988  4.1357  0.006  0.218464  0.581939  0.001132  4.154188  0.004
C  C51  1  0.03971310  0.38498039  0.35482807  1  0.65812  -0.010259  3.849274  -0.006  0.614411  0.002714  4.147479  0.006  0.655227  0.003001  4.136333  0.006  0.218485  0.582071  0.001178  4.154743  0.004
C  C52  1  0.45077365  0.06831043  0.70003316  1  0.627221  -0.013527  3.902171  -0.01  0.578905  -0.005802  4.204258  -0.004  0.614001  -0.004403  4.198287  -0.003  0.202323  0.554221  -0.007109  4.204734  -0.006
C  C53  1  0.54923037  0.93167416  0.29995162  1  0.627927  -0.013514  3.901893  -0.01  0.579806  -0.005799  4.203777  -0.004  0.614915  -0.0044  4.197773  -0.003  0.202612  0.555127  -0.007105  4.204266  -0.006
C  C54  1  0.69255127  0.45311207  0.56679795  1  0.010691  -0.007261  3.740917  -0.005  -0.024206  -0.002202  4.019601  -0.001  -0.021336  -0.002301  4.038713  -0.001  -0.007743  -0.026365  -0.002107  4.006452  -0.001
C  C55  1  0.30743594  0.54689571  0.43316535  1  0.010357  -0.007259  3.741488  -0.005  -0.024562  -0.002205  4.020158  -0.001  -0.021698  -0.002305  4.039279  -0.001  -0.007809  -0.026707  -0.002111  4.006998  -0.001
C  C56  1  0.84961529  0.65356388  0.85737114  1  -0.214898  -0.003008  3.724269  -0.002  -0.247373  0.000445  3.977778  0.001  -0.250457  0.000552  3.995634  0.001  -0.111452  -0.243557  -0.000194  3.962792  0.0
C  C57  1  0.15038459  0.34645843  0.14264568  1  -0.214477  -0.002963  3.724269  -0.002  -0.24705  0.000452  3.977669  0.001  -0.250107  0.000555  3.995563  0.001  -0.11141  -0.243248  -0.000183  3.962667  0.0
C  C58  1  0.57374177  0.44260001  0.65408329  1  -0.071953  0.00404  3.667513  0.005  -0.112985  0.001432  3.929569  0.002  -0.11195  0.001181  3.948053  0.002  -0.006242  -0.113226  0.001666  3.917408  0.002
C  C59  1  0.42624877  0.55740542  0.34588641  1  -0.07206  0.004028  3.667676  0.005  -0.113088  0.00143  3.929716  0.002  -0.112052  0.001179  3.948206  0.002  -0.006345  -0.113322  0.001664  3.917545  0.002
C  C60  1  0.53037537  0.68792981  0.57426382  1  0.148473  -0.011671  3.64658  -0.007  0.096906  -0.001725  3.909202  -0.001  0.110602  -0.001232  3.92241  0.0  0.133805  0.087446  -0.002544  3.899994  -0.001
C  C61  1  0.46961551  0.31208254  0.42570144  1  0.148742  -0.011668  3.646454  -0.007  0.09724  -0.001723  3.909143  -0.001  0.110947  -0.001232  3.922355  0.0  0.133796  0.087773  -0.002544  3.899941  -0.001
C  C62  1  0.33321029  0.63684516  0.74255294  1  0.007187  0.000507  3.621028  0.001  -0.055661  0.000383  3.878443  0.001  -0.050912  0.000284  3.888402  0.001  -0.052209  -0.058789  0.000447  3.872712  0.001
C  C63  1  0.66679779  0.36316931  0.25742922  1  0.007362  0.000514  3.62127  0.001  -0.055628  0.000384  3.878812  0.001  -0.050853  0.000283  3.888763  0.001  -0.052192  -0.058757  0.000447  3.873082  0.001
C  C64  1  0.36230299  0.70591264  0.83802855  1  -0.125965  -0.000235  3.670995  0.0  -0.165106  -0.000124  3.931135  0.0  -0.166965  -9.8e-05  3.945853  0.0  -0.163825  -0.163824  -0.000119  3.921134  0.0
C  C65  1  0.63771164  0.29408678  0.16196544  1  -0.125842  -0.000239  3.671071  0.0  -0.164882  -0.000124  3.931153  0.0  -0.166751  -9.8e-05  3.945858  0.0  -0.163798  -0.163603  -0.000119  3.92116  0.0
C  C66  1  0.23623969  0.71965398  0.94438075  1  -0.127717  -3e-06  3.691057  0.0  -0.169433  2.2e-05  3.95302  0.0  -0.170906  2.2e-05  3.967291  0.0  -0.164257  -0.168476  2.7e-05  3.943724  0.0
C  C67  1  0.76377103  0.28034430  0.05561580  1  -0.127717  7e-06  3.691051  0.0  -0.169473  2.3e-05  3.95302  0.0  -0.170952  2.2e-05  3.967292  0.0  -0.164262  -0.168526  2.7e-05  3.94372  0.0
C  C68  1  0.24867584  0.81841488  0.02176442  1  0.012277  0.000482  3.616997  0.001  -0.051066  0.000399  3.878872  0.001  -0.046122  0.000309  3.889452  0.0  -0.050598  -0.054691  0.000513  3.872809  0.001
C  C69  1  0.75132863  0.18157994  0.97823644  1  0.012275  0.000477  3.616953  0.001  -0.050984  0.000399  3.878711  0.001  -0.046025  0.00031  3.889273  0.0  -0.050624  -0.05461  0.000513  3.872651  0.001
C  C70  1  0.03567551  0.75913724  0.17045818  1  0.154995  -0.012823  3.67548  -0.008  0.097501  -0.003634  3.947384  -0.002  0.112137  -0.003197  3.95977  -0.001  0.133652  0.08749  -0.00431  3.937935  -0.002
C  C71  1  0.96433493  0.24083569  0.82954829  1  0.155166  -0.01281  3.675777  -0.008  0.097555  -0.003632  3.947636  -0.002  0.11219  -0.003192  3.960013  -0.001  0.1337  0.087564  -0.004307  3.938182  -0.002
C  C72  1  0.99217953  0.91090528  0.29020793  1  0.013214  -0.005844  3.742227  -0.004  -0.015563  -0.001873  4.008875  -0.001  -0.012243  -0.001929  4.026271  -0.001  0.000821  -0.018662  -0.002175  3.997867  -0.001
C  C73  1  0.00784026  0.08906413  0.70980358  1  0.013117  -0.005828  3.742168  -0.004  -0.015633  -0.001866  4.008847  -0.001  -0.012339  -0.001921  4.026235  -0.001  0.000829  -0.018736  -0.002169  3.997847  -0.001
C  C74  1  0.10573277  0.93417635  0.20196003  1  -0.07994  0.002944  3.684785  0.004  -0.11575  0.000952  3.937759  0.001  -0.114301  0.000826  3.957298  0.001  -0.005915  -0.116762  0.001179  3.924866  0.001
C  C75  1  0.89427377  0.06580346  0.79805144  1  -0.080037  0.00295  3.684735  0.004  -0.115852  0.000953  3.937658  0.001  -0.114408  0.000827  3.957212  0.001  -0.006004  -0.11686  0.001181  3.924759  0.001
N  N76  1  0.66446845  0.60648509  0.51743162  1  -0.387488  0.031467  3.340798  0.061  -0.344358  0.021852  3.640515  0.037  -0.369681  0.018118  3.65535  0.03  -0.358419  -0.324228  0.024717  3.630955  0.041
N  N77  1  0.33552488  0.39351915  0.48254158  1  -0.387417  0.03144  3.340487  0.061  -0.344152  0.021839  3.640065  0.037  -0.369475  0.018103  3.654909  0.03  -0.358304  -0.324033  0.024707  3.630514  0.041
N  N78  1  0.47208561  0.59225936  0.65775196  1  -0.06436  -0.000461  3.579084  0.001  0.031578  0.00027  3.794471  0.001  0.017075  0.000241  3.820684  0.001  -0.247861  0.040853  0.000205  3.776957  0.001
N  N79  1  0.52790691  0.40775182  0.34221516  1  -0.064581  -0.000463  3.579344  0.001  0.031438  0.000269  3.794711  0.001  0.016931  0.000243  3.820913  0.001  -0.247736  0.040718  0.000205  3.777196  0.001
N  N80  1  0.13142757  0.83746964  0.12593302  1  -0.072912  -0.000223  3.567776  0.001  0.022328  0.000139  3.784163  0.001  0.007724  0.000123  3.809901  0.001  -0.245938  0.031692  4.3e-05  3.76761  0.001
N  N81  1  0.86857724  0.16252173  0.87406777  1  -0.072874  -0.000232  3.568052  0.001  0.022359  0.000139  3.784438  0.001  0.007751  0.000123  3.810176  0.001  -0.245903  0.031721  4.4e-05  3.767878  0.001
N  N82  1  0.94943668  0.80128101  0.26968284  1  -0.36865  0.027797  3.316786  0.053  -0.329062  0.020655  3.618544  0.034  -0.352146  0.017496  3.6321  0.029  -0.353896  -0.310865  0.023052  3.609812  0.038
N  N83  1  0.05058317  0.19868838  0.73033135  1  -0.368865  0.027799  3.317274  0.053  -0.329165  0.02067  3.618964  0.034  -0.352252  0.017509  3.632525  0.029  -0.353951  -0.310982  0.023067  3.610251  0.038
N  N84  1  0.73342046  0.67634331  0.06304278  1  -0.676172  0.000339  3.142365  0.001  -0.645113  1.3e-05  3.376533  0.0  -0.664767  -0.000116  3.375363  0.0  -0.607011  -0.630702  0.000232  3.376432  0.0
N  N85  1  0.26656497  0.32365497  0.93696851  1  -0.675945  0.000337  3.142396  0.001  -0.645067  1.2e-05  3.376437  0.0  -0.664696  -0.000116  3.37532  0.0  -0.606962  -0.630679  0.000233  3.376257  0.0
O  O86  1  0.07428548  0.48748575  0.69514258  1  -0.616231  0.039673  2.058629  0.068  -0.577052  0.032393  2.331173  0.051  -0.611339  0.024243  2.318123  0.038  -0.305756  -0.548131  0.04108  2.340478  0.065
O  O87  1  0.92573963  0.51250546  0.30487084  1  -0.615906  0.039634  2.058599  0.068  -0.576936  0.032372  2.33133  0.051  -0.611159  0.024224  2.318194  0.038  -0.305713  -0.548014  0.041059  2.340633  0.065
O  O88  1  0.94310402  0.66854720  0.52835395  1  -0.622083  0.039262  2.159202  0.068  -0.594988  0.02932  2.453235  0.046  -0.632364  0.020206  2.439475  0.031  -0.311108  -0.558527  0.041378  2.459127  0.065
O  O89  1  0.05689545  0.33142105  0.47167287  1  -0.622325  0.039236  2.158342  0.068  -0.595063  0.029305  2.452265  0.046  -0.632422  0.020192  2.438487  0.031  -0.311166  -0.558594  0.041374  2.458139  0.065
O  O90  1  0.40139016  0.18882656  0.74119546  1  -0.628385  0.031074  2.029924  0.055  -0.590826  0.024787  2.285319  0.042  -0.624513  0.018031  2.278168  0.032  -0.309046  -0.562342  0.031721  2.288015  0.052
O  O91  1  0.59856181  0.81116655  0.25875189  1  -0.628748  0.031056  2.029193  0.055  -0.591334  0.024767  2.284487  0.042  -0.625027  0.018013  2.277318  0.032  -0.309119  -0.562838  0.031701  2.287178  0.052
O  O92  1  0.37407323  0.06398635  0.61575661  1  -0.591564  0.035795  1.982423  0.065  -0.555241  0.027174  2.236112  0.048  -0.589535  0.01962  2.229191  0.035  -0.297259  -0.525861  0.035958  2.238104  0.061
O  O93  1  0.62594762  0.93597538  0.38419884  1  -0.591593  0.035838  1.983085  0.065  -0.555474  0.027199  2.236836  0.048  -0.589769  0.019641  2.229895  0.036  -0.297379  -0.526088  0.035981  2.238836  0.061
