# generated using pymatgen
data_AlH15C21(N2O3)2
_symmetry_space_group_name_H-M   'P 1'
_cell_length_a   4.12066191
_cell_length_b   13.48446447
_cell_length_c   13.48467007
_cell_angle_alpha   119.99943669
_cell_angle_beta   90.00060333
_cell_angle_gamma   89.99962827
_symmetry_Int_Tables_number   1
_chemical_formula_structural   AlH15C21(N2O3)2
_chemical_formula_sum   'Al1 H15 C21 N4 O6'
_cell_volume   648.89452255
_cell_formula_units_Z   1
loop_
 _symmetry_equiv_pos_site_id
 _symmetry_equiv_pos_as_xyz
  1  'x, y, z'
loop_
 _atom_site_type_symbol
 _atom_site_label
 _atom_site_symmetry_multiplicity
 _atom_site_fract_x
 _atom_site_fract_y
 _atom_site_fract_z
 _atom_site_occupancy
 _atom_site_pbe_bader_charge
 _atom_site_pbe_bader_spin_density
 _atom_site_pbe_cm5_charge
 _atom_site_pbe_ddec_charge
 _atom_site_pbe_ddec_spin_density
 _atom_site_pbe_ddec_sum_bond_order
 _atom_site_pbe_magmom
Al  Al0  1  0.00495626  0.49998752  0.49998416  1  2.508928  0  0.43615  1.608573  0  2.563024  0
H  H1  1  0.19276734  0.81537139  0.78287244  1  0.061861  0  0.106145  0.111599  0  0.98183  0
H  H2  1  0.19450311  0.02688570  0.89404851  1  0.059729  0  0.096457  0.103698  0  1.049075  0
H  H3  1  0.79147069  0.03362858  0.63595857  1  0.051927  0  0.101264  0.116744  0  1.042253  0
H  H4  1  0.79144889  0.10232358  0.96637911  1  0.05367  0  0.101293  0.116758  0  1.042307  0
H  H5  1  0.19275844  0.46750135  0.18462240  1  0.05874  0  0.106106  0.111624  0  0.981632  0
H  H6  1  0.19451295  0.36716540  0.97311231  1  0.054054  0  0.096461  0.10369  0  1.04917  0
H  H7  1  0.79147162  0.36404751  0.89766292  1  0.049737  0  0.101299  0.116717  0  1.042227  0
H  H8  1  0.19277918  0.21711545  0.53249796  1  0.083128  0  0.106134  0.111622  0  0.981833  0
H  H9  1  0.19450267  0.10594852  0.63284347  1  0.057808  0  0.09645  0.10369  0  1.049088  0
H  H10  1  0.95812568  0.73560946  0.48988529  1  0.465233  0  0.293156  0.29572  0  0.98575  0
H  H11  1  0.00408349  0.85945997  0.49201688  1  0.409131  0  0.301073  0.298024  0  0.937182  0
H  H12  1  0.95815125  0.25426348  0.26437645  1  0.466481  0  0.293225  0.295738  0  0.985826  0
H  H13  1  0.00407799  0.13254795  0.14053513  1  0.421308  0  0.301064  0.297967  0  0.93723  0
H  H14  1  0.95819554  0.51009779  0.74571588  1  0.456961  0  0.293183  0.295609  0  0.985884  0
H  H15  1  0.00412519  0.50796067  0.86742705  1  0.419663  0  0.301104  0.29798  0  0.937245  0
C  C16  1  0.50425508  0.40897568  0.32345436  1  1.570054  0  0.285291  0.702351  0  4.016318  0
C  C17  1  0.50426443  0.41447046  0.59101356  1  1.567433  0  0.28521  0.702352  0  4.016167  0
C  C18  1  0.50425426  0.67653617  0.58551119  1  1.571201  0  0.285234  0.702378  0  4.016381  0
C  C19  1  0.33064464  0.86348022  0.75191186  1  0.020079  0  -0.089715  -0.07021  0  4.043078  0
C  C20  1  0.32701394  0.98236922  0.81395346  1  -0.0116  0  -0.115466  -0.213111  0  4.04242  0
C  C21  1  0.49071781  0.04513951  0.77184372  1  0.266519  0  0.093128  0.207849  0  4.037872  0
C  C22  1  0.66019819  0.98574091  0.66838757  1  0.058615  0  -0.112866  -0.304609  0  3.962844  0
C  C23  1  0.67476647  0.86582699  0.60679393  1  0.395048  0  0.092871  0.289249  0  4.10488  0
C  C24  1  0.50242903  0.80419111  0.64915132  1  -0.022044  0  -0.036713  -0.188336  0  3.975865  0
C  C25  1  0.66019077  0.18264293  0.01426242  1  -0.071178  0  -0.112824  -0.304586  0  3.963133  0
C  C26  1  0.67476995  0.24095437  0.13416858  1  0.464647  0  0.092706  0.289208  0  4.105059  0
C  C27  1  0.50242621  0.34495646  0.19580077  1  -0.006994  0  -0.036668  -0.188303  0  3.976032  0
C  C28  1  0.33064651  0.38842366  0.13651252  1  -0.100144  0  -0.089711  -0.070339  0  4.043293  0
C  C29  1  0.32700490  0.33158342  0.01762542  1  0.101015  0  -0.115483  -0.21303  0  4.042234  0
C  C30  1  0.49073840  0.22669491  0.95485899  1  0.270027  0  0.092988  0.207564  0  4.038051  0
C  C31  1  0.66020528  0.33161999  0.81734975  1  -0.011302  0  -0.112819  -0.304503  0  3.962625  0
C  C32  1  0.67475954  0.39320549  0.75902460  1  0.445839  0  0.092916  0.289349  0  4.105282  0
C  C33  1  0.50243882  0.35083994  0.65503221  1  -0.058043  0  -0.036736  -0.188429  0  3.975954  0
C  C34  1  0.33063183  0.24807569  0.61157165  1  -0.001558  0  -0.089642  -0.070224  0  4.043064  0
C  C35  1  0.32701026  0.18604596  0.66842331  1  -0.010537  0  -0.115521  -0.21312  0  4.042794  0
C  C36  1  0.49070860  0.22815469  0.77329690  1  0.274471  0  0.093049  0.207747  0  4.037748  0
N  N37  1  0.48565526  0.16667117  0.83333990  1  -1.209458  0  -0.246451  -0.142363  0  3.600817  0
N  N38  1  0.84435458  0.80883599  0.50384733  1  -1.193387  0  -0.606536  -0.625108  0  3.257844  0
N  N39  1  0.84436552  0.19500849  0.19115971  1  -1.216468  0  -0.606463  -0.624926  0  3.258105  0
N  N40  1  0.84441158  0.49614076  0.80497935  1  -1.208108  0  -0.606626  -0.624935  0  3.258083  0
O  O41  1  0.74122188  0.62668506  0.60337120  1  -1.259583  0  -0.237079  -0.605123  0  2.346146  0
O  O42  1  0.74123655  0.47668087  0.37330091  1  -1.261255  0  -0.237052  -0.605182  0  2.346197  0
O  O43  1  0.74123025  0.39661126  0.52329969  1  -1.258342  0  -0.236977  -0.605205  0  2.346098  0
O  O44  1  0.26900745  0.62457144  0.51669439  1  -1.264219  0  -0.234143  -0.607416  0  2.355059  0
O  O45  1  0.26900809  0.48328777  0.60786284  1  -1.258565  0  -0.234221  -0.607353  0  2.354803  0
O  O46  1  0.26901724  0.39211913  0.37541755  1  -1.260519  0  -0.234245  -0.607389  0  2.354958  0
