# generated using pymatgen
data_CdH4C6BrNO2
_symmetry_space_group_name_H-M   'P 1'
_cell_length_a   3.90124050
_cell_length_b   12.92213406
_cell_length_c   15.05342002
_cell_angle_alpha   89.99975808
_cell_angle_beta   96.76183557
_cell_angle_gamma   89.99994110
_symmetry_Int_Tables_number   1
_chemical_formula_structural   CdH4C6BrNO2
_chemical_formula_sum   'Cd4 H16 C24 Br4 N4 O8'
_cell_volume   753.59968116
_cell_formula_units_Z   4
loop_
 _symmetry_equiv_pos_site_id
 _symmetry_equiv_pos_as_xyz
  1  'x, y, z'
loop_
 _atom_site_type_symbol
 _atom_site_label
 _atom_site_symmetry_multiplicity
 _atom_site_fract_x
 _atom_site_fract_y
 _atom_site_fract_z
 _atom_site_occupancy
 _atom_site_hle17_bader_spin_density
 _atom_site_hle17_ddec_charge
 _atom_site_hle17_ddec_spin_density
 _atom_site_hle17_ddec_sum_bond_order
 _atom_site_hle17_magmom
 _atom_site_hse06_10hf_bader_charge
 _atom_site_hse06_10hf_bader_spin_density
 _atom_site_hse06_10hf_ddec_charge
 _atom_site_hse06_10hf_ddec_spin_density
 _atom_site_hse06_10hf_ddec_sum_bond_order
 _atom_site_hse06_10hf_magmom
 _atom_site_hse06_bader_spin_density
 _atom_site_hse06_ddec_charge
 _atom_site_hse06_ddec_spin_density
 _atom_site_hse06_ddec_sum_bond_order
 _atom_site_hse06_magmom
 _atom_site_pbe_bader_spin_density
 _atom_site_pbe_cm5_charge
 _atom_site_pbe_ddec_charge
 _atom_site_pbe_ddec_spin_density
 _atom_site_pbe_ddec_sum_bond_order
 _atom_site_pbe_magmom
Cd  Cd0  1  0.62020728  0.57731832  0.74986158  1  0  1.010239  0  1.823618  0  1.189088  0  0.838073  0  2.277451  0  0  0.892463  0  2.229707  0  0  0.649594  0.799375  0  2.310519  0
Cd  Cd1  1  0.87978399  0.07731804  0.75013711  1  0  1.010276  0  1.823505  0  1.189141  0  0.838103  0  2.277357  0  0  0.892506  0  2.229606  0  0  0.649602  0.799411  0  2.310397  0
Cd  Cd2  1  0.37978398  0.42268182  0.25013710  1  0  1.010256  0  1.823569  0  1.189136  0  0.838095  0  2.277418  0  0  0.892488  0  2.229673  0  0  0.649608  0.799402  0  2.310473  0
Cd  Cd3  1  0.12019695  0.92268055  0.24986192  1  0  1.010245  0  1.823575  0  1.18909  0  0.838072  0  2.277423  0  0  0.89247  0  2.229681  0  0  0.649589  0.799375  0  2.310476  0
H  H4  1  0.83329671  0.92266621  0.04747857  1  0  0.071814  0  0.948302  0  0.109442  0  0.077561  0  1.018924  0  0  0.080152  0  1.016916  0  0  0.104851  0.075665  0  1.020382  0
H  H5  1  0.66669678  0.42266811  0.45251619  1  0  0.072031  0  0.94827  0  0.109646  0  0.077708  0  1.018949  0  0  0.080298  0  1.016943  0  0  0.104882  0.075813  0  1.020408  0
H  H6  1  0.16671003  0.07733238  0.95251659  1  0  0.071848  0  0.948263  0  0.10942  0  0.077583  0  1.018899  0  0  0.080173  0  1.016893  0  0  0.104828  0.075692  0  1.020359  0
H  H7  1  0.33328932  0.57733744  0.54748499  1  0  0.07198  0  0.948276  0  0.10951  0  0.077619  0  1.019014  0  0  0.080207  0  1.01701  0  0  0.104867  0.075723  0  1.020472  0
H  H8  1  0.90316606  0.82735398  0.90554784  1  0  0.116395  0  0.97386  0  0.138338  0  0.122955  0  1.041537  0  0  0.126763  0  1.039246  0  0  0.093187  0.119958  0  1.043734  0
H  H9  1  0.59683189  0.32736076  0.59445081  1  0  0.116313  0  0.973667  0  0.13844  0  0.12283  0  1.041411  0  0  0.126673  0  1.039074  0  0  0.093132  0.119819  0  1.043622  0
H  H10  1  0.09685360  0.17264229  0.09445037  1  0  0.116429  0  0.973862  0  0.138365  0  0.122928  0  1.041595  0  0  0.126782  0  1.039247  0  0  0.093177  0.119914  0  1.043806  0
H  H11  1  0.40315421  0.67264402  0.40555037  1  0  0.11635  0  0.973729  0  0.138452  0  0.122842  0  1.041493  0  0  0.126701  0  1.039133  0  0  0.093131  0.119831  0  1.043711  0
H  H12  1  0.47411975  0.59352942  0.06556032  1  0  0.129277  0  0.950911  0  0.164599  0  0.134532  0  1.01593  0  0  0.138566  0  1.013861  0  0  0.110782  0.131636  0  1.017487  0
H  H13  1  0.02588065  0.09353070  0.43443982  1  0  0.129298  0  0.951006  0  0.16461  0  0.134557  0  1.016007  0  0  0.138596  0  1.013937  0  0  0.110782  0.131656  0  1.017565  0
H  H14  1  0.52588184  0.40646917  0.93444067  1  0  0.129329  0  0.950914  0  0.164626  0  0.134591  0  1.015919  0  0  0.138628  0  1.013853  0  0  0.110811  0.131693  0  1.017481  0
H  H15  1  0.97411578  0.90646789  0.56556034  1  0  0.129301  0  0.950958  0  0.164602  0  0.134572  0  1.015951  0  0  0.138609  0  1.013881  0  0  0.110787  0.13167  0  1.017502  0
H  H16  1  0.38791137  0.69891650  0.20134504  1  0  0.088599  0  0.964891  0  0.159968  0  0.092894  0  1.037173  0  0  0.095943  0  1.03393  0  0  0.103997  0.090538  0  1.039767  0
H  H17  1  0.11208858  0.19891763  0.29865470  1  0  0.088541  0  0.96491  0  0.159949  0  0.092865  0  1.037177  0  0  0.095919  0  1.033923  0  0  0.10399  0.090503  0  1.039772  0
H  H18  1  0.61208248  0.30107822  0.79865571  1  0  0.088584  0  0.964918  0  0.159971  0  0.092872  0  1.037205  0  0  0.095915  0  1.033959  0  0  0.103991  0.090514  0  1.039789  0
H  H19  1  0.88791818  0.80108251  0.70134644  1  0  0.088574  0  0.964838  0  0.159913  0  0.092852  0  1.037143  0  0  0.095896  0  1.033895  0  0  0.103989  0.090499  0  1.039727  0
C  C20  1  0.97456537  0.84961245  0.04834610  1  0  0.11179  0  3.729962  0  0.42562  0  0.083557  0  3.982116  0  0  0.08902  0  4.002931  0  0  0.038134  0.080035  0  3.96784  0
C  C21  1  0.52544909  0.34961442  0.45165356  1  0  0.111632  0  3.730051  0  0.425307  0  0.083454  0  3.982153  0  0  0.088917  0  4.002968  0  0  0.03821  0.079922  0  3.967888  0
C  C22  1  0.02544396  0.15038768  0.95165380  1  0  0.111833  0  3.730127  0  0.427339  0  0.083615  0  3.982241  0  0  0.089077  0  4.003065  0  0  0.038199  0.080076  0  3.96798  0
C  C23  1  0.47454218  0.65038881  0.54834778  1  0  0.111761  0  3.730042  0  0.425535  0  0.083609  0  3.982089  0  0  0.089073  0  4.00292  0  0  0.038199  0.080085  0  3.967818  0
C  C24  1  0.01226148  0.79647365  0.96996710  1  0  -0.115862  0  3.703449  0  -0.024768  0  -0.13956  0  3.951736  0  0  -0.14488  0  3.972993  0  0  -0.082087  -0.136085  0  3.937699  0
C  C25  1  0.48773177  0.29647286  0.53002618  1  0  -0.115736  0  3.703909  0  -0.025321  0  -0.139357  0  3.952179  0  0  -0.144712  0  3.973437  0  0  -0.082097  -0.135871  0  3.938145  0
C  C26  1  0.98774785  0.20352417  0.03002880  1  0  -0.115996  0  3.704059  0  -0.026851  0  -0.139608  0  3.952318  0  0  -0.144974  0  3.973563  0  0  -0.082122  -0.136119  0  3.938287  0
C  C27  1  0.51225434  0.70353115  0.46997367  1  0  -0.115963  0  3.703953  0  -0.025017  0  -0.139546  0  3.952231  0  0  -0.144914  0  3.973474  0  0  -0.082098  -0.136064  0  3.938207  0
C  C28  1  0.19954263  0.70391613  0.97500266  1  0  0.010102  0  3.702829  0  0.050774  0  0.029379  0  3.932897  0  0  0.027434  0  3.951691  0  0  0.008714  0.030656  0  3.920292  0
C  C29  1  0.30046393  0.20392472  0.52499934  1  0  0.010175  0  3.702878  0  0.051412  0  0.029377  0  3.933047  0  0  0.027429  0  3.951848  0  0  0.00876  0.030655  0  3.920441  0
C  C30  1  0.80046671  0.29607936  0.02500055  1  0  0.010246  0  3.702745  0  0.051164  0  0.029479  0  3.93286  0  0  0.027531  0  3.951665  0  0  0.008752  0.030763  0  3.920246  0
C  C31  1  0.69952733  0.79607696  0.47500067  1  0  0.010395  0  3.702684  0  0.05104  0  0.029541  0  3.932897  0  0  0.027589  0  3.951708  0  0  0.008776  0.030816  0  3.920292  0
C  C32  1  0.33105612  0.66608636  0.05911787  1  0  -0.106335  0  3.655559  0  -0.046806  0  -0.127546  0  3.901007  0  0  -0.132369  0  3.92043  0  0  -0.071238  -0.124449  0  3.888134  0
C  C33  1  0.16893880  0.16608446  0.44087852  1  0  -0.106521  0  3.655419  0  -0.046824  0  -0.127709  0  3.900907  0  0  -0.132536  0  3.92033  0  0  -0.0713  -0.124609  0  3.888027  0
C  C34  1  0.66895321  0.33391455  0.94088136  1  0  -0.106571  0  3.655586  0  -0.04695  0  -0.127776  0  3.901049  0  0  -0.132605  0  3.92047  0  0  -0.071352  -0.124684  0  3.888182  0
C  C35  1  0.83106021  0.83391413  0.55912173  1  0  -0.106609  0  3.655423  0  -0.046819  0  -0.127809  0  3.900933  0  0  -0.132639  0  3.920358  0  0  -0.071321  -0.124705  0  3.888045  0
C  C36  1  0.28131634  0.72371289  0.13463026  1  0  0.132208  0  3.677333  0  0.452255  0  0.09994  0  3.933671  0  0  0.106607  0  3.951994  0  0  0.042765  0.095546  0  3.921258  0
C  C37  1  0.21869125  0.22371521  0.36537096  1  0  0.132354  0  3.677472  0  0.452363  0  0.10006  0  3.933797  0  0  0.106726  0  3.952126  0  0  0.042807  0.095673  0  3.921375  0
C  C38  1  0.71869042  0.27628724  0.86537354  1  0  0.132285  0  3.677501  0  0.452477  0  0.10005  0  3.933815  0  0  0.106728  0  3.952131  0  0  0.042832  0.095665  0  3.921388  0
C  C39  1  0.78131550  0.77628416  0.63462886  1  0  0.132322  0  3.677548  0  0.45235  0  0.100073  0  3.933888  0  0  0.106752  0  3.95221  0  0  0.04279  0.095681  0  3.92147  0
C  C40  1  0.27844527  0.65189318  0.89061452  1  0  0.646849  0  3.867811  0  1.597629  0  0.596283  0  4.152928  0  0  0.631831  0  4.144748  0  0  0.204444  0.572183  0  4.157506  0
C  C41  1  0.22153569  0.15189288  0.60938025  1  0  0.646907  0  3.867854  0  1.597479  0  0.596355  0  4.15296  0  0  0.631912  0  4.144769  0  0  0.204433  0.572239  0  4.157557  0
C  C42  1  0.72155632  0.34810618  0.10938514  1  0  0.64677  0  3.86798  0  1.597255  0  0.596214  0  4.153108  0  0  0.631768  0  4.144925  0  0  0.204414  0.572103  0  4.157696  0
C  C43  1  0.77845041  0.84810958  0.39061827  1  0  0.64683  0  3.867842  0  1.597517  0  0.596345  0  4.152898  0  0  0.631899  0  4.14471  0  0  0.204467  0.57224  0  4.157484  0
Br  Br44  1  0.09002292  0.44302803  0.69945751  1  0  -0.511501  0  1.071364  0  -0.565386  0  -0.443818  0  1.389309  0  0  -0.466527  0  1.364513  0  0  -0.222715  -0.427359  0  1.407069  0
Br  Br45  1  0.40998263  0.94302795  0.80054426  1  0  -0.511493  0  1.071363  0  -0.565399  0  -0.443805  0  1.389288  0  0  -0.466522  0  1.364497  0  0  -0.222703  -0.427358  0  1.407049  0
Br  Br46  1  0.90998126  0.55697133  0.30054356  1  0  -0.511501  0  1.071378  0  -0.565405  0  -0.443808  0  1.389303  0  0  -0.466521  0  1.364518  0  0  -0.222704  -0.42735  0  1.407064  0
Br  Br47  1  0.59001380  0.05696909  0.19945724  1  0  -0.511489  0  1.071409  0  -0.565353  0  -0.443803  0  1.389351  0  0  -0.466527  0  1.364583  0  0  -0.222707  -0.427348  0  1.407108  0
N  N48  1  0.11090737  0.81470952  0.12922026  1  0  -0.334048  0  3.298588  0  -1.268568  0  -0.251652  0  3.562601  0  0  -0.273041  0  3.58433  0  0  -0.335328  -0.236934  0  3.547397  0
N  N49  1  0.38909209  0.31470632  0.37077573  1  0  -0.334163  0  3.29845  0  -1.268625  0  -0.251755  0  3.562476  0  0  -0.273144  0  3.584204  0  0  -0.335414  -0.237043  0  3.547285  0
N  N50  1  0.88909164  0.18529062  0.87077866  1  0  -0.33404  0  3.298451  0  -1.268566  0  -0.251692  0  3.562532  0  0  -0.273074  0  3.58424  0  0  -0.335367  -0.236973  0  3.54733  0
N  N51  1  0.61091467  0.68529459  0.62922542  1  0  -0.334121  0  3.298541  0  -1.268657  0  -0.251729  0  3.562584  0  0  -0.273097  0  3.584255  0  0  -0.335372  -0.237018  0  3.547396  0
O  O52  1  0.52336233  0.58583824  0.89704197  1  0  -0.598173  0  1.989988  0  -1.160798  0  -0.529072  0  2.224858  0  0  -0.559324  0  2.217082  0  0  -0.311669  -0.507908  0  2.229362  0
O  O53  1  0.97664439  0.08584251  0.60295583  1  0  -0.598195  0  1.990276  0  -1.160776  0  -0.52908  0  2.225133  0  0  -0.559347  0  2.217363  0  0  -0.311645  -0.507916  0  2.229639  0
O  O54  1  0.47666508  0.41416190  0.10295980  1  0  -0.598097  0  1.990294  0  -1.16071  0  -0.528988  0  2.22514  0  0  -0.559255  0  2.217372  0  0  -0.311589  -0.507824  0  2.229648  0
O  O55  1  0.02333396  0.91416536  0.39704312  1  0  -0.598143  0  1.990247  0  -1.160773  0  -0.529052  0  2.22507  0  0  -0.559316  0  2.217298  0  0  -0.311642  -0.507885  0  2.229568  0
O  O56  1  0.11595904  0.68001956  0.81596898  1  0  -0.651373  0  2.028514  0  -1.221423  0  -0.583527  0  2.283048  0  0  -0.612651  0  2.272283  0  0  -0.33343  -0.562844  0  2.289347  0
O  O57  1  0.38404762  0.18002192  0.68402846  1  0  -0.651439  0  2.028288  0  -1.221352  0  -0.583598  0  2.28282  0  0  -0.612715  0  2.272035  0  0  -0.333443  -0.562909  0  2.289114  0
O  O58  1  0.88406062  0.31997671  0.18403189  1  0  -0.651353  0  2.028335  0  -1.221293  0  -0.583547  0  2.282935  0  0  -0.612645  0  2.272118  0  0  -0.333475  -0.562856  0  2.289227  0
O  O59  1  0.61595397  0.81997822  0.31596987  1  0  -0.651416  0  2.028348  0  -1.221378  0  -0.583595  0  2.282866  0  0  -0.612704  0  2.272072  0  0  -0.333454  -0.562913  0  2.289172  0
