# generated using pymatgen
data_FeP3H27(C6O)6
_symmetry_space_group_name_H-M   'P 1'
_cell_length_a   9.58864704
_cell_length_b   25.08630053
_cell_length_c   25.08629204
_cell_angle_alpha   120.00001837
_cell_angle_beta   90.00001776
_cell_angle_gamma   89.99999826
_symmetry_Int_Tables_number   1
_chemical_formula_structural   FeP3H27(C6O)6
_chemical_formula_sum   'Fe4 P12 H108 C144 O24'
_cell_volume   5225.89859510
_cell_formula_units_Z   4
loop_
 _symmetry_equiv_pos_site_id
 _symmetry_equiv_pos_as_xyz
  1  'x, y, z'
loop_
 _atom_site_type_symbol
 _atom_site_label
 _atom_site_symmetry_multiplicity
 _atom_site_fract_x
 _atom_site_fract_y
 _atom_site_fract_z
 _atom_site_occupancy
 _atom_site_pbe_bader_charge
 _atom_site_pbe_bader_spin_density
 _atom_site_pbe_cm5_charge
 _atom_site_pbe_ddec_charge
 _atom_site_pbe_ddec_spin_density
 _atom_site_pbe_ddec_sum_bond_order
 _atom_site_pbe_magmom
Fe  Fe0  1  0.03264184  0.66666698  0.33333333  1  1.825814  4.121934  0.949149  1.568252  4.576635  2.537212  4.095
Fe  Fe1  1  0.96735780  0.33333319  0.66666665  1  1.825778  4.121943  0.949164  1.568301  4.57664  2.537103  4.095
Fe  Fe2  1  0.53241933  0.66666677  0.33333360  1  1.824839  4.122457  0.950336  1.572056  4.577283  2.536969  4.096
Fe  Fe3  1  0.46758030  0.33333318  0.66666661  1  1.824805  4.122459  0.950301  1.571964  4.577285  2.537067  4.096
P  P4  1  0.78702977  0.67729190  0.24397701  1  3.084418  0.014483  0.324875  1.087183  0.015047  5.125064  0.016
P  P5  1  0.78702981  0.56668573  0.32270846  1  3.129114  0.014237  0.325008  1.087477  0.015046  5.12479  0.016
P  P6  1  0.78702880  0.75602293  0.43331516  1  3.112258  0.014314  0.324922  1.087261  0.015047  5.124963  0.016
P  P7  1  0.21296986  0.32270828  0.75602297  1  3.084424  0.014483  0.324959  1.087373  0.015047  5.124906  0.016
P  P8  1  0.21297087  0.43331490  0.67729107  1  3.129107  0.014237  0.324934  1.087336  0.015047  5.124995  0.016
P  P9  1  0.21297083  0.24397679  0.56668529  1  3.11227  0.014314  0.324931  1.087291  0.015047  5.12498  0.016
P  P10  1  0.71333242  0.43547139  0.75201251  1  3.139102  0.014637  0.327168  1.092475  0.015615  5.115921  0.016
P  P11  1  0.71333234  0.31654134  0.56452894  1  3.140108  0.014613  0.327196  1.092505  0.015615  5.115897  0.016
P  P12  1  0.71333240  0.24798762  0.68345925  1  3.078505  0.01494  0.327211  1.092486  0.015616  5.115876  0.016
P  P13  1  0.28666930  0.56452896  0.24798810  1  3.139004  0.014639  0.327227  1.092463  0.015615  5.115854  0.016
P  P14  1  0.28666833  0.68345883  0.43547104  1  3.140124  0.014613  0.32724  1.092629  0.015615  5.115813  0.016
P  P15  1  0.28666828  0.75201232  0.31654097  1  3.078512  0.014939  0.327174  1.092407  0.015616  5.115917  0.016
H  H16  1  0.55709845  0.65522325  0.15972299  1  0.103197  0.000295  0.104726  0.108789  6.1e-05  1.026539  0.0
H  H17  1  0.55709957  0.50449917  0.34477590  1  0.103881  0.000293  0.104705  0.108785  6.1e-05  1.026559  0.0
H  H18  1  0.55709858  0.84027692  0.49550049  1  0.111746  0.000293  0.104696  0.108752  6.1e-05  1.026559  0.0
H  H19  1  0.44290118  0.34477795  0.84027756  1  0.103267  0.000295  0.104714  0.108785  6.1e-05  1.026617  0.0
H  H20  1  0.44290006  0.49550107  0.65522322  1  0.103905  0.000293  0.104718  0.108783  6.1e-05  1.026588  0.0
H  H21  1  0.44290001  0.15972246  0.50449870  1  0.111772  0.000293  0.104713  0.108754  6.1e-05  1.026591  0.0
H  H22  1  0.98494191  0.59886264  0.14831996  1  0.076799  0.000342  0.105706  0.108885  6.7e-05  1.021746  0.0
H  H23  1  0.98494306  0.54945749  0.40113751  1  0.076298  0.000344  0.105695  0.108878  6.7e-05  1.021714  0.0
H  H24  1  0.98494202  0.85168022  0.45054343  1  0.085856  0.00034  0.105704  0.108886  6.7e-05  1.021713  0.0
H  H25  1  0.01505563  0.40113639  0.85168118  1  0.076663  0.000342  0.10569  0.108864  6.7e-05  1.02172  0.0
H  H26  1  0.01505657  0.45054411  0.59886344  1  0.076312  0.000344  0.105672  0.108856  6.7e-05  1.021715  0.0
H  H27  1  0.01505656  0.14831939  0.54945553  1  0.085858  0.00034  0.105675  0.108847  6.7e-05  1.02174  0.0
H  H28  1  0.94049144  0.73288043  0.18171947  1  0.051038  8.6e-05  0.099993  0.0956  1.6e-05  1.021081  0.0
H  H29  1  0.94049253  0.44884078  0.26711927  1  0.063528  8.4e-05  0.099958  0.095582  1.6e-05  1.02106  0.0
H  H30  1  0.94048845  0.81828028  0.55116100  1  0.065068  8.4e-05  0.099981  0.095574  1.6e-05  1.021114  0.0
H  H31  1  0.05950924  0.26711888  0.81828057  1  0.051043  8.6e-05  0.099976  0.095568  1.6e-05  1.021118  0.0
H  H32  1  0.05950815  0.55116111  0.73288059  1  0.063493  8.4e-05  0.099996  0.095626  1.6e-05  1.021139  0.0
H  H33  1  0.05950805  0.18172012  0.44883875  1  0.065064  8.4e-05  0.099975  0.095596  1.6e-05  1.021085  0.0
H  H34  1  0.96148606  0.84047105  0.20386025  1  0.049242  0.000142  0.102044  0.098756  4.4e-05  0.991573  0.0
H  H35  1  0.96148710  0.36338971  0.15952863  1  0.061364  0.000141  0.102027  0.098723  4.4e-05  0.991604  0.0
H  H36  1  0.96148520  0.79614027  0.63661133  1  0.04936  0.000142  0.102022  0.098707  4.4e-05  0.991567  0.0
H  H37  1  0.03851461  0.15952786  0.79613940  1  0.049262  0.000142  0.102005  0.098681  4.4e-05  0.991593  0.0
H  H38  1  0.03851148  0.63661046  0.84047135  1  0.061367  0.000141  0.102045  0.098733  4.4e-05  0.991577  0.0
H  H39  1  0.03851235  0.20386196  0.36338979  1  0.049344  0.000141  0.102053  0.098778  4.4e-05  0.991646  0.0
H  H40  1  0.84408371  0.92540234  0.29571157  1  0.037535  3.1e-05  0.09919  0.091642  -3e-06  0.997439  0.0
H  H41  1  0.84408156  0.37031012  0.07459744  1  0.046893  3.1e-05  0.099189  0.091671  -3e-06  0.997435  0.0
H  H42  1  0.84408177  0.70428816  0.62969078  1  0.053412  2.9e-05  0.099176  0.09164  -3e-06  0.997469  0.0
H  H43  1  0.15591800  0.07459750  0.70428716  1  0.037493  3.1e-05  0.09919  0.091669  -3e-06  0.997415  0.0
H  H44  1  0.15591599  0.62969005  0.92540255  1  0.046887  3.1e-05  0.099183  0.091644  -3e-06  0.997447  0.0
H  H45  1  0.15591995  0.29571258  0.37031024  1  0.053387  2.9e-05  0.099197  0.091666  -3e-06  0.997445  0.0
H  H46  1  0.70723023  0.90193487  0.36621671  1  0.072795  6.5e-05  0.0982  0.096517  1.7e-05  1.004142  0.0
H  H47  1  0.70722493  0.46428170  0.09806527  1  0.053168  6.5e-05  0.098183  0.096488  1.7e-05  1.004117  0.0
H  H48  1  0.70723031  0.63378279  0.53571743  1  0.058184  6.5e-05  0.098184  0.096484  1.7e-05  1.004192  0.0
H  H49  1  0.29277148  0.09806600  0.63378259  1  0.072779  6.5e-05  0.098177  0.096485  1.7e-05  1.004199  0.0
H  H50  1  0.29277158  0.53571768  0.90193391  1  0.053209  6.5e-05  0.098197  0.096509  1.7e-05  1.004138  0.0
H  H51  1  0.29277558  0.36621652  0.46428261  1  0.058215  6.5e-05  0.098191  0.096473  1.7e-05  1.004172  0.0
H  H52  1  0.68206922  0.79338744  0.34243053  1  0.100383  0.000163  0.107522  0.107416  -0.000182  1.028894  0.0
H  H53  1  0.68206501  0.54904347  0.20661308  1  0.092439  0.000165  0.107531  0.107415  -0.000182  1.028956  0.0
H  H54  1  0.68206927  0.65756925  0.45095660  1  0.115147  0.000159  0.10752  0.107407  -0.000182  1.028949  0.0
H  H55  1  0.31793145  0.20661337  0.65756963  1  0.100465  0.000163  0.10752  0.107408  -0.000182  1.028943  0.0
H  H56  1  0.31793254  0.45095654  0.79338627  1  0.092487  0.000165  0.107508  0.107416  -0.000182  1.028956  0.0
H  H57  1  0.31793453  0.34242961  0.54904391  1  0.115264  0.000159  0.107545  0.10744  -0.000182  1.028923  0.0
H  H58  1  0.97214861  0.54439813  0.03448614  1  0.058529  0.000163  0.094779  0.088917  5.5e-05  1.051903  0.0
H  H59  1  0.97214879  0.49008848  0.45560269  1  0.055491  0.000162  0.094796  0.088946  5.5e-05  1.051886  0.0
H  H60  1  0.97214879  0.96551350  0.50991231  1  0.053067  0.000163  0.094788  0.088934  5.5e-05  1.05187  0.0
H  H61  1  0.02785102  0.45560221  0.96551447  1  0.058433  0.000163  0.094796  0.088952  5.5e-05  1.051974  0.0
H  H62  1  0.02785084  0.50991209  0.54439770  1  0.055649  0.000162  0.094784  0.088917  5.5e-05  1.05195  0.0
H  H63  1  0.02785084  0.03448587  0.49008688  1  0.053149  0.000163  0.094783  0.088939  5.5e-05  1.051931  0.0
H  H64  1  0.54204206  0.59994742  0.04612409  1  0.067683  0.000214  0.098194  0.094263  7.3e-05  1.026103  0.0
H  H65  1  0.54204325  0.44617656  0.40005226  1  0.067731  0.000215  0.098207  0.094284  7.3e-05  1.02611  0.0
H  H66  1  0.54204120  0.95387656  0.55382422  1  0.056027  0.000216  0.098181  0.094256  7.3e-05  1.026091  0.0
H  H67  1  0.45795862  0.40005441  0.95387663  1  0.067854  0.000214  0.0982  0.094312  7.3e-05  1.026044  0.0
H  H68  1  0.45795847  0.55382265  0.59994629  1  0.067726  0.000215  0.098184  0.094299  7.3e-05  1.026083  0.0
H  H69  1  0.45795738  0.04612362  0.44617576  1  0.056037  0.000216  0.098186  0.094282  7.3e-05  1.02612  0.0
H  H70  1  0.51873253  0.45056784  0.84707584  1  0.085564  0.000369  0.105166  0.109097  6.6e-05  1.022203  0.0
H  H71  1  0.51873345  0.39650951  0.54943360  1  0.092305  0.000366  0.105194  0.109137  6.6e-05  1.022199  0.0
H  H72  1  0.51873348  0.15292430  0.60349069  1  0.093036  0.000365  0.105183  0.109126  6.6e-05  1.022212  0.0
H  H73  1  0.48126710  0.54943422  0.15292465  1  0.085565  0.000369  0.105217  0.10917  6.6e-05  1.022316  0.0
H  H74  1  0.48126618  0.60349010  0.45056535  1  0.09229  0.000366  0.105209  0.109218  6.6e-05  1.022233  0.0
H  H75  1  0.48126615  0.84707525  0.39650913  1  0.093031  0.000365  0.105228  0.109192  6.6e-05  1.022231  0.0
H  H76  1  0.94046147  0.50328301  0.83650005  1  0.10588  0.00029  0.103766  0.107613  6.5e-05  1.025993  0.0
H  H77  1  0.94045925  0.33321671  0.49671647  1  0.096386  0.000291  0.103765  0.107601  6.5e-05  1.026021  0.0
H  H78  1  0.94046037  0.16350065  0.66678423  1  0.124012  0.000285  0.103765  0.107578  6.5e-05  1.026008  0.0
H  H79  1  0.05954025  0.49671797  0.16350073  1  0.105888  0.00029  0.103778  0.107619  6.5e-05  1.026015  0.0
H  H80  1  0.05954038  0.66678369  0.50328329  1  0.096397  0.000291  0.103774  0.107614  6.5e-05  1.026013  0.0
H  H81  1  0.05953822  0.83649929  0.33321598  1  0.124059  0.000285  0.103771  0.107613  6.5e-05  1.025968  0.0
H  H82  1  0.85013583  0.45764213  0.66248942  1  0.120064  0.000175  0.106806  0.108794  -0.000178  1.029611  0.0
H  H83  1  0.85013162  0.20484741  0.54235936  1  0.100263  0.000183  0.106782  0.108748  -0.000178  1.029597  0.0
H  H84  1  0.85013484  0.33751031  0.79515327  1  0.112626  0.000179  0.106743  0.108678  -0.000178  1.029622  0.0
H  H85  1  0.14986589  0.54235862  0.33751159  1  0.12002  0.000175  0.106805  0.108743  -0.000178  1.029504  0.0
H  H86  1  0.14986593  0.79515373  0.45764205  1  0.100288  0.000183  0.106794  0.10873  -0.000178  1.029563  0.0
H  H87  1  0.14986583  0.66248821  0.20484598  1  0.112606  0.000179  0.106826  0.108764  -0.000178  1.029659  0.0
H  H88  1  0.82686976  0.54039458  0.63517518  1  0.048557  7e-05  0.096396  0.092906  1.8e-05  1.015438  0.0
H  H89  1  0.82686553  0.09478065  0.45960765  1  0.045928  7e-05  0.096386  0.092887  1.8e-05  1.015447  0.0
H  H90  1  0.82686570  0.36482477  0.90521985  1  0.0503  7e-05  0.096402  0.092914  1.8e-05  1.015471  0.0
H  H91  1  0.17312883  0.45960616  0.36482584  1  0.04871  7e-05  0.096393  0.092921  1.8e-05  1.015397  0.0
H  H92  1  0.17313306  0.90522020  0.54039485  1  0.045941  7e-05  0.096407  0.092903  1.8e-05  1.015456  0.0
H  H93  1  0.17313393  0.63517460  0.09477934  1  0.050282  7e-05  0.096416  0.092923  1.8e-05  1.015422  0.0
H  H94  1  0.65592491  0.62543972  0.69137847  1  0.065654  2.5e-05  0.098659  0.091486  -0.0  0.997711  0.0
H  H95  1  0.65592376  0.06593856  0.37456120  1  0.067135  2.5e-05  0.098634  0.091416  -1e-06  0.997772  0.0
H  H96  1  0.65591981  0.30862104  0.93406044  1  0.067042  2.5e-05  0.098632  0.091378  -1e-06  0.997814  0.0
H  H97  1  0.34407264  0.37456028  0.30862088  1  0.065703  2.5e-05  0.098649  0.09145  -0.0  0.997742  0.0
H  H98  1  0.34407796  0.93406087  0.62544033  1  0.067127  2.5e-05  0.098614  0.091384  -1e-06  0.997809  0.0
H  H99  1  0.34407774  0.69137937  0.06593931  1  0.067043  2.5e-05  0.098628  0.091398  -1e-06  0.997783  0.0
H  H100  1  0.50422992  0.62591418  0.77225524  1  0.054122  0.000163  0.102132  0.098863  5.3e-05  0.991205  0.0
H  H101  1  0.50423291  0.14634075  0.37408469  1  0.062697  0.000163  0.102143  0.098888  5.3e-05  0.991241  0.0
H  H102  1  0.50422789  0.22774386  0.85365826  1  0.052273  0.000163  0.102139  0.098866  5.3e-05  0.991207  0.0
H  H103  1  0.49576554  0.37408543  0.22774372  1  0.054154  0.000163  0.102132  0.098887  5.3e-05  0.991188  0.0
H  H104  1  0.49576985  0.85365800  0.62591433  1  0.062695  0.000163  0.102126  0.098843  5.3e-05  0.991197  0.0
H  H105  1  0.49577070  0.77225688  0.14634275  1  0.052324  0.000163  0.102128  0.098867  5.3e-05  0.991209  0.0
H  H106  1  0.52530903  0.54286637  0.79804791  1  0.079656  9.1e-05  0.101436  0.098726  1.8e-05  1.01606  0.0
H  H107  1  0.52531308  0.25518128  0.45713144  1  0.076038  9.2e-05  0.101449  0.098744  1.8e-05  1.016022  0.0
H  H108  1  0.52530902  0.20195081  0.74481759  1  0.072116  9.3e-05  0.101428  0.098719  1.8e-05  1.016044  0.0
H  H109  1  0.47468956  0.45713364  0.20195145  1  0.079664  9.1e-05  0.101435  0.098716  1.8e-05  1.016  0.0
H  H110  1  0.47468968  0.74481799  0.54286626  1  0.076043  9.2e-05  0.101438  0.098711  1.8e-05  1.016073  0.0
H  H111  1  0.47468956  0.79804828  0.25518268  1  0.072135  9.3e-05  0.101426  0.098712  1.8e-05  1.016071  0.0
H  H112  1  0.95804585  0.55775351  0.95012537  1  0.019057  0.000229  0.097167  0.093451  7.6e-05  1.025154  0.0
H  H113  1  0.95804461  0.39237185  0.44224593  1  0.040272  0.000226  0.097143  0.093401  7.6e-05  1.02522  0.0
H  H114  1  0.95804677  0.04987485  0.60762882  1  0.038061  0.000226  0.097154  0.093431  7.6e-05  1.025176  0.0
H  H115  1  0.04195378  0.44224769  0.04987518  1  0.019058  0.000229  0.097151  0.093414  7.6e-05  1.025209  0.0
H  H116  1  0.04195503  0.60762879  0.55775360  1  0.040341  0.000226  0.097121  0.093356  7.6e-05  1.025197  0.0
H  H117  1  0.04195286  0.95012510  0.39237139  1  0.038063  0.000226  0.097158  0.093436  7.6e-05  1.025172  0.0
H  H118  1  0.53470354  0.50527564  0.96087126  1  0.057457  0.000161  0.093625  0.087361  5.4e-05  1.05303  0.0
H  H119  1  0.53470440  0.45559786  0.49472690  1  0.05772  0.000161  0.09358  0.087304  5.4e-05  1.052916  0.0
H  H120  1  0.53470548  0.03912918  0.54440255  1  0.073778  0.000161  0.09362  0.087367  5.4e-05  1.053008  0.0
H  H121  1  0.46529609  0.49472784  0.03913020  1  0.057513  0.000161  0.093586  0.087303  5.4e-05  1.052919  0.0
H  H122  1  0.46529523  0.54440215  0.50527246  1  0.05778  0.000161  0.093579  0.087289  5.4e-05  1.052923  0.0
H  H123  1  0.46529520  0.96087020  0.45559664  1  0.073866  0.000161  0.093609  0.087354  5.4e-05  1.053038  0.0
C  C124  1  0.77363160  0.63227564  0.16123343  1  -0.524013  0.01394  -0.026106  -0.175729  0.005839  3.996067  0.009
C  C125  1  0.77363378  0.52895767  0.36772420  1  -0.542149  0.014111  -0.026071  -0.175724  0.005839  3.995978  0.009
C  C126  1  0.77363172  0.83876662  0.47104283  1  -0.536172  0.014104  -0.026097  -0.175716  0.005839  3.996056  0.009
C  C127  1  0.22636698  0.36772476  0.83876633  1  -0.524009  0.013941  -0.0261  -0.175724  0.005839  3.996053  0.009
C  C128  1  0.22636794  0.47104171  0.63227499  1  -0.542136  0.014111  -0.026079  -0.175718  0.005839  3.996105  0.009
C  C129  1  0.22636791  0.16123332  0.52895738  1  -0.535851  0.014104  -0.026114  -0.175724  0.005839  3.995965  0.009
C  C130  1  0.64796110  0.63103588  0.13209402  1  -0.027702  0.001843  -0.078313  -0.058455  0.00082  3.979327  0.001
C  C131  1  0.64796224  0.50105768  0.36896340  1  -0.046069  0.00186  -0.078363  -0.058545  0.000821  3.979328  0.001
C  C132  1  0.64796020  0.86790596  0.49894261  1  -0.008339  0.001857  -0.078321  -0.058463  0.000821  3.979357  0.001
C  C133  1  0.35203853  0.36896452  0.86790574  1  -0.027967  0.001843  -0.078374  -0.058581  0.000821  3.97941  0.001
C  C134  1  0.35203843  0.49894193  0.63103555  1  -0.046099  0.00186  -0.078381  -0.058515  0.000821  3.979388  0.001
C  C135  1  0.35203735  0.13209382  0.50105698  1  -0.008316  0.001857  -0.078304  -0.058405  0.000821  3.979306  0.001
C  C136  1  0.88943416  0.60023216  0.12553155  1  -0.073923  0.001662  -0.080428  -0.063485  0.000719  3.999254  0.001
C  C137  1  0.88943428  0.52529904  0.39976808  1  -0.04149  0.001664  -0.080465  -0.063551  0.000719  3.999315  0.001
C  C138  1  0.88943325  0.87446891  0.47470149  1  -0.003719  0.001649  -0.080441  -0.063519  0.000719  3.999279  0.001
C  C139  1  0.11056547  0.39976716  0.87446850  1  -0.073795  0.001662  -0.080423  -0.063457  0.000719  3.999176  0.001
C  C140  1  0.11056535  0.47470176  0.60023208  1  -0.041623  0.001664  -0.080421  -0.063484  0.000719  3.999201  0.001
C  C141  1  0.11056534  0.12553070  0.52529747  1  -0.004034  0.001649  -0.080404  -0.063471  0.000719  3.999181  0.001
C  C142  1  0.81071925  0.75627263  0.26116273  1  -0.539188  0.007219  -0.020951  -0.160006  0.002568  3.950906  0.004
C  C143  1  0.81071717  0.50489061  0.24372788  1  -0.514444  0.007248  -0.020969  -0.160074  0.002568  3.950885  0.004
C  C144  1  0.81071830  0.73883749  0.49511065  1  -0.504546  0.007196  -0.020976  -0.160092  0.002568  3.950965  0.004
C  C145  1  0.18928247  0.24372788  0.73883851  1  -0.539201  0.007219  -0.020969  -0.160087  0.002568  3.950904  0.004
C  C146  1  0.18928247  0.49511049  0.75627119  1  -0.514157  0.007248  -0.020984  -0.160051  0.002568  3.95096  0.004
C  C147  1  0.18928342  0.26116097  0.50488946  1  -0.504504  0.007195  -0.020983  -0.16005  0.002568  3.950972  0.004
C  C148  1  0.88931426  0.76979438  0.22221035  1  -0.02311  0.001988  -0.080929  -0.068019  0.000945  3.985619  0.001
C  C149  1  0.88931324  0.45241667  0.23020563  1  -0.034783  0.00199  -0.080887  -0.067997  0.000945  3.985615  0.001
C  C150  1  0.88931335  0.77778981  0.54758358  1  -0.002439  0.001973  -0.080904  -0.06798  0.000945  3.985605  0.001
C  C151  1  0.11068641  0.23020596  0.77779026  1  -0.023131  0.001988  -0.080887  -0.067939  0.000945  3.985615  0.001
C  C152  1  0.11068640  0.54758357  0.76979350  1  -0.034886  0.00199  -0.080955  -0.068085  0.000945  3.985702  0.001
C  C153  1  0.11068837  0.22221013  0.45241663  1  -0.002725  0.001973  -0.08085  -0.06798  0.000945  3.985532  0.001
C  C154  1  0.90089880  0.83042172  0.23460377  1  0.022086  0.000321  -0.093757  -0.092552  0.000105  4.025924  0.0
C  C155  1  0.90089566  0.40418219  0.16957825  1  -0.009984  0.000328  -0.093748  -0.092477  0.000105  4.025994  0.0
C  C156  1  0.90089686  0.76539627  0.59581824  1  -0.017175  0.000331  -0.093729  -0.092419  0.000105  4.02583  0.0
C  C157  1  0.09910500  0.16957783  0.76539605  1  0.021943  0.000321  -0.093734  -0.092445  0.000105  4.025922  0.0
C  C158  1  0.09910084  0.59581799  0.83042173  1  -0.009927  0.000328  -0.093745  -0.092475  0.000105  4.025848  0.0
C  C159  1  0.09910068  0.23460317  0.40418009  1  -0.016849  0.000331  -0.093794  -0.092531  0.000105  4.025852  0.0
C  C160  1  0.83512103  0.87805857  0.28625621  1  -0.118889  0.001696  -0.092257  -0.086873  0.000779  4.034736  0.001
C  C161  1  0.83511785  0.40819828  0.12194229  1  -0.12049  0.001694  -0.092285  -0.086999  0.000779  4.034806  0.001
C  C162  1  0.83512012  0.71374372  0.59180214  1  -0.128454  0.001695  -0.0923  -0.08702  0.000779  4.034839  0.001
C  C163  1  0.16487965  0.12194224  0.71374395  1  -0.118592  0.001696  -0.092293  -0.087  0.000779  4.034768  0.001
C  C164  1  0.16487969  0.59180166  0.87805793  1  -0.120476  0.001694  -0.092265  -0.086927  0.000779  4.034681  0.001
C  C165  1  0.16488369  0.28625600  0.40819830  1  -0.128364  0.001695  -0.092279  -0.086988  0.000779  4.034698  0.001
C  C166  1  0.75810184  0.86491965  0.32563975  1  -0.05399  -0.000107  -0.093945  -0.092927  -0.000187  4.010997  0.0
C  C167  1  0.75809760  0.46072051  0.13508061  1  -0.031323  -0.000108  -0.093933  -0.092869  -0.000187  4.010829  0.0
C  C168  1  0.75809985  0.67436040  0.53928026  1  -0.031968  -0.000108  -0.093881  -0.092792  -0.000187  4.010907  0.0
C  C169  1  0.24190092  0.13508076  0.67436001  1  -0.054053  -0.000107  -0.093892  -0.092838  -0.000187  4.010935  0.0
C  C170  1  0.24189994  0.53927887  0.86491858  1  -0.031319  -0.000108  -0.093913  -0.092834  -0.000187  4.010893  0.0
C  C171  1  0.24190396  0.32563925  0.46072104  1  -0.032067  -0.000108  -0.093938  -0.092803  -0.000187  4.010909  0.0
C  C172  1  0.74499154  0.80421712  0.31291015  1  -0.044279  0.001751  -0.075541  -0.056958  0.000698  3.953937  0.001
C  C173  1  0.74498733  0.50869364  0.19578358  1  -0.059158  0.001753  -0.075519  -0.056919  0.000698  3.953858  0.001
C  C174  1  0.74499162  0.68708963  0.49130626  1  -0.094946  0.001766  -0.075529  -0.056943  0.000698  3.95398  0.001
C  C175  1  0.25501018  0.19578369  0.68709000  1  -0.044381  0.001751  -0.075543  -0.05696  0.000698  3.953892  0.001
C  C176  1  0.25501021  0.49130699  0.80421595  1  -0.05946  0.001754  -0.075521  -0.057015  0.000698  3.953989  0.001
C  C177  1  0.25501323  0.31290929  0.50869338  1  -0.095113  0.001766  -0.075549  -0.057037  0.000698  3.95396  0.001
C  C178  1  0.88110241  0.56924016  0.06161352  1  -0.016618  0.000504  -0.096188  -0.145267  0.000219  3.985934  0.0
C  C179  1  0.88110361  0.49237430  0.43076031  1  -0.0634  0.00051  -0.096171  -0.145216  0.000219  3.985954  0.0
C  C180  1  0.88110258  0.93838611  0.50762682  1  -0.072413  0.000521  -0.096187  -0.145284  0.000219  3.985912  0.0
C  C181  1  0.11889618  0.43076058  0.93838749  1  -0.016708  0.000504  -0.096204  -0.145309  0.000219  3.986056  0.0
C  C182  1  0.11889603  0.50762674  0.56923962  1  -0.063497  0.000509  -0.09615  -0.145213  0.000219  3.985988  0.0
C  C183  1  0.11889601  0.06161287  0.49237197  1  -0.072446  0.000521  -0.096179  -0.145272  0.000219  3.985973  0.0
C  C184  1  0.63963352  0.59940412  0.06817557  1  -0.058134  0.00068  -0.091831  -0.133393  0.000298  3.967979  0.0
C  C185  1  0.63963470  0.46877141  0.40059595  1  -0.057381  0.000681  -0.091857  -0.133409  0.000298  3.967945  0.0
C  C186  1  0.63963369  0.93182462  0.53122868  1  -0.097935  0.000685  -0.091811  -0.133381  0.000298  3.967887  0.0
C  C187  1  0.36036611  0.40059788  0.93182578  1  -0.057527  0.00068  -0.091781  -0.133384  0.000298  3.967865  0.0
C  C188  1  0.36036493  0.53122803  0.59940238  1  -0.057418  0.000681  -0.091757  -0.133422  0.000298  3.968008  0.0
C  C189  1  0.36036490  0.06817436  0.46877011  1  -0.097861  0.000685  -0.091819  -0.133467  0.000298  3.96801  0.0
C  C190  1  0.75636843  0.56853163  0.03175473  1  -0.029328  0.000673  -0.007306  0.071356  0.000297  4.003596  0.0
C  C191  1  0.75636964  0.46322384  0.43146893  1  -0.015634  0.000672  -0.007338  0.071294  0.000297  4.003657  0.0
C  C192  1  0.75636966  0.96824571  0.53677712  1  -0.049246  0.000674  -0.007315  0.071396  0.000297  4.003506  0.0
C  C193  1  0.24363016  0.43146867  0.96824353  1  -0.029839  0.000673  -0.00732  0.071333  0.000297  4.003684  0.0
C  C194  1  0.24363104  0.53677502  0.56853157  1  -0.015539  0.000671  -0.007342  0.071367  0.000297  4.003716  0.0
C  C195  1  0.24362997  0.03175635  0.46322337  1  -0.049381  0.000674  -0.007311  0.071397  0.000297  4.00357  0.0
C  C196  1  0.72696419  0.47484192  0.83478760  1  -0.613467  0.014479  -0.025454  -0.173603  0.005896  3.99105  0.009
C  C197  1  0.72696407  0.35994615  0.52515818  1  -0.59808  0.014356  -0.025493  -0.173654  0.005896  3.991017  0.009
C  C198  1  0.72696517  0.16521235  0.64005406  1  -0.574123  0.014259  -0.025483  -0.173674  0.005897  3.991081  0.009
C  C199  1  0.27303648  0.52515855  0.16521129  1  -0.613339  0.01448  -0.025513  -0.173712  0.005897  3.991264  0.009
C  C200  1  0.27303556  0.64005363  0.47484140  1  -0.59811  0.014357  -0.025392  -0.173598  0.005897  3.991132  0.009
C  C201  1  0.27303550  0.83478862  0.35994673  1  -0.574094  0.01426  -0.025527  -0.173712  0.005897  3.991182  0.009
C  C202  1  0.61336111  0.47544680  0.87017210  1  -0.044206  0.001849  -0.080964  -0.061126  0.000806  3.995442  0.001
C  C203  1  0.61336097  0.39472697  0.52455457  1  -0.043738  0.001854  -0.081002  -0.06123  0.000806  3.995511  0.001
C  C204  1  0.61336206  0.12982812  0.60527325  1  0.029076  0.001827  -0.081013  -0.061252  0.000806  3.995534  0.001
C  C205  1  0.38663956  0.52455606  0.12982919  1  -0.044397  0.00185  -0.081034  -0.06127  0.000806  3.995804  0.001
C  C206  1  0.38663761  0.60527270  0.47544353  1  -0.043997  0.001854  -0.081107  -0.061483  0.000806  3.995793  0.001
C  C207  1  0.38663757  0.87017143  0.39472656  1  0.029011  0.001827  -0.08102  -0.061236  0.000806  3.995684  0.001
C  C208  1  0.85143223  0.50426170  0.86399428  1  -0.057094  0.002012  -0.078017  -0.056494  0.000905  3.978069  0.001
C  C209  1  0.85143209  0.35973289  0.49573852  1  -0.029059  0.001998  -0.078011  -0.056467  0.000905  3.978086  0.001
C  C210  1  0.85143216  0.13600600  0.64026769  1  0.009093  0.001984  -0.077995  -0.056375  0.000905  3.978087  0.001
C  C211  1  0.14856844  0.49573967  0.13600690  1  -0.057067  0.002012  -0.078041  -0.056512  0.000905  3.978145  0.001
C  C212  1  0.14856754  0.64026774  0.50426100  1  -0.029115  0.001998  -0.078045  -0.056506  0.000905  3.978118  0.001
C  C213  1  0.14856747  0.86399314  0.35973172  1  0.009014  0.001984  -0.078008  -0.056445  0.000905  3.978029  0.001
C  C214  1  0.68950527  0.49486326  0.73157974  1  -0.58998  0.008057  -0.021644  -0.159972  0.002923  3.955246  0.005
C  C215  1  0.68950519  0.23671618  0.50513702  1  -0.616879  0.008152  -0.021632  -0.159878  0.002924  3.955171  0.005
C  C216  1  0.68950529  0.26841988  0.76328336  1  -0.45898  0.007941  -0.021641  -0.15996  0.002923  3.955231  0.005
C  C217  1  0.31049436  0.50513828  0.26842207  1  -0.59003  0.008057  -0.021692  -0.15995  0.002923  3.955301  0.005
C  C218  1  0.31049444  0.76328422  0.49486273  1  -0.617433  0.008152  -0.021677  -0.159981  0.002924  3.955247  0.005
C  C219  1  0.31049434  0.73157841  0.23671612  1  -0.459007  0.007941  -0.021742  -0.160031  0.002923  3.955262  0.005
C  C220  1  0.77374133  0.49441541  0.68567398  1  -0.03879  0.001585  -0.076977  -0.060654  0.00066  3.956554  0.001
C  C221  1  0.77373814  0.19125853  0.50558605  1  0.022752  0.00157  -0.07696  -0.060652  0.00066  3.956528  0.001
C  C222  1  0.77373930  0.31432613  0.80874177  1  -0.089204  0.001599  -0.076911  -0.060504  0.00066  3.956327  0.001
C  C223  1  0.22626248  0.50558477  0.31432601  1  -0.038765  0.001585  -0.076935  -0.060535  0.00066  3.956541  0.001
C  C224  1  0.22626254  0.80874170  0.49441628  1  0.023256  0.001569  -0.076942  -0.060589  0.00066  3.956486  0.001
C  C225  1  0.22626033  0.68567318  0.19125828  1  -0.089246  0.001598  -0.076901  -0.060497  0.00066  3.956518  0.001
C  C226  1  0.76091886  0.54104944  0.67095855  1  -0.079774  8e-06  -0.095228  -0.092048  -8.7e-05  4.013856  0.0
C  C227  1  0.76091462  0.12990890  0.45895239  1  -0.102103  1.2e-05  -0.095176  -0.091965  -8.7e-05  4.01376  0.0
C  C228  1  0.76091269  0.32904143  0.87009194  1  -0.054535  6e-06  -0.0952  -0.092068  -8.7e-05  4.01393  0.0
C  C229  1  0.23908181  0.45895176  0.32904200  1  -0.079879  8e-06  -0.095201  -0.092067  -8.7e-05  4.013802  0.0
C  C230  1  0.23908397  0.87009115  0.54104931  1  -0.102078  1.2e-05  -0.095199  -0.091992  -8.7e-05  4.013845  0.0
C  C231  1  0.23908485  0.67095806  0.12990873  1  -0.054515  6e-06  -0.095212  -0.092058  -8.7e-05  4.013824  0.0
C  C232  1  0.66511495  0.58869662  0.70248449  1  -0.043576  0.00133  -0.092643  -0.086856  0.000612  4.033506  0.001
C  C233  1  0.66511277  0.11378775  0.41130403  1  -0.051416  0.001331  -0.092653  -0.086834  0.000612  4.033578  0.001
C  C234  1  0.66510982  0.29751535  0.88621200  1  -0.071534  0.001334  -0.092605  -0.086696  0.000612  4.033719  0.001
C  C235  1  0.33488364  0.41130339  0.29751487  1  -0.043655  0.00133  -0.092643  -0.086829  0.000612  4.033568  0.001
C  C236  1  0.33488791  0.88621214  0.58869704  1  -0.051486  0.001331  -0.092624  -0.086782  0.000612  4.03361  0.001
C  C237  1  0.33488772  0.70248522  0.11378839  1  -0.071845  0.001334  -0.092605  -0.08673  0.000612  4.033572  0.001
C  C238  1  0.58047946  0.58922039  0.74818677  1  -0.094199  0.000458  -0.092899  -0.091551  0.000183  4.024134  0.0
C  C239  1  0.58048143  0.15896567  0.41077917  1  -0.105226  0.00046  -0.092899  -0.091557  0.000183  4.024147  0.0
C  C240  1  0.58047639  0.25181309  0.84103353  1  -0.079796  0.000456  -0.092893  -0.091541  0.000183  4.024089  0.0
C  C241  1  0.41951808  0.41077979  0.25181321  1  -0.09422  0.000457  -0.092877  -0.091558  0.000183  4.024194  0.0
C  C242  1  0.41952029  0.84103348  0.58922025  1  -0.105171  0.00046  -0.092896  -0.091545  0.000183  4.024145  0.0
C  C243  1  0.41952116  0.74818725  0.15896708  1  -0.079462  0.000456  -0.092878  -0.091551  0.000183  4.024151  0.0
C  C244  1  0.59214952  0.54237010  0.76260263  1  0.037394  0.001765  -0.079495  -0.06674  0.000844  3.978806  0.001
C  C245  1  0.59215045  0.22023210  0.45762836  1  0.029477  0.001779  -0.079499  -0.066786  0.000844  3.97862  0.001
C  C246  1  0.59214850  0.23739661  0.77976722  1  -0.031702  0.001825  -0.07952  -0.066805  0.000844  3.978744  0.001
C  C247  1  0.40784907  0.45762985  0.23739758  1  0.037428  0.001765  -0.079494  -0.066754  0.000844  3.978685  0.001
C  C248  1  0.40785022  0.77976735  0.54236996  1  0.029469  0.001779  -0.079469  -0.066696  0.000844  3.978729  0.001
C  C249  1  0.40785009  0.76260287  0.22023346  1  -0.031696  0.001825  -0.079509  -0.066778  0.000844  3.978747  0.001
C  C250  1  0.86125638  0.53432964  0.92786372  1  0.013272  0.000641  -0.091442  -0.132959  0.000289  3.969943  0.0
C  C251  1  0.86125828  0.39353402  0.46567009  1  -0.01956  0.000653  -0.091411  -0.132873  0.000289  3.969894  0.0
C  C252  1  0.86125835  0.07213671  0.60646692  1  -0.089112  0.000668  -0.091457  -0.132989  0.000289  3.969921  0.0
C  C253  1  0.13874117  0.46567197  0.07213723  1  0.01326  0.000641  -0.091417  -0.132882  0.000289  3.969807  0.0
C  C254  1  0.13874135  0.60646605  0.53432841  1  -0.019588  0.000652  -0.091423  -0.132827  0.000289  3.969864  0.0
C  C255  1  0.13874128  0.92786261  0.39353313  1  -0.089099  0.000668  -0.091469  -0.132988  0.000289  3.969902  0.0
C  C256  1  0.62332083  0.50597637  0.93398810  1  -0.045314  0.000474  -0.094646  -0.140375  0.000197  3.984692  0.0
C  C257  1  0.62332378  0.42801240  0.49402521  1  -0.065665  0.000475  -0.094604  -0.140263  0.000197  3.984569  0.0
C  C258  1  0.62332383  0.06601227  0.57198667  1  -0.141504  0.000498  -0.094624  -0.140291  0.000197  3.984662  0.0
C  C259  1  0.37667567  0.49402666  0.06601381  1  -0.045344  0.000474  -0.094526  -0.140158  0.000197  3.984459  0.0
C  C260  1  0.37667480  0.57198681  0.50597335  1  -0.065282  0.000475  -0.094546  -0.140089  0.000197  3.984511  0.0
C  C261  1  0.37667684  0.93398688  0.42801274  1  -0.141525  0.000498  -0.094617  -0.140332  0.000197  3.98464  0.0
C  C262  1  0.74712872  0.53604463  0.96398135  1  -0.032187  0.000838  -0.00951  0.06778  0.000375  4.004648  0.0
C  C263  1  0.74712956  0.42793843  0.46395682  1  -0.010211  0.000836  -0.009495  0.067767  0.000375  4.004597  0.0
C  C264  1  0.74712858  0.03601878  0.57206264  1  -0.021901  0.000838  -0.00947  0.067773  0.000375  4.004604  0.0
C  C265  1  0.25287196  0.46395806  0.03601931  1  -0.032164  0.000838  -0.00953  0.067754  0.000375  4.00447  0.0
C  C266  1  0.25287007  0.57206118  0.53604214  1  -0.010268  0.000837  -0.009534  0.067661  0.000375  4.004556  0.0
C  C267  1  0.25287106  0.96398076  0.42793717  1  -0.021834  0.000838  -0.009482  0.067802  0.000375  4.004416  0.0
O  O268  1  0.91483926  0.65288430  0.26106192  1  -1.403775  0.119415  -0.353913  -0.718983  0.055106  2.345491  0.09
O  O269  1  0.91483930  0.60817832  0.34711642  1  -1.405958  0.11943  -0.353936  -0.719091  0.055109  2.345545  0.09
O  O270  1  0.91483931  0.73893836  0.39182272  1  -1.403505  0.119401  -0.353921  -0.719014  0.055107  2.345498  0.09
O  O271  1  0.08516037  0.34711525  0.73893790  1  -1.40377  0.119417  -0.353935  -0.719047  0.055106  2.34546  0.09
O  O272  1  0.08516033  0.39182242  0.65288459  1  -1.405851  0.119422  -0.353959  -0.719078  0.055111  2.345555  0.09
O  O273  1  0.08516032  0.26106222  0.60817767  1  -1.40356  0.119409  -0.353913  -0.719024  0.055108  2.345488  0.09
O  O274  1  0.64741363  0.67461847  0.27122482  1  -1.407944  0.119801  -0.358139  -0.725935  0.055193  2.372474  0.09
O  O275  1  0.64741261  0.59660757  0.32538289  1  -1.406647  0.119773  -0.358172  -0.725982  0.055196  2.372399  0.09
O  O276  1  0.64741264  0.72877554  0.40339346  1  -1.410962  0.119892  -0.358167  -0.725925  0.055193  2.3724  0.09
O  O277  1  0.35258704  0.32538313  0.72877613  1  -1.407912  0.119802  -0.358148  -0.725914  0.055192  2.37237  0.09
O  O278  1  0.35258702  0.40339283  0.67461687  1  -1.406656  0.119768  -0.358165  -0.725953  0.055194  2.372419  0.09
O  O279  1  0.35258803  0.27122395  0.59660722  1  -1.410932  0.119894  -0.358171  -0.725943  0.055195  2.372434  0.09
O  O280  1  0.58511203  0.39446968  0.73672450  1  -1.399902  0.123639  -0.354655  -0.719358  0.056904  2.34803  0.094
O  O281  1  0.58511302  0.34225454  0.60553026  1  -1.401697  0.123694  -0.35467  -0.719398  0.056904  2.34811  0.094
O  O282  1  0.58511200  0.26327572  0.65774551  1  -1.400573  0.12363  -0.354675  -0.719367  0.056905  2.348079  0.094
O  O283  1  0.41488760  0.60553113  0.26327565  1  -1.399841  0.123636  -0.354711  -0.719425  0.056906  2.348163  0.094
O  O284  1  0.41488765  0.65774500  0.39446956  1  -1.401699  0.123697  -0.354668  -0.719415  0.056904  2.348038  0.094
O  O285  1  0.41488659  0.73672502  0.34225551  1  -1.400592  0.123626  -0.354627  -0.719355  0.056903  2.348154  0.094
O  O286  1  0.85308413  0.40518889  0.72541694  1  -1.407043  0.12455  -0.357519  -0.724303  0.057134  2.373442  0.094
O  O287  1  0.85308409  0.32022771  0.59481095  1  -1.405134  0.124447  -0.357526  -0.724338  0.057136  2.373532  0.094
O  O288  1  0.85308516  0.27458337  0.67977243  1  -1.402347  0.124367  -0.357523  -0.724269  0.057134  2.373432  0.094
O  O289  1  0.14691445  0.59481106  0.27458327  1  -1.407052  0.124555  -0.357564  -0.724297  0.057136  2.37347  0.094
O  O290  1  0.14691450  0.67977247  0.40518903  1  -1.405129  0.12445  -0.357537  -0.72434  0.057137  2.373478  0.094
O  O291  1  0.14691447  0.72541658  0.32022778  1  -1.402348  0.124371  -0.35755  -0.724265  0.057136  2.373473  0.094
