# generated using pymatgen
data_KInH8(CO3)4
_symmetry_space_group_name_H-M   'P 1'
_cell_length_a   8.80833894
_cell_length_b   9.07596540
_cell_length_c   9.07585598
_cell_angle_alpha   76.38096104
_cell_angle_beta   60.97052029
_cell_angle_gamma   60.97080447
_symmetry_Int_Tables_number   1
_chemical_formula_structural   KInH8(CO3)4
_chemical_formula_sum   'K2 In2 H16 C8 O24'
_cell_volume   554.71036922
_cell_formula_units_Z   2
loop_
 _symmetry_equiv_pos_site_id
 _symmetry_equiv_pos_as_xyz
  1  'x, y, z'
loop_
 _atom_site_type_symbol
 _atom_site_label
 _atom_site_symmetry_multiplicity
 _atom_site_fract_x
 _atom_site_fract_y
 _atom_site_fract_z
 _atom_site_occupancy
 _atom_site_hle17_bader_spin_density
 _atom_site_hle17_ddec_charge
 _atom_site_hle17_ddec_spin_density
 _atom_site_hle17_ddec_sum_bond_order
 _atom_site_hle17_magmom
 _atom_site_hse06_10hf_bader_spin_density
 _atom_site_hse06_10hf_ddec_charge
 _atom_site_hse06_10hf_ddec_spin_density
 _atom_site_hse06_10hf_ddec_sum_bond_order
 _atom_site_hse06_10hf_magmom
 _atom_site_hse06_bader_spin_density
 _atom_site_hse06_ddec_charge
 _atom_site_hse06_ddec_spin_density
 _atom_site_hse06_ddec_sum_bond_order
 _atom_site_hse06_magmom
 _atom_site_pbe_bader_spin_density
 _atom_site_pbe_cm5_charge
 _atom_site_pbe_ddec_charge
 _atom_site_pbe_ddec_spin_density
 _atom_site_pbe_ddec_sum_bond_order
 _atom_site_pbe_magmom
K  K0  1  0.87500516  0.24999246  0.24999661  1  0  0.921877  0  0.475875  0  0  0.87041  0  0.660358  0  0  0.886703  0  0.635226  0  0  0.788828  0.857919  0  0.678829  0
K  K1  1  0.12500798  0.75000677  0.75000717  1  0  0.921875  0  0.4759  0  0  0.870427  0  0.660391  0  0  0.886692  0  0.63529  0  0  0.788835  0.857929  0  0.678864  0
In  In2  1  0.37498203  0.25000261  0.24999957  1  0  1.646827  0  2.1254  0  0  1.461069  0  2.566137  0  0  1.53433  0  2.515906  0  0  0.759566  1.409562  0  2.599867  0
In  In3  1  0.62501581  0.75000128  0.74999917  1  0  1.646799  0  2.125473  0  0  1.461002  0  2.566233  0  0  1.534263  0  2.516009  0  0  0.759552  1.409495  0  2.599962  0
H  H4  1  0.49371237  0.67466523  0.32623859  1  0  0.428344  0  0.867846  0  0  0.39906  0  0.928764  0  0  0.40913  0  0.913997  0  0  0.287926  0.391919  0  0.939222  0
H  H5  1  0.81995303  0.67376120  0.17466113  1  0  0.428356  0  0.867821  0  0  0.399071  0  0.928742  0  0  0.40914  0  0.913977  0  0  0.287913  0.39193  0  0.939199  0
H  H6  1  0.99461458  0.82533757  0.17376153  1  0  0.42833  0  0.867841  0  0  0.399037  0  0.928776  0  0  0.409108  0  0.914007  0  0  0.28789  0.391898  0  0.939231  0
H  H7  1  0.16837795  0.82624163  0.32533439  1  0  0.428342  0  0.867787  0  0  0.399053  0  0.928718  0  0  0.409123  0  0.913949  0  0  0.287914  0.391912  0  0.939179  0
H  H8  1  0.50628680  0.32533350  0.67376015  1  0  0.428316  0  0.867886  0  0  0.39903  0  0.928808  0  0  0.4091  0  0.914041  0  0  0.287918  0.391891  0  0.939265  0
H  H9  1  0.18004741  0.32624395  0.82533509  1  0  0.428317  0  0.867871  0  0  0.399031  0  0.928793  0  0  0.409102  0  0.914026  0  0  0.28791  0.391894  0  0.939246  0
H  H10  1  0.00538571  0.17466648  0.82623721  1  0  0.42829  0  0.867882  0  0  0.398998  0  0.928814  0  0  0.409069  0  0.914046  0  0  0.287897  0.391861  0  0.939267  0
H  H11  1  0.83162777  0.17375507  0.67466056  1  0  0.428337  0  0.867795  0  0  0.399048  0  0.928727  0  0  0.409117  0  0.913959  0  0  0.287906  0.391906  0  0.939188  0
H  H12  1  0.63317095  0.60221574  0.41481829  1  0  0.409581  0  0.89329  0  0  0.380184  0  0.955621  0  0  0.390554  0  0.940223  0  0  0.29506  0.37287  0  0.966472  0
H  H13  1  0.04798908  0.58518342  0.10220770  1  0  0.409603  0  0.893298  0  0  0.380213  0  0.955619  0  0  0.390582  0  0.940223  0  0  0.295083  0.372898  0  0.966469  0
H  H14  1  0.15020153  0.89778762  0.08518068  1  0  0.409593  0  0.893303  0  0  0.380195  0  0.955635  0  0  0.390562  0  0.940241  0  0  0.295066  0.37288  0  0.966485  0
H  H15  1  0.23538697  0.91481028  0.39779424  1  0  0.409623  0  0.89325  0  0  0.380205  0  0.955625  0  0  0.390578  0  0.940222  0  0  0.295052  0.372892  0  0.966471  0
H  H16  1  0.36682630  0.39778878  0.58518297  1  0  0.409601  0  0.893264  0  0  0.380206  0  0.955593  0  0  0.390575  0  0.940195  0  0  0.295045  0.372888  0  0.966448  0
H  H17  1  0.95200832  0.41482220  0.89779104  1  0  0.409577  0  0.893315  0  0  0.380181  0  0.955641  0  0  0.39055  0  0.940245  0  0  0.295088  0.372865  0  0.966494  0
H  H18  1  0.84980090  0.10221299  0.91481554  1  0  0.4096  0  0.893294  0  0  0.3802  0  0.955631  0  0  0.390569  0  0.940234  0  0  0.295061  0.372887  0  0.966478  0
H  H19  1  0.76461635  0.08518689  0.60220198  1  0  0.409616  0  0.893255  0  0  0.380187  0  0.955652  0  0  0.390561  0  0.940246  0  0  0.295045  0.372875  0  0.966498  0
C  C20  1  0.39513157  0.01960090  0.02620532  1  0  0.559568  0  3.890476  0  0  0.508821  0  4.190146  0  0  0.540009  0  4.181974  0  0  0.234551  0.487582  0  4.195163  0
C  C21  1  0.42133922  0.97380568  0.51959216  1  0  0.559466  0  3.890412  0  0  0.508726  0  4.190072  0  0  0.539918  0  4.181898  0  0  0.234683  0.487489  0  4.195084  0
C  C22  1  0.94094007  0.48039717  0.47379982  1  0  0.55927  0  3.890745  0  0  0.508549  0  4.190389  0  0  0.539734  0  4.182228  0  0  0.234603  0.487317  0  4.195402  0
C  C23  1  0.41474183  0.52619183  0.98040298  1  0  0.559305  0  3.889914  0  0  0.508599  0  4.189618  0  0  0.539785  0  4.181447  0  0  0.234668  0.487362  0  4.194634  0
C  C24  1  0.60486403  0.98039155  0.97378712  1  0  0.559146  0  3.890904  0  0  0.508457  0  4.190516  0  0  0.539646  0  4.182347  0  0  0.234437  0.487224  0  4.195529  0
C  C25  1  0.57865266  0.02620602  0.48040784  1  0  0.559384  0  3.890897  0  0  0.508721  0  4.190447  0  0  0.539912  0  4.182275  0  0  0.234723  0.487486  0  4.19546  0
C  C26  1  0.05905868  0.51959891  0.52620774  1  0  0.559366  0  3.890529  0  0  0.508663  0  4.190149  0  0  0.539852  0  4.181985  0  0  0.234643  0.487421  0  4.19516  0
C  C27  1  0.58526602  0.47379002  0.01959702  1  0  0.559554  0  3.89074  0  0  0.508813  0  4.190411  0  0  0.540003  0  4.18224  0  0  0.234797  0.487574  0  4.195425  0
O  O28  1  0.26598243  0.12590479  0.14166711  1  0  -0.585839  0  2.104666  0  0  -0.533147  0  2.350193  0  0  -0.559188  0  2.343157  0  0  -0.321265  -0.515047  0  2.354519  0
O  O29  1  0.40764096  0.85832866  0.62591275  1  0  -0.585909  0  2.104043  0  0  -0.533239  0  2.349595  0  0  -0.559285  0  2.34257  0  0  -0.321313  -0.515135  0  2.353911  0
O  O30  1  0.03354501  0.37409779  0.35834516  1  0  -0.585717  0  2.104792  0  0  -0.533006  0  2.35027  0  0  -0.559039  0  2.343235  0  0  -0.321212  -0.514912  0  2.354594  0
O  O31  1  0.39188456  0.64166922  0.87408737  1  0  -0.585849  0  2.104051  0  0  -0.53317  0  2.349592  0  0  -0.559213  0  2.342565  0  0  -0.321312  -0.515069  0  2.353912  0
O  O32  1  0.73400313  0.87410550  0.85833793  1  0  -0.5854  0  2.105245  0  0  -0.53273  0  2.350776  0  0  -0.558761  0  2.343743  0  0  -0.321037  -0.514633  0  2.355096  0
O  O33  1  0.59234577  0.14167038  0.37410237  1  0  -0.585734  0  2.104508  0  0  -0.533043  0  2.349949  0  0  -0.559085  0  2.34292  0  0  -0.321203  -0.514945  0  2.354268  0
O  O34  1  0.96645652  0.62590205  0.64166492  1  0  -0.585679  0  2.10473  0  0  -0.532995  0  2.35022  0  0  -0.559025  0  2.343185  0  0  -0.321194  -0.514899  0  2.354544  0
O  O35  1  0.60811919  0.35832982  0.12589373  1  0  -0.585709  0  2.1046  0  0  -0.533011  0  2.350103  0  0  -0.559052  0  2.343075  0  0  -0.321178  -0.514915  0  2.354424  0
O  O36  1  0.36734147  0.94087196  0.94927428  1  0  -0.596629  0  2.099244  0  0  -0.531316  0  2.335156  0  0  -0.560741  0  2.328204  0  0  -0.262545  -0.510944  0  2.339346  0
O  O37  1  0.31662346  0.05072621  0.44086956  1  0  -0.596517  0  2.099518  0  0  -0.531263  0  2.335529  0  0  -0.560685  0  2.328561  0  0  -0.2624  -0.5109  0  2.33972  0
O  O38  1  0.75748670  0.55912878  0.55074023  1  0  -0.596506  0  2.099225  0  0  -0.531237  0  2.335177  0  0  -0.560651  0  2.328194  0  0  -0.262618  -0.510885  0  2.339375  0
O  O39  1  0.30822443  0.44926234  0.05912182  1  0  -0.596423  0  2.099006  0  0  -0.531209  0  2.335033  0  0  -0.56063  0  2.328078  0  0  -0.262402  -0.510842  0  2.33922  0
O  O40  1  0.63265043  0.05912895  0.05073454  1  0  -0.596687  0  2.098861  0  0  -0.531435  0  2.334823  0  0  -0.560856  0  2.32784  0  0  -0.262585  -0.511076  0  2.33902  0
O  O41  1  0.68337188  0.94927189  0.55913548  1  0  -0.596579  0  2.099535  0  0  -0.531323  0  2.335501  0  0  -0.560761  0  2.328562  0  0  -0.262446  -0.510964  0  2.339696  0
O  O42  1  0.24251857  0.44087044  0.44926103  1  0  -0.596586  0  2.099042  0  0  -0.531332  0  2.335001  0  0  -0.560747  0  2.328016  0  0  -0.262678  -0.510956  0  2.339193  0
O  O43  1  0.69177326  0.55073326  0.94087314  1  0  -0.596738  0  2.099425  0  0  -0.531451  0  2.335411  0  0  -0.560873  0  2.328436  0  0  -0.262523  -0.511081  0  2.339603  0
O  O44  1  0.63152569  0.61148154  0.30543476  1  0  -0.857178  0  1.809426  0  0  -0.806427  0  1.964356  0  0  -0.824981  0  1.934065  0  0  -0.620986  -0.7932  0  1.985514  0
O  O45  1  0.93695929  0.69456533  0.11147825  1  0  -0.857203  0  1.809438  0  0  -0.806439  0  1.964347  0  0  -0.824991  0  1.934065  0  0  -0.620961  -0.79321  0  1.985509  0
O  O46  1  0.04843808  0.88852370  0.19456278  1  0  -0.857159  0  1.809444  0  0  -0.806395  0  1.964375  0  0  -0.824948  0  1.93409  0  0  -0.620984  -0.793165  0  1.985537  0
O  O47  1  0.24300937  0.80543035  0.38851758  1  0  -0.857205  0  1.809309  0  0  -0.806432  0  1.964233  0  0  -0.824981  0  1.933934  0  0  -0.620945  -0.793206  0  1.985408  0
O  O48  1  0.36847640  0.38851626  0.69456523  1  0  -0.857157  0  1.809466  0  0  -0.806404  0  1.964398  0  0  -0.824954  0  1.93411  0  0  -0.620966  -0.793177  0  1.985558  0
O  O49  1  0.06303766  0.30544200  0.88852049  1  0  -0.857124  0  1.809499  0  0  -0.806368  0  1.964426  0  0  -0.824923  0  1.93414  0  0  -0.620967  -0.793142  0  1.985583  0
O  O50  1  0.95156621  0.11147770  0.80543596  1  0  -0.857129  0  1.809458  0  0  -0.806357  0  1.964391  0  0  -0.824911  0  1.934105  0  0  -0.620995  -0.793126  0  1.985547  0
O  O51  1  0.75700007  0.19456652  0.61147485  1  0  -0.857204  0  1.809281  0  0  -0.806427  0  1.964216  0  0  -0.824984  0  1.933928  0  0  -0.620942  -0.793195  0  1.985376  0
