# generated using pymatgen
data_HgH12C6(BrN2)2
_symmetry_space_group_name_H-M   'P 1'
_cell_length_a   6.62933316
_cell_length_b   6.77710931
_cell_length_c   12.21410988
_cell_angle_alpha   94.03627639
_cell_angle_beta   90.00144800
_cell_angle_gamma   89.99871742
_symmetry_Int_Tables_number   1
_chemical_formula_structural   HgH12C6(BrN2)2
_chemical_formula_sum   'Hg2 H24 C12 Br4 N8'
_cell_volume   547.39097545
_cell_formula_units_Z   2
loop_
 _symmetry_equiv_pos_site_id
 _symmetry_equiv_pos_as_xyz
  1  'x, y, z'
loop_
 _atom_site_type_symbol
 _atom_site_label
 _atom_site_symmetry_multiplicity
 _atom_site_fract_x
 _atom_site_fract_y
 _atom_site_fract_z
 _atom_site_occupancy
 _atom_site_hle17_bader_spin_density
 _atom_site_hle17_ddec_charge
 _atom_site_hle17_ddec_spin_density
 _atom_site_hle17_ddec_sum_bond_order
 _atom_site_hle17_magmom
 _atom_site_hse06_10hf_bader_spin_density
 _atom_site_hse06_10hf_ddec_charge
 _atom_site_hse06_10hf_ddec_spin_density
 _atom_site_hse06_10hf_ddec_sum_bond_order
 _atom_site_hse06_10hf_magmom
 _atom_site_hse06_bader_spin_density
 _atom_site_hse06_ddec_charge
 _atom_site_hse06_ddec_spin_density
 _atom_site_hse06_ddec_sum_bond_order
 _atom_site_hse06_magmom
 _atom_site_pbe_bader_spin_density
 _atom_site_pbe_cm5_charge
 _atom_site_pbe_ddec_charge
 _atom_site_pbe_ddec_spin_density
 _atom_site_pbe_ddec_sum_bond_order
 _atom_site_pbe_magmom
Hg  Hg0  1  0.75000352  0.89395051  0.80258749  1  0  0.651796  0  1.964207  0  0  0.502865  0  2.428999  0  0  0.552019  0  2.397649  0  0  0.457972  0.469361  0  2.449914  0
Hg  Hg1  1  0.24999227  0.10602257  0.19742136  1  0  0.651956  0  1.964029  0  0  0.502997  0  2.428783  0  0  0.552145  0  2.397432  0  0  0.457953  0.469491  0  2.449701  0
H  H2  1  0.06931671  0.52926505  0.87794978  1  0  0.067198  0  0.938121  0  0  0.079134  0  1.007408  0  0  0.079899  0  1.00628  0  0  0.102628  0.078498  0  1.008341  0
H  H3  1  0.56928376  0.47072780  0.12205654  1  0  0.067228  0  0.938127  0  0  0.079181  0  1.00744  0  0  0.079966  0  1.00629  0  0  0.102639  0.078536  0  1.008393  0
H  H4  1  0.93066550  0.47073165  0.12204442  1  0  0.067066  0  0.938073  0  0  0.079023  0  1.007432  0  0  0.079793  0  1.006298  0  0  0.10255  0.078373  0  1.008397  0
H  H5  1  0.43068488  0.52927191  0.87795252  1  0  0.067317  0  0.938054  0  0  0.079173  0  1.007387  0  0  0.079955  0  1.006236  0  0  0.102632  0.078522  0  1.008346  0
H  H6  1  0.93539789  0.41985462  0.76138363  1  0  0.058231  0  0.953734  0  0  0.069896  0  1.025557  0  0  0.070282  0  1.024828  0  0  0.100828  0.069478  0  1.026356  0
H  H7  1  0.43538180  0.58012224  0.23861890  1  0  0.05833  0  0.953805  0  0  0.070013  0  1.025625  0  0  0.070399  0  1.0249  0  0  0.100864  0.069565  0  1.026453  0
H  H8  1  0.06459036  0.58012579  0.23860258  1  0  0.05823  0  0.953698  0  0  0.069939  0  1.025521  0  0  0.070324  0  1.024792  0  0  0.100876  0.069498  0  1.026341  0
H  H9  1  0.56461550  0.41985529  0.76139176  1  0  0.058273  0  0.953809  0  0  0.069904  0  1.025658  0  0  0.070286  0  1.024932  0  0  0.10082  0.069467  0  1.026467  0
H  H10  1  0.25000063  0.83433715  0.86469627  1  0  0.07247  0  0.94031  0  0  0.083776  0  1.010402  0  0  0.084379  0  1.009685  0  0  0.104064  0.083274  0  1.011042  0
H  H11  1  0.74998913  0.16564624  0.13529660  1  0  0.072638  0  0.94044  0  0  0.084043  0  1.01028  0  0  0.084647  0  1.009561  0  0  0.104114  0.083538  0  1.010917  0
H  H12  1  0.24999327  0.95476163  0.73956378  1  0  0.077954  0  0.91441  0  0  0.088476  0  0.984422  0  0  0.089442  0  0.983446  0  0  0.111688  0.087656  0  0.985313  0
H  H13  1  0.75000554  0.04521292  0.26044104  1  0  0.078049  0  0.914292  0  0  0.088443  0  0.984422  0  0  0.089407  0  0.983447  0  0  0.111687  0.087624  0  0.985311  0
H  H14  1  0.93453971  0.58244841  0.59071432  1  0  0.070783  0  0.940733  0  0  0.079355  0  1.014603  0  0  0.080443  0  1.013473  0  0  0.111381  0.078441  0  1.015712  0
H  H15  1  0.43455203  0.41750775  0.40928332  1  0  0.070909  0  0.940794  0  0  0.07949  0  1.014633  0  0  0.080574  0  1.013508  0  0  0.111434  0.078573  0  1.015742  0
H  H16  1  0.06545457  0.41754974  0.40926602  1  0  0.070746  0  0.940807  0  0  0.079336  0  1.014724  0  0  0.080413  0  1.013589  0  0  0.111403  0.078431  0  1.015823  0
H  H17  1  0.56546187  0.58245643  0.59071455  1  0  0.07082  0  0.940731  0  0  0.079397  0  1.014569  0  0  0.080486  0  1.013444  0  0  0.111405  0.078484  0  1.015672  0
H  H18  1  0.06904403  0.80999847  0.58225721  1  0  0.061361  0  0.950356  0  0  0.069316  0  1.026304  0  0  0.070235  0  1.025174  0  0  0.099006  0.068584  0  1.02733  0
H  H19  1  0.56907676  0.18998253  0.41773882  1  0  0.061439  0  0.950246  0  0  0.069407  0  1.026171  0  0  0.070329  0  1.02504  0  0  0.099106  0.068675  0  1.027195  0
H  H20  1  0.93097590  0.19000562  0.41773236  1  0  0.061456  0  0.950267  0  0  0.069406  0  1.026271  0  0  0.070318  0  1.025132  0  0  0.099032  0.068677  0  1.027307  0
H  H21  1  0.43093865  0.80999941  0.58226219  1  0  0.06147  0  0.950305  0  0  0.069398  0  1.026283  0  0  0.070317  0  1.025157  0  0  0.099057  0.068678  0  1.027282  0
H  H22  1  0.38518978  0.27907689  0.60571599  1  0  0.061594  0  0.957846  0  0  0.072372  0  1.029983  0  0  0.07314  0  1.028974  0  0  0.100494  0.07174  0  1.03086  0
H  H23  1  0.88519671  0.72091276  0.39427816  1  0  0.061613  0  0.957866  0  0  0.07236  0  1.030004  0  0  0.07313  0  1.028992  0  0  0.100506  0.071729  0  1.030881  0
H  H24  1  0.61480149  0.72091983  0.39428066  1  0  0.061629  0  0.957838  0  0  0.072378  0  1.029979  0  0  0.073144  0  1.028973  0  0  0.100485  0.071746  0  1.030857  0
H  H25  1  0.11481869  0.27907655  0.60571494  1  0  0.061578  0  0.957996  0  0  0.072377  0  1.030093  0  0  0.073147  0  1.029081  0  0  0.100505  0.071746  0  1.03097  0
C  C26  1  0.07054280  0.50372025  0.78813348  1  0  0.077672  0  3.634969  0  0  0.00691  0  3.890963  0  0  0.015315  0  3.901446  0  0  0.007711  0.001325  0  3.883431  0
C  C27  1  0.57052247  0.49626369  0.21186842  1  0  0.077517  0  3.63504  0  0  0.006557  0  3.891264  0  0  0.014961  0  3.901717  0  0  0.007569  0.000997  0  3.883721  0
C  C28  1  0.92944846  0.49626463  0.21186273  1  0  0.078016  0  3.634627  0  0  0.007001  0  3.890949  0  0  0.015413  0  3.901413  0  0  0.007741  0.001438  0  3.883406  0
C  C29  1  0.42946729  0.50372123  0.78814089  1  0  0.077561  0  3.635035  0  0  0.006927  0  3.890933  0  0  0.015328  0  3.901396  0  0  0.007699  0.001346  0  3.883427  0
C  C30  1  0.24999732  0.80992527  0.77486183  1  0  0.07844  0  3.600801  0  0  0.006549  0  3.854934  0  0  0.014918  0  3.86623  0  0  0.00994  0.000814  0  3.847096  0
C  C31  1  0.74999243  0.19005368  0.22513088  1  0  0.078259  0  3.60123  0  0  0.006517  0  3.855016  0  0  0.0149  0  3.866287  0  0  0.009902  0.000783  0  3.847178  0
C  C32  1  0.07031668  0.66540221  0.61773228  1  0  0.073012  0  3.636436  0  0  0.003934  0  3.895591  0  0  0.01202  0  3.905845  0  0  0.007748  -0.001532  0  3.888275  0
C  C33  1  0.57033829  0.33458172  0.38226225  1  0  0.072806  0  3.636464  0  0  0.003693  0  3.895547  0  0  0.011787  0  3.905773  0  0  0.007617  -0.001745  0  3.888181  0
C  C34  1  0.92968212  0.33459003  0.38225193  1  0  0.073078  0  3.63626  0  0  0.003892  0  3.895389  0  0  0.011987  0  3.905659  0  0  0.007737  -0.00156  0  3.888027  0
C  C35  1  0.42967711  0.66540317  0.61773642  1  0  0.07288  0  3.636351  0  0  0.003827  0  3.89546  0  0  0.01193  0  3.905662  0  0  0.007723  -0.001618  0  3.88811  0
C  C36  1  0.24999781  0.36310883  0.63206619  1  0  0.070412  0  3.644669  0  0  0.004343  0  3.904585  0  0  0.012046  0  3.91404  0  0  0.007153  -0.000898  0  3.897895  0
C  C37  1  0.75000100  0.63689085  0.36793385  1  0  0.070334  0  3.644734  0  0  0.004326  0  3.904496  0  0  0.012034  0  3.913943  0  0  0.007181  -0.000916  0  3.89781  0
Br  Br38  1  0.75001059  0.10240996  0.63663580  1  0  -0.392803  0  1.069537  0  0  -0.334369  0  1.388098  0  0  -0.349882  0  1.366239  0  0  -0.177781  -0.324464  0  1.403548  0
Br  Br39  1  0.25005761  0.89762083  0.36338017  1  0  -0.392798  0  1.069683  0  0  -0.334365  0  1.388285  0  0  -0.349879  0  1.366422  0  0  -0.177728  -0.324461  0  1.403736  0
Br  Br40  1  0.75000009  0.80510387  0.99871329  1  0  -0.406504  0  1.052345  0  0  -0.354972  0  1.363683  0  0  -0.372817  0  1.343283  0  0  -0.21284  -0.343571  0  1.377763  0
Br  Br41  1  0.24997459  0.19515479  0.00133840  1  0  -0.406396  0  1.05203  0  0  -0.3549  0  1.363446  0  0  -0.372749  0  1.343063  0  0  -0.212774  -0.343496  0  1.377521  0
N  N42  1  0.25000784  0.39036706  0.75294409  1  0  -0.268886  0  3.13862  0  0  -0.199776  0  3.398304  0  0  -0.21587  0  3.415111  0  0  -0.346869  -0.188055  0  3.385964  0
N  N43  1  0.74998493  0.60962966  0.24705502  1  0  -0.268939  0  3.138362  0  0  -0.199679  0  3.398049  0  0  -0.215777  0  3.414869  0  0  -0.346854  -0.187956  0  3.385708  0
N  N44  1  0.06591293  0.69925771  0.73935004  1  0  -0.272749  0  3.185472  0  0  -0.174374  0  3.418132  0  0  -0.19576  0  3.440928  0  0  -0.332245  -0.159121  0  3.401732  0
N  N45  1  0.56591762  0.30072187  0.26064753  1  0  -0.273018  0  3.185958  0  0  -0.174597  0  3.418449  0  0  -0.195983  0  3.441253  0  0  -0.33239  -0.159343  0  3.402044  0
N  N46  1  0.93407984  0.30072715  0.26063797  1  0  -0.273127  0  3.185805  0  0  -0.174664  0  3.41838  0  0  -0.196052  0  3.441139  0  0  -0.33237  -0.159404  0  3.401989  0
N  N47  1  0.43409024  0.69926006  0.73935102  1  0  -0.272848  0  3.185511  0  0  -0.174492  0  3.418129  0  0  -0.195881  0  3.440928  0  0  -0.332316  -0.15924  0  3.401723  0
N  N48  1  0.24999434  0.55395423  0.58051971  1  0  -0.277005  0  3.148702  0  0  -0.20991  0  3.409807  0  0  -0.225335  0  3.425857  0  0  -0.348334  -0.198895  0  3.39835  0
N  N49  1  0.75000447  0.44604247  0.41947449  1  0  -0.277046  0  3.148963  0  0  -0.209833  0  3.409952  0  0  -0.225275  0  3.426011  0  0  -0.348348  -0.198814  0  3.398497  0
