# generated using pymatgen
data_Fe2H16C24N4O9
_symmetry_space_group_name_H-M   'P 1'
_cell_length_a   10.32813012
_cell_length_b   11.55998050
_cell_length_c   13.90402050
_cell_angle_alpha   105.04446167
_cell_angle_beta   100.58736333
_cell_angle_gamma   114.84801092
_symmetry_Int_Tables_number   1
_chemical_formula_structural   Fe2H16C24N4O9
_chemical_formula_sum   'Fe4 H32 C48 N8 O18'
_cell_volume   1371.12458815
_cell_formula_units_Z   2
loop_
 _symmetry_equiv_pos_site_id
 _symmetry_equiv_pos_as_xyz
  1  'x, y, z'
loop_
 _atom_site_type_symbol
 _atom_site_label
 _atom_site_symmetry_multiplicity
 _atom_site_fract_x
 _atom_site_fract_y
 _atom_site_fract_z
 _atom_site_occupancy
 _atom_site_pbe_bader_charge
 _atom_site_pbe_bader_spin_density
 _atom_site_pbe_cm5_charge
 _atom_site_pbe_ddec_charge
 _atom_site_pbe_ddec_spin_density
 _atom_site_pbe_ddec_sum_bond_order
 _atom_site_pbe_magmom
Fe  Fe0  1  0.80762044  0.00175260  0.79064372  1  1.54757  3.253709  0.822232  1.044552  3.588238  2.981799  3.217
Fe  Fe1  1  0.19238504  0.99825261  0.20935267  1  1.547524  3.253748  0.822253  1.044658  3.588282  2.981835  3.217
Fe  Fe2  1  0.45820642  0.74325451  0.68809421  1  1.573156  3.496436  0.820357  1.076755  3.846481  2.886327  3.452
Fe  Fe3  1  0.54179292  0.25675043  0.31191061  1  1.573085  3.49639  0.820259  1.076672  3.846407  2.886537  3.452
H  H4  1  0.03262253  0.11206070  0.99496692  1  0.153655  0.000493  0.119151  0.087675  -0.000126  1.081621  0.0
H  H5  1  0.96737544  0.88793211  0.00502710  1  0.153408  0.000493  0.119137  0.087626  -0.000126  1.081714  0.0
H  H6  1  0.47362043  0.20969880  0.96976444  1  0.16099  0.000177  0.11091  0.119764  1.7e-05  1.034216  0.0
H  H7  1  0.52637966  0.79029809  0.03023366  1  0.160998  0.000177  0.110945  0.119787  1.7e-05  1.034169  0.0
H  H8  1  0.07231310  0.02738336  0.69841269  1  0.127083  0.0004  0.119393  0.092046  -4.6e-05  1.009099  0.0
H  H9  1  0.92769449  0.97262396  0.30158231  1  0.126492  0.0004  0.119393  0.092062  -4.6e-05  1.009076  0.0
H  H10  1  0.35121867  0.11331408  0.77415998  1  0.12744  0.000506  0.121789  0.144126  0.000184  0.96955  0.0
H  H11  1  0.64878448  0.88668490  0.22583902  1  0.127505  0.000506  0.121786  0.144107  0.000184  0.969623  0.0
H  H12  1  0.43654377  0.84825593  0.90546593  1  0.164863  0.002045  0.124396  0.096191  0.000673  1.031413  0.001
H  H13  1  0.56344895  0.15172334  0.09453659  1  0.164724  0.002045  0.124459  0.096257  0.000673  1.031347  0.001
H  H14  1  0.98442351  0.78046863  0.87295959  1  0.14898  0.0003  0.112795  0.122045  -5.7e-05  1.020348  0.0
H  H15  1  0.01557426  0.21953130  0.12703671  1  0.148963  0.0003  0.112792  0.122041  -5.7e-05  1.02039  0.0
H  H16  1  0.69928649  0.01846305  0.58111131  1  0.122229  0.001904  0.126596  0.104715  0.000536  0.996648  0.001
H  H17  1  0.30072161  0.98153795  0.41889531  1  0.122226  0.001903  0.126594  0.104771  0.000536  0.996486  0.001
H  H18  1  0.97907506  0.50428880  0.82230693  1  0.100146  0.00082  0.103388  0.107067  0.000324  1.017749  0.0
H  H19  1  0.02090290  0.49571281  0.17768695  1  0.100246  0.000819  0.10339  0.107016  0.000324  1.017771  0.0
H  H20  1  0.96636877  0.31330609  0.88192966  1  0.108736  0.001364  0.121191  0.092872  0.000241  0.987955  0.001
H  H21  1  0.03362349  0.68670593  0.11807142  1  0.108902  0.001364  0.121185  0.092979  0.000241  0.987912  0.001
H  H22  1  0.83834011  0.44196555  0.63150622  1  0.09775  7.6e-05  0.106547  0.105019  -0.000196  1.019454  0.0
H  H23  1  0.16164570  0.55802096  0.36848254  1  0.098097  7.7e-05  0.106601  0.105011  -0.000196  1.019433  0.0
H  H24  1  0.37937419  0.50747065  0.49581709  1  0.152356  0.000987  0.126103  0.103739  8.9e-05  1.017141  0.001
H  H25  1  0.62063288  0.49254348  0.50419876  1  0.152195  0.000986  0.126108  0.103695  8.9e-05  1.017228  0.001
H  H26  1  0.12679119  0.68064870  0.60502968  1  0.120671  0.001514  0.11965  0.088338  0.000319  1.003539  0.001
H  H27  1  0.87321593  0.31935034  0.39497061  1  0.121045  0.001514  0.119674  0.088378  0.000319  1.003524  0.001
H  H28  1  0.92656501  0.69535298  0.67798750  1  0.083232  0.001016  0.107857  0.113088  0.000289  1.013182  0.001
H  H29  1  0.07343720  0.30464603  0.32200849  1  0.083163  0.001016  0.107854  0.113067  0.000289  1.013147  0.001
H  H30  1  0.25921305  0.51933880  0.76472291  1  0.109995  0.000842  0.120282  0.089712  0.000126  0.99627  0.0
H  H31  1  0.74076872  0.48066274  0.23528084  1  0.110394  0.000842  0.120197  0.089555  0.000126  0.996324  0.0
H  H32  1  0.13464065  0.12476868  0.53365145  1  0.069136  0.000241  0.115488  0.115847  -3.1e-05  0.983263  0.0
H  H33  1  0.86536836  0.87524154  0.46635590  1  0.06902  0.000242  0.115511  0.115922  -3.1e-05  0.983246  0.0
H  H34  1  0.12655445  0.26280671  0.70435675  1  0.083207  0.000721  0.104576  0.104603  0.000169  1.038752  0.0
H  H35  1  0.87343679  0.73719402  0.29564527  1  0.08336  0.000721  0.104596  0.104655  0.000169  1.038717  0.0
C  C36  1  0.10792150  0.11824383  0.94922231  1  0.478176  0.002804  0.050464  0.076431  0.001132  3.913717  0.002
C  C37  1  0.89208018  0.88175417  0.05077266  1  0.47831  0.002813  0.050534  0.076614  0.001137  3.913641  0.002
C  C38  1  0.26165673  0.16974303  0.99905013  1  -0.045798  0.009222  -0.015495  -0.085051  0.003929  3.95592  0.007
C  C39  1  0.73834554  0.83025799  0.00094776  1  -0.045682  0.00922  -0.015644  -0.085353  0.003929  3.956127  0.007
C  C40  1  0.35331229  0.17348441  0.93603477  1  -0.021581  0.001355  -0.055125  -0.030786  0.00034  3.887777  0.001
C  C41  1  0.64668827  0.82651148  0.06396174  1  -0.021565  0.001366  -0.055069  -0.030644  0.000347  3.887603  0.001
C  C42  1  0.13105552  0.07197039  0.78334859  1  0.459594  0.002667  0.046797  0.083786  0.001142  3.935881  0.002
C  C43  1  0.86894870  0.92802868  0.21664626  1  0.46029  0.002676  0.046769  0.083713  0.001146  3.93576  0.002
C  C44  1  0.28547536  0.12038051  0.82629108  1  -0.040254  0.000672  -0.075299  -0.121016  0.00013  3.932877  0.0
C  C45  1  0.71452961  0.87962567  0.17370833  1  -0.040355  0.000669  -0.075305  -0.12102  0.000128  3.932817  0.0
C  C46  1  0.31334934  0.20622069  0.11664917  1  1.588228  0.017758  0.220393  0.589287  0.010534  4.146805  0.014
C  C47  1  0.68664877  0.79377617  0.88334793  1  1.58822  0.017761  0.220498  0.58949  0.010536  4.146701  0.014
C  C48  1  0.32175318  0.81297125  0.85753951  1  0.499389  0.004329  0.065653  0.095364  0.002255  3.885747  0.003
C  C49  1  0.67824341  0.18701531  0.14246012  1  0.50188  0.004333  0.065613  0.095399  0.002259  3.885793  0.003
C  C50  1  0.21517120  0.81710509  0.90535579  1  -0.025805  0.009  -0.013091  -0.086705  0.00414  3.958479  0.007
C  C51  1  0.78482557  0.18288555  0.09464478  1  -0.02853  0.008999  -0.013059  -0.086689  0.004138  3.958432  0.007
C  C52  1  0.07082730  0.77573943  0.84015054  1  -0.073663  0.001249  -0.059723  -0.040039  0.000371  3.913791  0.001
C  C53  1  0.92917630  0.22425853  0.15984901  1  -0.073343  0.001258  -0.059688  -0.04  0.000376  3.913853  0.001
C  C54  1  0.76019607  0.12693202  0.63222368  1  0.555135  -0.001799  0.068615  0.101511  -0.003151  3.862893  -0.001
C  C55  1  0.23980647  0.87306586  0.36777930  1  0.554984  -0.001801  0.068612  0.101484  -0.003154  3.863148  -0.001
C  C56  1  0.91538945  0.39769854  0.76656621  1  -0.005526  0.003775  -0.084762  -0.130542  0.001526  3.999574  0.003
C  C57  1  0.08459851  0.60230332  0.23342553  1  -0.005379  0.003775  -0.084694  -0.130385  0.001526  3.999498  0.003
C  C58  1  0.90989954  0.29302342  0.80024979  1  0.452518  -0.003266  0.049903  0.088113  -0.004535  3.942066  -0.002
C  C59  1  0.09009227  0.70698962  0.19975144  1  0.45161  -0.003269  0.049858  0.087874  -0.004539  3.941913  -0.002
C  C60  1  0.76027516  0.22569020  0.59193362  1  0.01808  0.008463  -0.006436  -0.065218  0.003787  3.933104  0.006
C  C61  1  0.23972214  0.77429754  0.40805702  1  0.018246  0.008465  -0.006453  -0.065378  0.003788  3.93343  0.006
C  C62  1  0.83821741  0.36346872  0.66109836  1  -0.097127  -0.00593  -0.064139  -0.047003  -0.007152  3.939765  -0.004
C  C63  1  0.16177100  0.63652087  0.33889289  1  -0.097659  -0.005933  -0.064229  -0.046992  -0.007156  3.93984  -0.004
C  C64  1  0.32247313  0.44951989  0.53976049  1  0.476292  0.000413  0.060584  0.091383  -0.000781  3.881325  0.0
C  C65  1  0.67753533  0.55049124  0.46025274  1  0.477027  0.000417  0.060601  0.091497  -0.000777  3.88146  0.0
C  C66  1  0.26088024  0.86061591  0.02425255  1  1.603684  0.005011  0.210628  0.567765  0.002964  4.21498  0.004
C  C67  1  0.73911460  0.13937670  0.97574962  1  1.603645  0.005009  0.210533  0.567625  0.002962  4.215025  0.004
C  C68  1  0.28268694  0.23638321  0.40544913  1  1.612583  0.006561  0.227972  0.591208  0.004366  4.16388  0.005
C  C69  1  0.71732200  0.76362498  0.59455704  1  1.612642  0.006561  0.227971  0.591063  0.004366  4.163861  0.005
C  C70  1  0.14859894  0.72134687  0.68978492  1  0.46609  0.002244  0.053856  0.093043  0.000799  3.942488  0.002
C  C71  1  0.85140156  0.27864897  0.31021517  1  0.46558  0.002251  0.053847  0.092971  0.000804  3.942503  0.002
C  C72  1  0.03792882  0.72816085  0.73086611  1  -0.022177  0.002858  -0.08197  -0.126017  0.001225  3.978793  0.002
C  C73  1  0.96207373  0.27183507  0.26913141  1  -0.022002  0.002856  -0.081949  -0.125936  0.001224  3.978824  0.002
C  C74  1  0.67997982  0.17981279  0.47529008  1  1.592955  0.00213  0.206699  0.572211  0.000723  4.222478  0.001
C  C75  1  0.32002773  0.82018326  0.52470600  1  1.593758  0.002131  0.206963  0.572462  0.000725  4.222389  0.001
C  C76  1  0.25904796  0.30656210  0.50261682  1  -0.008279  0.014425  -0.010434  -0.080911  0.006729  3.957147  0.011
C  C77  1  0.74095652  0.69344701  0.49739037  1  -0.008764  0.01442  -0.010384  -0.08075  0.006726  3.957228  0.011
C  C78  1  0.25339698  0.45553112  0.68922818  1  0.454162  -0.000594  0.056868  0.10388  -0.001614  3.921767  0.0
C  C79  1  0.74659229  0.54447156  0.31077759  1  0.453385  -0.000586  0.056891  0.104031  -0.001607  3.921796  0.0
C  C80  1  0.18479178  0.23643327  0.56108259  1  -0.009412  -0.001948  -0.055288  -0.033235  -0.002816  3.912415  -0.001
C  C81  1  0.81520963  0.76357374  0.43892370  1  -0.009324  -0.001939  -0.055318  -0.03337  -0.002806  3.912334  -0.001
C  C82  1  0.18144564  0.31262711  0.65553812  1  0.023394  0.002559  -0.084482  -0.132743  0.001001  3.98874  0.002
C  C83  1  0.81855262  0.68737576  0.34446680  1  0.023258  0.002557  -0.084482  -0.132777  0.001  3.98874  0.002
N  N84  1  0.04345776  0.07359117  0.84440041  1  -1.250098  0.02299  -0.328128  -0.238958  0.011208  3.565194  0.011
N  N85  1  0.95654865  0.92641204  0.15559423  1  -1.250214  0.022992  -0.32808  -0.238905  0.011209  3.56503  0.011
N  N86  1  0.28909200  0.76414826  0.75244999  1  -1.260752  0.076848  -0.315019  -0.235617  0.037679  3.530891  0.054
N  N87  1  0.71091188  0.23584460  0.24754848  1  -1.260667  0.076858  -0.315082  -0.235707  0.037684  3.530904  0.054
N  N88  1  0.83290207  0.15982262  0.73401330  1  -1.252088  0.05866  -0.322624  -0.230254  0.028825  3.569713  0.043
N  N89  1  0.16710809  0.84019168  0.26599655  1  -1.251596  0.058637  -0.322614  -0.230166  0.028814  3.569646  0.043
N  N90  1  0.32168614  0.52295162  0.63171518  1  -1.242223  0.039015  -0.32318  -0.235406  0.019167  3.536033  0.025
N  N91  1  0.67830872  0.47705421  0.36829279  1  -1.241824  0.039012  -0.323137  -0.235484  0.019165  3.535987  0.025
O  O92  1  0.45484430  0.27555315  0.16837178  1  -1.149141  0.073684  -0.297367  -0.531688  0.03448  2.305931  0.058
O  O93  1  0.54515156  0.72445075  0.83163015  1  -1.149222  0.073714  -0.29741  -0.53177  0.034494  2.305944  0.058
O  O94  1  0.20849293  0.16010445  0.15558852  1  -1.157845  0.051409  -0.305176  -0.544336  0.022698  2.323906  0.037
O  O95  1  0.79150256  0.83988931  0.84440752  1  -1.157844  0.051419  -0.305201  -0.544372  0.022701  2.32386  0.037
O  O96  1  0.60635154  0.91733443  0.74152846  1  -0.794244  0.445709  -0.484193  -0.664303  0.200916  2.030949  0.358
O  O97  1  0.39365345  0.08266979  0.25846477  1  -0.79406  0.445702  -0.484152  -0.664341  0.20092  2.031105  0.358
O  O98  1  0.39573813  0.31120785  0.38469070  1  -1.148767  0.07637  -0.288003  -0.521813  0.035994  2.334801  0.061
O  O99  1  0.60427651  0.68879628  0.61532041  1  -1.148684  0.076343  -0.288044  -0.521794  0.035982  2.334681  0.061
O  O100  1  0.16616390  0.88557707  0.06431395  1  -1.145383  0.099889  -0.32176  -0.561573  0.047711  2.399464  0.074
O  O101  1  0.83383274  0.11441148  0.93568901  1  -1.145264  0.099863  -0.321748  -0.561498  0.047699  2.399304  0.074
O  O102  1  0.18817392  0.10851470  0.35370232  1  -1.15554  0.07874  -0.296458  -0.538337  0.037888  2.346065  0.06
O  O103  1  0.81183225  0.89149757  0.64630148  1  -1.155758  0.078735  -0.296447  -0.538284  0.037888  2.346113  0.06
O  O104  1  0.65131525  0.27117409  0.45204018  1  -1.13844  0.087599  -0.329613  -0.574354  0.041487  2.346481  0.067
O  O105  1  0.34869163  0.72881688  0.54795254  1  -1.138702  0.087638  -0.329701  -0.574423  0.041506  2.346275  0.067
O  O106  1  0.65354442  0.06763316  0.41335799  1  -1.144354  0.018208  -0.311224  -0.516058  0.007681  2.061342  0.015
O  O107  1  0.34645559  0.93235241  0.58664335  1  -1.144712  0.0182  -0.311392  -0.516193  0.007677  2.061384  0.015
O  O108  1  0.37765631  0.86633886  0.07324087  1  -1.143008  0.023353  -0.292176  -0.490241  0.009991  2.130728  0.019
O  O109  1  0.62235265  0.13366740  0.92675840  1  -1.143006  0.023352  -0.29211  -0.490185  0.00999  2.13085  0.019
