# generated using pymatgen
data_HgH9C10NCl2O
_symmetry_space_group_name_H-M   'P 1'
_cell_length_a   3.91141595
_cell_length_b   10.71982778
_cell_length_c   26.10603224
_cell_angle_alpha   89.99959707
_cell_angle_beta   90.00061086
_cell_angle_gamma   91.06105015
_symmetry_Int_Tables_number   1
_chemical_formula_structural   HgH9C10NCl2O
_chemical_formula_sum   'Hg4 H36 C40 N4 Cl8 O4'
_cell_volume   1094.43054775
_cell_formula_units_Z   4
loop_
 _symmetry_equiv_pos_site_id
 _symmetry_equiv_pos_as_xyz
  1  'x, y, z'
loop_
 _atom_site_type_symbol
 _atom_site_label
 _atom_site_symmetry_multiplicity
 _atom_site_fract_x
 _atom_site_fract_y
 _atom_site_fract_z
 _atom_site_occupancy
 _atom_site_hle17_bader_spin_density
 _atom_site_hle17_ddec_charge
 _atom_site_hle17_ddec_spin_density
 _atom_site_hle17_ddec_sum_bond_order
 _atom_site_hle17_magmom
 _atom_site_hse06_10hf_bader_spin_density
 _atom_site_hse06_10hf_ddec_charge
 _atom_site_hse06_10hf_ddec_spin_density
 _atom_site_hse06_10hf_ddec_sum_bond_order
 _atom_site_hse06_10hf_magmom
 _atom_site_hse06_bader_spin_density
 _atom_site_hse06_ddec_charge
 _atom_site_hse06_ddec_spin_density
 _atom_site_hse06_ddec_sum_bond_order
 _atom_site_hse06_magmom
 _atom_site_pbe_bader_spin_density
 _atom_site_pbe_cm5_charge
 _atom_site_pbe_ddec_charge
 _atom_site_pbe_ddec_spin_density
 _atom_site_pbe_ddec_sum_bond_order
 _atom_site_pbe_magmom
Hg  Hg0  1  0.22074423  0.67255147  0.03047227  1  0  0.751902  0  2.110664  0  0  0.609316  0  2.605371  0  0  0.658046  0  2.57199  0  0  0.482316  0.575838  0  2.628086  0
Hg  Hg1  1  0.77924512  0.82745283  0.53047073  1  0  0.751922  0  2.110636  0  0  0.609323  0  2.605355  0  0  0.658052  0  2.571974  0  0  0.48232  0.575843  0  2.628064  0
Hg  Hg2  1  0.77926485  0.32745172  0.96952781  1  0  0.751911  0  2.110692  0  0  0.609332  0  2.605396  0  0  0.658061  0  2.572017  0  0  0.482333  0.575852  0  2.628106  0
Hg  Hg3  1  0.22077405  0.17254572  0.46952858  1  0  0.751919  0  2.110691  0  0  0.60932  0  2.605401  0  0  0.658048  0  2.572019  0  0  0.482336  0.57584  0  2.628106  0
H  H4  1  0.85570510  0.09276699  0.19282495  1  0  0.100228  0  0.95693  0  0  0.107804  0  1.024087  0  0  0.111703  0  1.020326  0  0  0.105075  0.104906  0  1.026986  0
H  H5  1  0.14434783  0.40724369  0.69282448  1  0  0.100227  0  0.957012  0  0  0.107803  0  1.024176  0  0  0.111705  0  1.020412  0  0  0.105041  0.104909  0  1.027076  0
H  H6  1  0.14431154  0.90723249  0.80717780  1  0  0.100248  0  0.95691  0  0  0.107798  0  1.024095  0  0  0.111699  0  1.020332  0  0  0.105068  0.104902  0  1.026998  0
H  H7  1  0.85561264  0.59275843  0.30717675  1  0  0.10012  0  0.957182  0  0  0.107703  0  1.024356  0  0  0.111603  0  1.020594  0  0  0.105062  0.10481  0  1.027259  0
H  H8  1  0.47624334  0.65067126  0.13592974  1  0  0.095584  0  0.989238  0  0  0.103808  0  1.060937  0  0  0.106754  0  1.058132  0  0  0.086395  0.101634  0  1.06317  0
H  H9  1  0.52375604  0.84933310  0.63592888  1  0  0.095577  0  0.989149  0  0  0.103794  0  1.060861  0  0  0.106739  0  1.058057  0  0  0.086398  0.101618  0  1.063094  0
H  H10  1  0.52377080  0.34933007  0.86406919  1  0  0.09562  0  0.989218  0  0  0.103832  0  1.060931  0  0  0.106776  0  1.058127  0  0  0.086417  0.101658  0  1.06316  0
H  H11  1  0.47624806  0.15067474  0.36407043  1  0  0.095682  0  0.98912  0  0  0.103888  0  1.06084  0  0  0.106833  0  1.058035  0  0  0.08643  0.101711  0  1.063071  0
H  H12  1  0.94181256  0.94981534  0.03944241  1  0  0.069294  0  0.96214  0  0  0.075981  0  1.035044  0  0  0.078296  0  1.031766  0  0  0.098329  0.074209  0  1.037554  0
H  H13  1  0.05818280  0.55019815  0.53944318  1  0  0.069349  0  0.962134  0  0  0.076021  0  1.035041  0  0  0.078345  0  1.03175  0  0  0.098351  0.074246  0  1.037559  0
H  H14  1  0.05818629  0.05018782  0.96055958  1  0  0.069296  0  0.962074  0  0  0.075993  0  1.034965  0  0  0.078309  0  1.031684  0  0  0.098327  0.074226  0  1.03747  0
H  H15  1  0.94181594  0.44980128  0.46055728  1  0  0.069342  0  0.962139  0  0  0.076018  0  1.035052  0  0  0.078333  0  1.031772  0  0  0.098375  0.074242  0  1.037571  0
H  H16  1  0.09229898  0.96433447  0.26436597  1  0  0.107547  0  0.971727  0  0  0.118201  0  1.037771  0  0  0.121117  0  1.036873  0  0  0.102024  0.116172  0  1.038437  0
H  H17  1  0.90771965  0.53566772  0.76436852  1  0  0.107616  0  0.971545  0  0  0.118284  0  1.037575  0  0  0.121202  0  1.036678  0  0  0.102031  0.116247  0  1.038262  0
H  H18  1  0.90773036  0.03566224  0.73563410  1  0  0.107558  0  0.971653  0  0  0.118223  0  1.037683  0  0  0.121142  0  1.036786  0  0  0.102019  0.116185  0  1.038376  0
H  H19  1  0.09225100  0.46433255  0.23563117  1  0  0.107608  0  0.971662  0  0  0.118297  0  1.037641  0  0  0.121214  0  1.036742  0  0  0.102033  0.116253  0  1.038354  0
H  H20  1  0.59292092  0.61991344  0.22856479  1  0  0.104113  0  0.951084  0  0  0.116262  0  1.012082  0  0  0.119261  0  1.010742  0  0  0.104404  0.114054  0  1.013242  0
H  H21  1  0.40707466  0.88008651  0.72856404  1  0  0.104077  0  0.951159  0  0  0.116222  0  1.012155  0  0  0.119217  0  1.010816  0  0  0.1044  0.114011  0  1.013315  0
H  H22  1  0.40707769  0.38008132  0.77143376  1  0  0.104143  0  0.951066  0  0  0.116258  0  1.012093  0  0  0.119255  0  1.010755  0  0  0.104405  0.114045  0  1.013253  0
H  H23  1  0.59294228  0.11992323  0.27143604  1  0  0.104124  0  0.951078  0  0  0.116255  0  1.012091  0  0  0.119249  0  1.010754  0  0  0.104408  0.114042  0  1.013252  0
H  H24  1  0.75734147  0.11731955  0.09869947  1  0  0.105768  0  0.967642  0  0  0.115015  0  1.029276  0  0  0.118131  0  1.02859  0  0  0.094888  0.112687  0  1.030275  0
H  H25  1  0.24271004  0.38269555  0.59869845  1  0  0.105602  0  0.967777  0  0  0.114897  0  1.02937  0  0  0.118004  0  1.028707  0  0  0.094872  0.112572  0  1.030373  0
H  H26  1  0.24265989  0.88268175  0.90130367  1  0  0.10576  0  0.967637  0  0  0.114951  0  1.029348  0  0  0.118063  0  1.028672  0  0  0.094852  0.112624  0  1.03035  0
H  H27  1  0.75728103  0.61730385  0.40130316  1  0  0.10566  0  0.967736  0  0  0.114939  0  1.029333  0  0  0.118044  0  1.028676  0  0  0.09488  0.112612  0  1.030336  0
H  H28  1  0.36856805  0.80075299  0.37760385  1  0  0.101174  0  0.960688  0  0  0.117396  0  1.0277  0  0  0.118029  0  1.027346  0  0  0.092292  0.116777  0  1.028363  0
H  H29  1  0.63141994  0.69923875  0.87760359  1  0  0.101193  0  0.960603  0  0  0.117418  0  1.027637  0  0  0.11805  0  1.027287  0  0  0.092316  0.116801  0  1.028298  0
H  H30  1  0.63144339  0.19924367  0.62239584  1  0  0.10112  0  0.960742  0  0  0.117337  0  1.027778  0  0  0.11797  0  1.027425  0  0  0.092282  0.116714  0  1.028444  0
H  H31  1  0.36858144  0.30076348  0.12239572  1  0  0.101083  0  0.960693  0  0  0.117314  0  1.027726  0  0  0.117946  0  1.027377  0  0  0.092283  0.116695  0  1.028382  0
H  H32  1  0.01084626  0.84322317  0.33889713  1  0  0.087799  0  0.956545  0  0  0.10536  0  1.022692  0  0  0.105896  0  1.02261  0  0  0.094959  0.104902  0  1.022849  0
H  H33  1  0.98914932  0.65677207  0.83889832  1  0  0.087724  0  0.956595  0  0  0.105317  0  1.022732  0  0  0.105856  0  1.022645  0  0  0.094921  0.10486  0  1.022889  0
H  H34  1  0.98917283  0.15677259  0.66110257  1  0  0.08779  0  0.956425  0  0  0.105306  0  1.022647  0  0  0.105844  0  1.022562  0  0  0.09494  0.10485  0  1.022803  0
H  H35  1  0.01085203  0.34322923  0.16110061  1  0  0.087687  0  0.956674  0  0  0.105255  0  1.022849  0  0  0.105794  0  1.022762  0  0  0.094899  0.104798  0  1.023003  0
H  H36  1  0.39749310  0.93620206  0.33760067  1  0  0.07821  0  0.95555  0  0  0.096507  0  1.023136  0  0  0.096344  0  1.023364  0  0  0.089339  0.096487  0  1.023205  0
H  H37  1  0.60249983  0.56379319  0.83759844  1  0  0.078091  0  0.955523  0  0  0.096454  0  1.023052  0  0  0.096291  0  1.02328  0  0  0.089342  0.096434  0  1.023122  0
H  H38  1  0.60251573  0.06379273  0.66240017  1  0  0.078046  0  0.955573  0  0  0.096401  0  1.023117  0  0  0.096237  0  1.023347  0  0  0.089335  0.096383  0  1.023185  0
H  H39  1  0.39749396  0.43621182  0.16239895  1  0  0.078077  0  0.955509  0  0  0.096417  0  1.023076  0  0  0.096254  0  1.023305  0  0  0.089323  0.096399  0  1.023146  0
C  C40  1  0.94130356  0.02219165  0.16594857  1  0  -0.041276  0  3.673973  0  0  -0.07054  0  3.929639  0  0  -0.06622  0  3.94431  0  0  -0.067971  -0.073291  0  3.919994  0
C  C41  1  0.05873456  0.47781478  0.66594929  1  0  -0.041216  0  3.673942  0  0  -0.070554  0  3.929612  0  0  -0.066226  0  3.944279  0  0  -0.067876  -0.073308  0  3.919975  0
C  C42  1  0.05871559  0.97780596  0.83405380  1  0  -0.041251  0  3.674213  0  0  -0.070514  0  3.929856  0  0  -0.06619  0  3.944527  0  0  -0.067914  -0.073271  0  3.920219  0
C  C43  1  0.94123355  0.52218642  0.33405117  1  0  -0.040912  0  3.673563  0  0  -0.070267  0  3.929222  0  0  -0.065934  0  3.94389  0  0  -0.067779  -0.073028  0  3.919591  0
C  C44  1  0.21258536  0.82463071  0.14706004  1  0  0.182036  0  3.783759  0  0  0.18098  0  4.014634  0  0  0.185377  0  4.039725  0  0  0.101368  0.177966  0  3.997726  0
C  C45  1  0.78741221  0.67537253  0.64706048  1  0  0.181912  0  3.78375  0  0  0.180836  0  4.014587  0  0  0.185236  0  4.03968  0  0  0.10132  0.177825  0  3.997673  0
C  C46  1  0.78742106  0.17536874  0.85293927  1  0  0.182085  0  3.783732  0  0  0.180947  0  4.014683  0  0  0.185345  0  4.039776  0  0  0.101345  0.177936  0  3.997771  0
C  C47  1  0.21256869  0.32462871  0.35293845  1  0  0.182117  0  3.783619  0  0  0.180963  0  4.014573  0  0  0.185366  0  4.039666  0  0  0.101336  0.17795  0  3.997657  0
C  C48  1  0.38837629  0.71793095  0.16415791  1  0  -0.122481  0  3.738968  0  0  -0.141883  0  3.989745  0  0  -0.143979  0  4.010199  0  0  -0.092919  -0.140711  0  3.976243  0
C  C49  1  0.61161479  0.78207104  0.66415853  1  0  -0.122412  0  3.738862  0  0  -0.141825  0  3.989665  0  0  -0.14392  0  4.010115  0  0  -0.092945  -0.140654  0  3.976158  0
C  C50  1  0.61162757  0.28206849  0.83584178  1  0  -0.122511  0  3.739012  0  0  -0.141898  0  3.989827  0  0  -0.14399  0  4.010277  0  0  -0.092941  -0.140729  0  3.97632  0
C  C51  1  0.38837128  0.21793208  0.33584001  1  0  -0.122626  0  3.739087  0  0  -0.142006  0  3.989918  0  0  -0.144101  0  4.010368  0  0  -0.092961  -0.140834  0  3.97641  0
C  C52  1  0.34594868  0.78935222  0.25228071  1  0  0.267607  0  3.831183  0  0  0.259705  0  4.091227  0  0  0.270832  0  4.107466  0  0  0.081269  0.251983  0  4.079839  0
C  C53  1  0.65405112  0.71064733  0.75228160  1  0  0.267646  0  3.831267  0  0  0.259731  0  4.091311  0  0  0.270861  0  4.107546  0  0  0.081263  0.252014  0  4.079917  0
C  C54  1  0.65405259  0.21064627  0.74771860  1  0  0.267611  0  3.831151  0  0  0.259751  0  4.091149  0  0  0.27088  0  4.107384  0  0  0.081313  0.252038  0  4.079755  0
C  C55  1  0.34593239  0.28935579  0.24771771  1  0  0.267699  0  3.831276  0  0  0.25979  0  4.091322  0  0  0.270919  0  4.107557  0  0  0.08129  0.252079  0  4.079926  0
C  C56  1  0.99215567  0.94236188  0.08039583  1  0  0.142941  0  3.715278  0  0  0.10452  0  3.978958  0  0  0.114283  0  3.99587  0  0  0.042421  0.098275  0  3.967117  0
C  C57  1  0.00785517  0.55764441  0.58039688  1  0  0.142834  0  3.715689  0  0  0.104435  0  3.979377  0  0  0.114192  0  3.996293  0  0  0.042371  0.098189  0  3.967546  0
C  C58  1  0.00785331  0.05763757  0.91960424  1  0  0.142916  0  3.715293  0  0  0.104495  0  3.978974  0  0  0.114262  0  3.995877  0  0  0.042391  0.098248  0  3.967124  0
C  C59  1  0.99212828  0.44235683  0.41960089  1  0  0.142871  0  3.715804  0  0  0.104457  0  3.979496  0  0  0.114222  0  3.996404  0  0  0.042306  0.098213  0  3.967655  0
C  C60  1  0.17618441  0.89509098  0.23680699  1  0  -0.251468  0  3.737411  0  0  -0.281971  0  3.991124  0  0  -0.288469  0  4.012265  0  0  -0.113499  -0.277254  0  3.976674  0
C  C61  1  0.82381441  0.60491256  0.73680576  1  0  -0.251625  0  3.737816  0  0  -0.282184  0  3.991477  0  0  -0.288683  0  4.012624  0  0  -0.113595  -0.277471  0  3.977025  0
C  C62  1  0.82382189  0.10490473  0.76319424  1  0  -0.251537  0  3.737427  0  0  -0.282065  0  3.991083  0  0  -0.288564  0  4.01223  0  0  -0.113548  -0.277356  0  3.976633  0
C  C63  1  0.17614865  0.39509049  0.26319278  1  0  -0.251655  0  3.737996  0  0  -0.282193  0  3.991608  0  0  -0.288685  0  4.012752  0  0  -0.11355  -0.277489  0  3.97716  0
C  C64  1  0.45428764  0.70106704  0.21533084  1  0  -0.152712  0  3.74646  0  0  -0.176352  0  4.003126  0  0  -0.180271  0  4.022736  0  0  -0.095599  -0.173322  0  3.989863  0
C  C65  1  0.54570709  0.79893594  0.71533016  1  0  -0.152598  0  3.746416  0  0  -0.176235  0  4.003085  0  0  -0.180149  0  4.022686  0  0  -0.095552  -0.173207  0  3.989818  0
C  C66  1  0.54571606  0.29892680  0.78466847  1  0  -0.152703  0  3.746537  0  0  -0.176326  0  4.003205  0  0  -0.180244  0  4.022811  0  0  -0.095569  -0.173295  0  3.989937  0
C  C67  1  0.45428164  0.20107092  0.28466915  1  0  -0.152637  0  3.746531  0  0  -0.17626  0  4.003198  0  0  -0.180174  0  4.022799  0  0  -0.095561  -0.173235  0  3.989934  0
C  C68  1  0.10931386  0.91505027  0.18409878  1  0  0.043417  0  3.803846  0  0  0.063672  0  4.0299  0  0  0.061537  0  4.054979  0  0  -0.003464  0.064898  0  4.013127  0
C  C69  1  0.89068648  0.58495793  0.68410193  1  0  0.043343  0  3.804185  0  0  0.063751  0  4.03004  0  0  0.061603  0  4.055147  0  0  -0.003353  0.064977  0  4.013267  0
C  C70  1  0.89069514  0.08495012  0.81590168  1  0  0.043321  0  3.804091  0  0  0.063655  0  4.030077  0  0  0.061511  0  4.055175  0  0  -0.003481  0.064882  0  4.013304  0
C  C71  1  0.10928409  0.41503955  0.31589699  1  0  0.043329  0  3.803912  0  0  0.063742  0  4.029836  0  0  0.061585  0  4.054956  0  0  -0.003446  0.064973  0  4.013061  0
C  C72  1  0.88642528  0.03651209  0.11422138  1  0  -0.107858  0  3.719226  0  0  -0.119374  0  3.973522  0  0  -0.126204  0  3.993418  0  0  -0.090497  -0.115087  0  3.960334  0
C  C73  1  0.11358377  0.46349981  0.61421993  1  0  -0.107651  0  3.719654  0  0  -0.1192  0  3.973966  0  0  -0.126033  0  3.993863  0  0  -0.090524  -0.114916  0  3.960788  0
C  C74  1  0.11357351  0.96348920  0.88578061  1  0  -0.107806  0  3.719585  0  0  -0.119288  0  3.973898  0  0  -0.12612  0  3.993795  0  0  -0.090455  -0.115002  0  3.960718  0
C  C75  1  0.88639441  0.53649582  0.38578206  1  0  -0.107932  0  3.71971  0  0  -0.119447  0  3.974028  0  0  -0.126281  0  3.993921  0  0  -0.090583  -0.115161  0  3.960852  0
C  C76  1  0.29119710  0.84085357  0.34094899  1  0  -0.08321  0  3.623957  0  0  -0.181543  0  3.886633  0  0  -0.174175  0  3.890305  0  0  -0.150372  -0.186415  0  3.884026  0
C  C77  1  0.70879607  0.65914162  0.84094781  1  0  -0.082963  0  3.623845  0  0  -0.181403  0  3.886513  0  0  -0.174038  0  3.89019  0  0  -0.150339  -0.186274  0  3.883909  0
C  C78  1  0.70881440  0.15914496  0.65905224  1  0  -0.082934  0  3.623907  0  0  -0.181268  0  3.886557  0  0  -0.173904  0  3.89024  0  0  -0.150285  -0.18613  0  3.883942  0
C  C79  1  0.29119244  0.34085777  0.15905188  1  0  -0.082798  0  3.624006  0  0  -0.181198  0  3.886644  0  0  -0.173833  0  3.890325  0  0  -0.150269  -0.186064  0  3.88404  0
N  N80  1  0.14695346  0.84001118  0.09604915  1  0  -0.349239  0  3.232564  0  0  -0.277494  0  3.494075  0  0  -0.299886  0  3.517526  0  0  -0.311263  -0.261903  0  3.477454  0
N  N81  1  0.85304306  0.65999200  0.59604859  1  0  -0.349147  0  3.232583  0  0  -0.277419  0  3.494082  0  0  -0.299808  0  3.517532  0  0  -0.311252  -0.261827  0  3.477461  0
N  N82  1  0.85305051  0.15999199  0.90395169  1  0  -0.349251  0  3.232459  0  0  -0.277475  0  3.493973  0  0  -0.299867  0  3.517424  0  0  -0.311246  -0.261883  0  3.477353  0
N  N83  1  0.14693773  0.34000551  0.40395149  1  0  -0.34923  0  3.232459  0  0  -0.277468  0  3.493977  0  0  -0.299857  0  3.517421  0  0  -0.31125  -0.261875  0  3.477356  0
Cl  Cl84  1  0.84067683  0.51899047  0.06898860  1  0  -0.443025  0  1.113146  0  0  -0.37934  0  1.4191  0  0  -0.400594  0  1.401443  0  0  -0.238456  -0.364475  0  1.431282  0
Cl  Cl85  1  0.15933046  0.98100948  0.56898640  1  0  -0.443042  0  1.113213  0  0  -0.37932  0  1.419095  0  0  -0.400572  0  1.401438  0  0  -0.238467  -0.364464  0  1.431276  0
Cl  Cl86  1  0.15933725  0.48100900  0.93101071  1  0  -0.443031  0  1.113139  0  0  -0.379346  0  1.419065  0  0  -0.4006  0  1.401408  0  0  -0.238489  -0.364486  0  1.431247  0
Cl  Cl87  1  0.84068118  0.01899371  0.43101252  1  0  -0.44307  0  1.113241  0  0  -0.379336  0  1.419097  0  0  -0.40059  0  1.401439  0  0  -0.238482  -0.364482  0  1.431276  0
Cl  Cl88  1  0.62603202  0.78150971  0.97612974  1  0  -0.427716  0  1.114934  0  0  -0.36612  0  1.412447  0  0  -0.386122  0  1.395064  0  0  -0.22594  -0.352681  0  1.425201  0
Cl  Cl89  1  0.37396069  0.71849246  0.47612833  1  0  -0.427707  0  1.114875  0  0  -0.366144  0  1.412437  0  0  -0.386142  0  1.395057  0  0  -0.225939  -0.352694  0  1.425159  0
Cl  Cl90  1  0.37397700  0.21849161  0.02386957  1  0  -0.427695  0  1.114919  0  0  -0.366117  0  1.412445  0  0  -0.38612  0  1.395062  0  0  -0.225936  -0.352682  0  1.425199  0
Cl  Cl91  1  0.62604572  0.28150698  0.52387213  1  0  -0.427691  0  1.114904  0  0  -0.36612  0  1.412459  0  0  -0.386119  0  1.395077  0  0  -0.225944  -0.352674  0  1.425185  0
O  O92  1  0.42387905  0.76094244  0.30173988  1  0  -0.258634  0  2.353309  0  0  -0.179917  0  2.592542  0  0  -0.199693  0  2.597705  0  0  -0.185089  -0.165638  0  2.588373  0
O  O93  1  0.57612168  0.73905626  0.80173865  1  0  -0.258735  0  2.353447  0  0  -0.179971  0  2.59267  0  0  -0.199748  0  2.597835  0  0  -0.185097  -0.165696  0  2.588499  0
O  O94  1  0.57613746  0.23905237  0.69826020  1  0  -0.258705  0  2.353493  0  0  -0.180013  0  2.592731  0  0  -0.199787  0  2.597892  0  0  -0.185181  -0.165744  0  2.588563  0
O  O95  1  0.42388237  0.26094971  0.19826143  1  0  -0.258783  0  2.353472  0  0  -0.180055  0  2.592718  0  0  -0.199829  0  2.597879  0  0  -0.185143  -0.165786  0  2.588547  0
