# generated using pymatgen
data_CdH22C30(N2O)4
_symmetry_space_group_name_H-M   'P 1'
_cell_length_a   14.44306127
_cell_length_b   14.44322648
_cell_length_c   21.80985105
_cell_angle_alpha   101.14893224
_cell_angle_beta   101.14849441
_cell_angle_gamma   114.58354839
_symmetry_Int_Tables_number   1
_chemical_formula_structural   CdH22C30(N2O)4
_chemical_formula_sum   'Cd4 H88 C120 N32 O16'
_cell_volume   3863.29640457
_cell_formula_units_Z   4
loop_
 _symmetry_equiv_pos_site_id
 _symmetry_equiv_pos_as_xyz
  1  'x, y, z'
loop_
 _atom_site_type_symbol
 _atom_site_label
 _atom_site_symmetry_multiplicity
 _atom_site_fract_x
 _atom_site_fract_y
 _atom_site_fract_z
 _atom_site_occupancy
 _atom_site_pbe_bader_charge
 _atom_site_pbe_bader_spin_density
 _atom_site_pbe_cm5_charge
 _atom_site_pbe_ddec_charge
 _atom_site_pbe_ddec_spin_density
 _atom_site_pbe_ddec_sum_bond_order
 _atom_site_pbe_magmom
Cd  Cd0  1  0.07037119  0.32041857  0.14081167  1  1.272045  0  0.767481  0.789346  0  2.265199  0
Cd  Cd1  1  0.67956591  0.92961045  0.35919528  1  1.272049  0  0.767491  0.789406  0  2.265128  0
Cd  Cd2  1  0.92962832  0.67957354  0.85919346  1  1.272025  0  0.767507  0.789416  0  2.265164  0
Cd  Cd3  1  0.32044059  0.07039075  0.64080881  1  1.272145  0  0.767498  0.789438  0  2.265129  0
H  H4  1  0.04331243  0.61512932  0.29743710  1  0.057769  0  0.104915  0.110952  0  0.99792  0
H  H5  1  0.25461150  0.18276446  0.29762464  1  0.067236  0  0.104124  0.110069  0  0.99717  0
H  H6  1  0.81723394  0.74537381  0.20236432  1  0.067293  0  0.10411  0.110079  0  0.997149  0
H  H7  1  0.38488115  0.95666501  0.20256382  1  0.05813  0  0.104917  0.110854  0  0.99813  0
H  H8  1  0.95668155  0.38487205  0.70255860  1  0.057766  0  0.104879  0.110897  0  0.99802  0
H  H9  1  0.74537598  0.81722746  0.70236708  1  0.067182  0  0.104133  0.11008  0  0.997086  0
H  H10  1  0.18276819  0.25463245  0.79763464  1  0.067165  0  0.104114  0.110105  0  0.997126  0
H  H11  1  0.61513566  0.04333519  0.79743858  1  0.058123  0  0.104919  0.11092  0  0.998077  0
H  H12  1  0.13121360  0.78706915  0.39168884  1  0.069251  0  0.101772  0.109897  0  1.035633  0
H  H13  1  0.26086434  0.10476322  0.39176017  1  0.073896  0  0.101575  0.109386  0  1.036691  0
H  H14  1  0.89523722  0.73913787  0.10823057  1  0.073801  0  0.10163  0.10944  0  1.036676  0
H  H15  1  0.21294743  0.86878270  0.10830735  1  0.069437  0  0.101833  0.110017  0  1.035376  0
H  H16  1  0.86878306  0.21293503  0.60830712  1  0.06949  0  0.101794  0.109894  0  1.035465  0
H  H17  1  0.73912995  0.89522746  0.60823117  1  0.073572  0  0.10165  0.109534  0  1.036643  0
H  H18  1  0.10476807  0.26086972  0.89177070  1  0.073673  0  0.10171  0.109555  0  1.0367  0
H  H19  1  0.78706957  0.13122431  0.89169441  1  0.069503  0  0.101795  0.109943  0  1.035467  0
H  H20  1  0.43980117  0.81038359  0.39694204  1  0.165647  0  0.108748  0.124728  0  1.039594  0
H  H21  1  0.95717527  0.08598282  0.39674540  1  0.12893  0  0.109463  0.12577  0  1.038455  0
H  H22  1  0.91399943  0.04281943  0.10325619  1  0.128856  0  0.109448  0.1257  0  1.038507  0
H  H23  1  0.18961197  0.56018917  0.10305101  1  0.165653  0  0.108717  0.124552  0  1.039691  0
H  H24  1  0.56019681  0.18962065  0.60305679  1  0.165582  0  0.108732  0.124715  0  1.039645  0
H  H25  1  0.04282199  0.91401084  0.60325673  1  0.128993  0  0.109404  0.125652  0  1.038584  0
H  H26  1  0.08599788  0.95718399  0.89674041  1  0.128967  0  0.109416  0.125675  0  1.038631  0
H  H27  1  0.81038529  0.43980901  0.89695030  1  0.165605  0  0.108714  0.124603  0  1.039598  0
H  H28  1  0.35100251  0.63838797  0.30481578  1  0.092991  0  0.105604  0.106238  0  1.023456  0
H  H29  1  0.95400228  0.16625395  0.30480043  1  0.080975  0  0.105544  0.106431  0  1.022886  0
H  H30  1  0.83372780  0.04597952  0.19520275  1  0.081163  0  0.10556  0.106393  0  1.023146  0
H  H31  1  0.36159153  0.64896339  0.19517920  1  0.092878  0  0.105585  0.106277  0  1.023328  0
H  H32  1  0.64898808  0.36160805  0.69518213  1  0.092783  0  0.105555  0.1062  0  1.023454  0
H  H33  1  0.04598901  0.83373800  0.69520372  1  0.080864  0  0.105545  0.106424  0  1.023023  0
H  H34  1  0.16626777  0.95402555  0.80479449  1  0.081298  0  0.105553  0.106403  0  1.02317  0
H  H35  1  0.63840526  0.35102981  0.80482247  1  0.093032  0  0.105598  0.106268  0  1.023338  0
H  H36  1  0.43458320  0.11167514  0.38587758  1  0.061926  0  0.105255  0.157803  0  0.97315  0
H  H37  1  0.95108683  0.77387176  0.38578658  1  0.053322  0  0.105506  0.158003  0  0.97202  0
H  H38  1  0.22613163  0.04891664  0.11421532  1  0.053295  0  0.105529  0.158037  0  0.971961  0
H  H39  1  0.88833019  0.56542647  0.11412259  1  0.06203  0  0.105293  0.157861  0  0.973136  0
H  H40  1  0.56542193  0.88833329  0.61412669  1  0.062059  0  0.105308  0.157881  0  0.973134  0
H  H41  1  0.04891297  0.22612865  0.61421012  1  0.05363  0  0.105516  0.158042  0  0.97195  0
H  H42  1  0.77387002  0.95108211  0.88578322  1  0.053472  0  0.105487  0.15801  0  0.971966  0
H  H43  1  0.11168470  0.43458664  0.88588969  1  0.06178  0  0.105277  0.157839  0  0.973134  0
H  H44  1  0.32602779  0.98193286  0.33923251  1  0.05998  0  0.1012  0.14763  0  0.984408  0
H  H45  1  0.01297860  0.85692515  0.33909931  1  0.06134  0  0.101022  0.147392  0  0.985496  0
H  H46  1  0.14306959  0.98702102  0.16089913  1  0.061375  0  0.101021  0.147378  0  0.985521  0
H  H47  1  0.01807436  0.67397907  0.16076533  1  0.059938  0  0.101217  0.147677  0  0.984463  0
H  H48  1  0.67398008  0.01807463  0.66076894  1  0.059905  0  0.101243  0.147723  0  0.984391  0
H  H49  1  0.98702211  0.14306756  0.66089675  1  0.061127  0  0.101021  0.147391  0  0.985442  0
H  H50  1  0.85693356  0.01297753  0.83910167  1  0.061358  0  0.101033  0.147403  0  0.985502  0
H  H51  1  0.98194338  0.32603504  0.83924500  1  0.060185  0  0.101167  0.147616  0  0.984344  0
H  H52  1  0.45737432  0.99930963  0.36377906  1  0.157218  0  0.104033  0.172715  0  1.026697  0
H  H53  1  0.90629418  0.86423482  0.36373173  1  0.163907  0  0.103766  0.171838  0  1.027389  0
H  H54  1  0.13576509  0.09370855  0.13626684  1  0.163823  0  0.103771  0.171823  0  1.027346  0
H  H55  1  0.00069464  0.54263556  0.13621906  1  0.157219  0  0.104051  0.172719  0  1.026678  0
H  H56  1  0.54263374  0.00070016  0.63622256  1  0.157154  0  0.104037  0.172738  0  1.026621  0
H  H57  1  0.09370481  0.13576224  0.63625947  1  0.163867  0  0.103767  0.171829  0  1.027388  0
H  H58  1  0.86424012  0.90629417  0.86373596  1  0.163826  0  0.103776  0.171858  0  1.027316  0
H  H59  1  0.99931993  0.45737821  0.86378816  1  0.157465  0  0.104037  0.17268  0  1.026686  0
H  H60  1  0.30669508  0.71604667  0.48650648  1  0.096799  0  0.110315  0.121028  0  1.01322  0
H  H61  1  0.17965025  0.27005377  0.48634526  1  0.121456  0  0.110507  0.120887  0  1.014336  0
H  H62  1  0.72994498  0.82034609  0.01364997  1  0.121615  0  0.110527  0.120908  0  1.014346  0
H  H63  1  0.28396106  0.69329748  0.01348762  1  0.097588  0  0.110316  0.12105  0  1.013216  0
H  H64  1  0.69330148  0.28395108  0.51348941  1  0.097256  0  0.110373  0.12113  0  1.013328  0
H  H65  1  0.82035615  0.72993800  0.51364931  1  0.121577  0  0.11056  0.120891  0  1.01437  0
H  H66  1  0.27006136  0.17965394  0.98634686  1  0.121447  0  0.110499  0.120882  0  1.014401  0
H  H67  1  0.71603701  0.30669459  0.98651216  1  0.097567  0  0.110337  0.121028  0  1.01328  0
H  H68  1  0.23367055  0.59380060  0.55176141  1  0.065044  0  0.109031  0.10029  0  0.989148  0
H  H69  1  0.31780527  0.45762157  0.55164383  1  0.062363  0  0.109055  0.10042  0  0.990022  0
H  H70  1  0.54237551  0.68218822  0.94835267  1  0.062279  0  0.10903  0.100391  0  0.989994  0
H  H71  1  0.40620795  0.76632557  0.94823136  1  0.064875  0  0.109086  0.100434  0  0.989117  0
H  H72  1  0.76632770  0.40620278  0.44823691  1  0.06508  0  0.109031  0.100301  0  0.989051  0
H  H73  1  0.68220004  0.54237011  0.44835282  1  0.062371  0  0.109049  0.100346  0  0.99015  0
H  H74  1  0.45763164  0.31781276  0.05164259  1  0.062423  0  0.109021  0.100393  0  0.990085  0
H  H75  1  0.59379284  0.23367599  0.05177183  1  0.064906  0  0.10907  0.100468  0  0.989103  0
H  H76  1  0.18659508  0.66216899  0.65026573  1  0.084219  0  0.113977  0.117157  0  0.984964  0
H  H77  1  0.46342984  0.48782482  0.65013871  1  0.106144  0  0.113449  0.116447  0  0.984973  0
H  H78  1  0.51217747  0.53655978  0.84986097  1  0.106091  0  0.113464  0.11644  0  0.985046  0
H  H79  1  0.33784162  0.81341043  0.84973154  1  0.08394  0  0.113949  0.117103  0  0.984947  0
H  H80  1  0.81340796  0.33783213  0.34973338  1  0.084145  0  0.113964  0.117144  0  0.985036  0
H  H81  1  0.53656769  0.51216544  0.34986211  1  0.106239  0  0.113432  0.116433  0  0.984904  0
H  H82  1  0.48782819  0.46344590  0.15013121  1  0.106077  0  0.113481  0.116454  0  0.985035  0
H  H83  1  0.66216167  0.18659320  0.15027331  1  0.083893  0  0.113938  0.11708  0  0.984963  0
H  H84  1  0.21800904  0.85324410  0.67942381  1  0.153579  0  0.12401  0.10563  0  0.99901  0
H  H85  1  0.46127378  0.32603399  0.67935191  1  0.144462  0  0.123974  0.105846  0  0.99935  0
H  H86  1  0.67397088  0.53871867  0.82065032  1  0.144023  0  0.124002  0.105835  0  0.999378  0
H  H87  1  0.14676109  0.78199393  0.82057512  1  0.153653  0  0.124045  0.105768  0  0.998971  0
H  H88  1  0.78199266  0.14675779  0.32057790  1  0.153576  0  0.12404  0.105705  0  0.999054  0
H  H89  1  0.53871768  0.67395516  0.32065083  1  0.144733  0  0.123887  0.105717  0  0.999524  0
H  H90  1  0.32603867  0.46128794  0.17934412  1  0.144204  0  0.123911  0.105821  0  0.999409  0
H  H91  1  0.85323889  0.21799820  0.17942180  1  0.153513  0  0.124011  0.105664  0  0.999019  0
C  C92  1  0.13981155  0.51627360  0.23859114  1  1.587537  0  0.18691  0.55519  0  4.245037  0
C  C93  1  0.09922342  0.22259254  0.23871625  1  1.578314  0  0.187812  0.555884  0  4.239723  0
C  C94  1  0.77740467  0.90075524  0.26128675  1  1.57856  0  0.187871  0.55632  0  4.239324  0
C  C95  1  0.48372283  0.86016436  0.26140998  1  1.587097  0  0.186756  0.554974  0  4.245278  0
C  C96  1  0.86018543  0.48372641  0.76140989  1  1.58765  0  0.186942  0.555288  0  4.245184  0
C  C97  1  0.90076140  0.77740309  0.76128466  1  1.577977  0  0.187879  0.556163  0  4.23953  0
C  C98  1  0.22259509  0.09925050  0.73871461  1  1.579044  0  0.187897  0.556448  0  4.239644  0
C  C99  1  0.51628035  0.13983029  0.73859403  1  1.58729  0  0.186841  0.55504  0  4.245354  0
C  C100  1  0.19227215  0.61723319  0.29582750  1  -0.012442  0  -0.013023  -0.023277  0  3.949411  0
C  C101  1  0.10390995  0.17877515  0.29591893  1  0.031528  0  -0.013338  -0.022464  0  3.943737  0
C  C102  1  0.82122120  0.89607804  0.20408266  1  0.031426  0  -0.013372  -0.022477  0  3.943558  0
C  C103  1  0.38276313  0.80770260  0.20417497  1  -0.01119  0  -0.013016  -0.023444  0  3.949328  0
C  C104  1  0.80772189  0.38276487  0.70417379  1  -0.011815  0  -0.012917  -0.023184  0  3.949191  0
C  C105  1  0.89608177  0.82122215  0.70408167  1  0.031546  0  -0.013453  -0.022572  0  3.943613  0
C  C106  1  0.17877630  0.10392671  0.79591492  1  0.03147  0  -0.013327  -0.022292  0  3.943689  0
C  C107  1  0.61723897  0.19229195  0.79583112  1  -0.01256  0  -0.012937  -0.023294  0  3.949294  0
C  C108  1  0.12984511  0.65877399  0.32009147  1  -0.075263  0  -0.084021  -0.082304  0  3.984893  0
C  C109  1  0.19066713  0.16158571  0.32020455  1  -0.018635  0  -0.083302  -0.081671  0  3.984209  0
C  C110  1  0.83841449  0.80932287  0.17978874  1  -0.019018  0  -0.083265  -0.081721  0  3.984139  0
C  C111  1  0.34123392  0.87013868  0.17990950  1  -0.075695  0  -0.08402  -0.081907  0  3.984593  0
C  C112  1  0.87015316  0.34123096  0.67990843  1  -0.07575  0  -0.084038  -0.082298  0  3.984672  0
C  C113  1  0.80932545  0.83841073  0.67978980  1  -0.018772  0  -0.083264  -0.08166  0  3.984135  0
C  C114  1  0.16158377  0.19068208  0.82021116  1  -0.018941  0  -0.083215  -0.081782  0  3.984332  0
C  C115  1  0.65877535  0.12986218  0.82009415  1  -0.075815  0  -0.084147  -0.082282  0  3.984722  0
C  C116  1  0.17817991  0.75381592  0.37164346  1  0.039136  0  -0.096905  -0.181183  0  4.008842  0
C  C117  1  0.19381077  0.11790505  0.37166432  1  -0.02708  0  -0.096341  -0.180015  0  4.007808  0
C  C118  1  0.88209615  0.80618539  0.12832967  1  -0.026685  0  -0.096391  -0.180031  0  4.007615  0
C  C119  1  0.24619694  0.82180937  0.12835237  1  0.038556  0  -0.097079  -0.181627  0  4.008416  0
C  C120  1  0.82181576  0.24619109  0.62835466  1  0.038934  0  -0.096987  -0.181211  0  4.008527  0
C  C121  1  0.80618227  0.88209284  0.62832969  1  -0.026653  0  -0.096359  -0.180098  0  4.007776  0
C  C122  1  0.11790286  0.19382171  0.87167095  1  -0.026732  0  -0.096459  -0.180071  0  4.007867  0
C  C123  1  0.75381721  0.17819665  0.87165133  1  0.038264  0  -0.096944  -0.181356  0  4.008464  0
C  C124  1  0.28957433  0.80738631  0.39828586  1  0.187272  0  0.085443  0.168238  0  4.030523  0
C  C125  1  0.10888672  0.09064685  0.39818406  1  0.216676  0  0.084858  0.167591  0  4.025801  0
C  C126  1  0.90935113  0.89111459  0.10181381  1  0.216679  0  0.084833  0.167547  0  4.025629  0
C  C127  1  0.19261922  0.71041475  0.10170712  1  0.184977  0  0.085411  0.168143  0  4.03012  0
C  C128  1  0.71042162  0.19261886  0.60171255  1  0.187373  0  0.085413  0.168135  0  4.030249  0
C  C129  1  0.89111099  0.90935022  0.60181612  1  0.216688  0  0.084867  0.167673  0  4.025738  0
C  C130  1  0.09064803  0.10888912  0.89818303  1  0.216661  0  0.08491  0.167602  0  4.025802  0
C  C131  1  0.80738550  0.28958593  0.89829364  1  0.185294  0  0.085474  0.168248  0  4.03007  0
C  C132  1  0.35324486  0.76727837  0.37516250  1  -0.012273  0  -0.086992  -0.160035  0  3.951959  0
C  C133  1  0.02204000  0.10753858  0.37503931  1  -0.015692  0  -0.087827  -0.161139  0  3.953813  0
C  C134  1  0.89245662  0.97795772  0.12496257  1  -0.015417  0  -0.087752  -0.160866  0  3.953791  0
C  C135  1  0.23271961  0.64673895  0.12483306  1  -0.009661  0  -0.08677  -0.159373  0  3.951428  0
C  C136  1  0.64674955  0.23272527  0.62483833  1  -0.012525  0  -0.086898  -0.159869  0  3.951922  0
C  C137  1  0.97796032  0.89246348  0.62496262  1  -0.015656  0  -0.087758  -0.160924  0  3.953867  0
C  C138  1  0.10754043  0.02204558  0.87503535  1  -0.01551  0  -0.087768  -0.160859  0  3.953888  0
C  C139  1  0.76728145  0.35326175  0.87516961  1  -0.010238  0  -0.086849  -0.15954  0  3.951276  0
C  C140  1  0.30352674  0.67145810  0.32411267  1  -0.006999  0  -0.076806  -0.068086  0  3.959639  0
C  C141  1  0.02080557  0.15253671  0.32408448  1  -0.029371  0  -0.076793  -0.069131  0  3.95842  0
C  C142  1  0.84745746  0.97918646  0.17591787  1  -0.029437  0  -0.076925  -0.069359  0  3.958885  0
C  C143  1  0.32853171  0.69644934  0.17588714  1  -0.007778  0  -0.076883  -0.068343  0  3.959604  0
C  C144  1  0.69646951  0.32854132  0.67588922  1  -0.007033  0  -0.07676  -0.068081  0  3.959848  0
C  C145  1  0.97919196  0.84746413  0.67591630  1  -0.029299  0  -0.076827  -0.06926  0  3.958555  0
C  C146  1  0.15253959  0.02081685  0.82408005  1  -0.029578  0  -0.076901  -0.069444  0  3.95888  0
C  C147  1  0.67146725  0.30354546  0.82411823  1  -0.005717  0  -0.07684  -0.068291  0  3.959576  0
C  C148  1  0.40206316  0.02586143  0.37945809  1  -0.092707  0  -0.234117  -0.47816  0  3.942942  0
C  C149  1  0.97724311  0.85327524  0.37936139  1  -0.096601  0  -0.233461  -0.477294  0  3.942676  0
C  C150  1  0.14672452  0.02276039  0.12063665  1  -0.096551  0  -0.233473  -0.477306  0  3.942612  0
C  C151  1  0.97414584  0.59794681  0.12054056  1  -0.092526  0  -0.234147  -0.478203  0  3.943009  0
C  C152  1  0.59794434  0.97414498  0.62054300  1  -0.092655  0  -0.234223  -0.478349  0  3.942978  0
C  C153  1  0.02275526  0.14671964  0.62063157  1  -0.096438  0  -0.233445  -0.477345  0  3.942632  0
C  C154  1  0.85327771  0.97724075  0.87936323  1  -0.096661  0  -0.233426  -0.477298  0  3.942634  0
C  C155  1  0.02587014  0.40206737  0.87946883  1  -0.092404  0  -0.234223  -0.478281  0  3.943033  0
C  C156  1  0.38622969  0.00713078  0.44186295  1  0.923484  0  0.223611  0.330274  0  3.972584  0
C  C157  1  0.05557694  0.93441764  0.44174954  1  0.945178  0  0.223676  0.332159  0  3.970507  0
C  C158  1  0.06558431  0.94442956  0.05824938  1  0.945133  0  0.223649  0.332272  0  3.970624  0
C  C159  1  0.99287635  0.61377827  0.05813360  1  0.923076  0  0.223644  0.330293  0  3.972751  0
C  C160  1  0.61377660  0.99287556  0.55813775  1  0.923523  0  0.223682  0.330283  0  3.972671  0
C  C161  1  0.94442173  0.06558051  0.55824527  1  0.945279  0  0.223559  0.332287  0  3.970581  0
C  C162  1  0.93441516  0.05557194  0.94175093  1  0.945175  0  0.223636  0.332158  0  3.970559  0
C  C163  1  0.00713352  0.38623617  0.94187372  1  0.922997  0  0.22372  0.33035  0  3.972752  0
C  C164  1  0.33745564  0.92494418  0.51377432  1  0.960915  0  0.225519  0.186987  0  3.994794  0
C  C165  1  0.17633738  0.08848340  0.51364714  1  0.988261  0  0.22677  0.190397  0  3.992735  0
C  C166  1  0.91151744  0.82366375  0.98635163  1  0.988102  0  0.226708  0.19033  0  3.992712  0
C  C167  1  0.07506060  0.66253534  0.98621948  1  0.960862  0  0.225508  0.186976  0  3.994817  0
C  C168  1  0.66254197  0.07505898  0.48622415  1  0.95796  0  0.225509  0.186945  0  3.994616  0
C  C169  1  0.82366288  0.91150591  0.48635086  1  0.988101  0  0.226678  0.190415  0  3.992515  0
C  C170  1  0.08848977  0.17633842  0.01364841  1  0.988208  0  0.226713  0.190493  0  3.99257  0
C  C171  1  0.92494120  0.33746399  0.01378393  1  0.960601  0  0.225544  0.186807  0  3.994888  0
C  C172  1  0.29482284  0.84575825  0.54747031  1  0.586819  0  0.130153  0.170036  0  4.003833  0
C  C173  1  0.25258550  0.20139284  0.54734613  1  0.504148  0  0.129158  0.166736  0  4.003838  0
C  C174  1  0.79860929  0.74741218  0.95265169  1  0.504206  0  0.129211  0.166811  0  4.003843  0
C  C175  1  0.15424840  0.70517189  0.95252382  1  0.586619  0  0.130101  0.17013  0  4.003828  0
C  C176  1  0.70517957  0.15424873  0.45252972  1  0.589094  0  0.130011  0.170066  0  4.003563  0
C  C177  1  0.74741116  0.79859528  0.45265149  1  0.505073  0  0.129257  0.166856  0  4.003729  0
C  C178  1  0.20140020  0.25259113  0.04734585  1  0.504422  0  0.129244  0.166801  0  4.003751  0
C  C179  1  0.84574848  0.29482167  0.04747715  1  0.586975  0  0.129992  0.17014  0  4.003704  0
C  C180  1  0.28369576  0.74230950  0.52860219  1  -0.067035  0  -0.081406  -0.159124  0  3.936908  0
C  C181  1  0.24473756  0.28594286  0.52847546  1  0.037697  0  -0.080826  -0.157332  0  3.936468  0
C  C182  1  0.71405613  0.75525917  0.97152161  1  0.037713  0  -0.080848  -0.157374  0  3.936538  0
C  C183  1  0.25770027  0.71630071  0.97139129  1  -0.067921  0  -0.081378  -0.15914  0  3.937063  0
C  C184  1  0.71630500  0.25769498  0.47139860  1  -0.067311  0  -0.081413  -0.159308  0  3.937181  0
C  C185  1  0.75526444  0.71404833  0.47152188  1  0.037292  0  -0.080963  -0.157379  0  3.936632  0
C  C186  1  0.28594836  0.24474155  0.02847418  1  0.037933  0  -0.080849  -0.157338  0  3.936592  0
C  C187  1  0.74229485  0.28369391  0.02860793  1  -0.067281  0  -0.081323  -0.159011  0  3.937073  0
C  C188  1  0.24388199  0.67496265  0.56556922  1  -0.038152  0  -0.068273  -0.031117  0  4.004742  0
C  C189  1  0.32141512  0.39028558  0.56546142  1  -0.104873  0  -0.069273  -0.03272  0  4.008039  0
C  C190  1  0.60971507  0.67857896  0.93453639  1  -0.104653  0  -0.069185  -0.032656  0  4.00803  0
C  C191  1  0.32504879  0.75611794  0.93442465  1  -0.038326  0  -0.068417  -0.031465  0  4.005162  0
C  C192  1  0.75612050  0.32503764  0.43443013  1  -0.038171  0  -0.068346  -0.031163  0  4.004699  0
C  C193  1  0.67858439  0.60970511  0.43453584  1  -0.104918  0  -0.069266  -0.032696  0  4.008307  0
C  C194  1  0.39029226  0.32142530  0.06545825  1  -0.105139  0  -0.069194  -0.032735  0  4.0082  0
C  C195  1  0.67495306  0.24388213  0.06557486  1  -0.038558  0  -0.068506  -0.031672  0  4.005161  0
C  C196  1  0.21806338  0.71249996  0.62026246  1  0.03156  0  -0.082005  -0.135743  0  3.983098  0
C  C197  1  0.40193543  0.40749486  0.62015963  1  -0.046275  0  -0.081  -0.134786  0  3.984981  0
C  C198  1  0.59250711  0.59805443  0.87984012  1  -0.046446  0  -0.081106  -0.13483  0  3.9852  0
C  C199  1  0.28751158  0.78193892  0.87973454  1  0.032224  0  -0.081825  -0.135422  0  3.983055  0
C  C200  1  0.78194058  0.28750404  0.37973595  1  0.031514  0  -0.081888  -0.135615  0  3.983024  0
C  C201  1  0.59806135  0.59249580  0.37984126  1  -0.046524  0  -0.080983  -0.134741  0  3.984925  0
C  C202  1  0.40749890  0.40195075  0.12015085  1  -0.046902  0  -0.081108  -0.134791  0  3.985276  0
C  C203  1  0.71249298  0.21806006  0.12026842  1  0.032026  0  -0.081762  -0.135343  0  3.983062  0
C  C204  1  0.23391468  0.81747404  0.63649233  1  0.459206  0  0.062109  0.115786  0  3.909728  0
C  C205  1  0.40241118  0.31880339  0.63640399  1  0.522319  0  0.061615  0.115363  0  3.909121  0
C  C206  1  0.68120038  0.59758223  0.86359751  1  0.522905  0  0.061677  0.115444  0  3.909155  0
C  C207  1  0.18253519  0.76608833  0.86350537  1  0.459233  0  0.06196  0.115451  0  3.909577  0
C  C208  1  0.76609142  0.18253097  0.36350739  1  0.459378  0  0.061999  0.115629  0  3.909572  0
C  C209  1  0.59758460  0.68118851  0.36359747  1  0.522077  0  0.061723  0.115527  0  3.909386  0
C  C210  1  0.31880520  0.40242210  0.13639619  1  0.523251  0  0.061778  0.11548  0  3.909351  0
C  C211  1  0.81746222  0.23390450  0.13649376  1  0.459071  0  0.061997  0.115625  0  3.909643  0
N  N212  1  0.38247095  0.02959382  0.54272663  1  -0.732357  0  -0.226892  -0.230115  0  3.406684  0
N  N213  1  0.16011555  0.01283650  0.54264536  1  -0.731606  0  -0.22817  -0.232086  0  3.403179  0
N  N214  1  0.98716784  0.83988746  0.95735571  1  -0.731486  0  -0.228075  -0.231908  0  3.403069  0
N  N215  1  0.97041437  0.61753251  0.95726981  1  -0.732017  0  -0.226998  -0.230213  0  3.406999  0
N  N216  1  0.61753340  0.97040931  0.45727375  1  -0.732274  0  -0.22692  -0.23013  0  3.406677  0
N  N217  1  0.83988259  0.98715436  0.45735212  1  -0.731964  0  -0.228071  -0.231965  0  3.403197  0
N  N218  1  0.01284076  0.16011611  0.04264569  1  -0.731995  0  -0.228191  -0.232185  0  3.403178  0
N  N219  1  0.02958773  0.38246910  0.04273624  1  -0.732384  0  -0.226927  -0.230062  0  3.406932  0
N  N220  1  0.41258250  0.08141915  0.49790264  1  -0.680519  0  -0.239335  -0.282042  0  3.185256  0
N  N221  1  0.08511138  0.91617246  0.49782132  1  -0.694644  0  -0.239519  -0.283351  0  3.183318  0
N  N222  1  0.08383020  0.91489162  0.00217947  1  -0.694736  0  -0.239605  -0.28351  0  3.183503  0
N  N223  1  0.91858401  0.58742838  0.00209460  1  -0.68045  0  -0.239248  -0.281957  0  3.18532  0
N  N224  1  0.58742389  0.91858207  0.50209896  1  -0.680715  0  -0.239352  -0.282051  0  3.185067  0
N  N225  1  0.91488000  0.08381588  0.50217347  1  -0.694953  0  -0.239508  -0.283473  0  3.183696  0
N  N226  1  0.91617546  0.08510902  0.99782300  1  -0.694633  0  -0.239531  -0.283302  0  3.183326  0
N  N227  1  0.08142219  0.41258254  0.99791465  1  -0.680638  0  -0.239212  -0.281861  0  3.185138  0
N  N228  1  0.33863652  0.90711994  0.44978070  1  -1.221704  0  -0.214226  -0.10841  0  3.690451  0
N  N229  1  0.11125675  0.04229685  0.44963096  1  -1.229894  0  -0.213649  -0.108858  0  3.687961  0
N  N230  1  0.95770452  0.88875054  0.05036721  1  -1.229813  0  -0.213588  -0.108971  0  3.688175  0
N  N231  1  0.09288416  0.66135596  0.05021304  1  -1.221788  0  -0.214285  -0.10853  0  3.69024  0
N  N232  1  0.66135954  0.09288266  0.55021940  1  -1.221724  0  -0.214221  -0.108362  0  3.690185  0
N  N233  1  0.88874508  0.95769812  0.55036698  1  -1.229591  0  -0.213637  -0.109111  0  3.687985  0
N  N234  1  0.04229881  0.11125482  0.94963295  1  -1.229778  0  -0.213657  -0.109064  0  3.688032  0
N  N235  1  0.90712115  0.33864967  0.94978984  1  -1.221629  0  -0.214367  -0.108523  0  3.690088  0
N  N236  1  0.27022851  0.88181579  0.60060751  1  -1.193718  0  -0.304314  -0.232897  0  3.436672  0
N  N237  1  0.33031046  0.21854211  0.60050637  1  -1.193852  0  -0.303899  -0.231113  0  3.435002  0
N  N238  1  0.78146547  0.66968756  0.89949555  1  -1.194224  0  -0.303992  -0.231202  0  3.434887  0
N  N239  1  0.11819310  0.72977178  0.89938880  1  -1.193478  0  -0.304226  -0.232767  0  3.436478  0
N  N240  1  0.72977545  0.11818469  0.39939092  1  -1.193186  0  -0.304195  -0.232824  0  3.436136  0
N  N241  1  0.66968384  0.78144803  0.39949444  1  -1.194007  0  -0.303904  -0.231184  0  3.43517  0
N  N242  1  0.21854328  0.33031614  0.10050205  1  -1.193974  0  -0.303971  -0.231229  0  3.435055  0
N  N243  1  0.88180800  0.27022261  0.10061001  1  -1.193472  0  -0.30419  -0.232831  0  3.436418  0
O  O244  1  0.20090666  0.48036740  0.22016756  1  -1.165667  0  -0.338628  -0.55808  0  2.230362  0
O  O245  1  0.01962964  0.23996747  0.22022395  1  -1.164689  0  -0.338889  -0.55861  0  2.228842  0
O  O246  1  0.76003123  0.98034420  0.27978878  1  -1.164555  0  -0.338975  -0.558869  0  2.228794  0
O  O247  1  0.51962731  0.79906570  0.27983226  1  -1.165986  0  -0.338388  -0.557885  0  2.230517  0
O  O248  1  0.79908773  0.51963369  0.77983249  1  -1.165845  0  -0.338581  -0.558107  0  2.230466  0
O  O249  1  0.98035693  0.76003655  0.77978574  1  -1.164432  0  -0.338966  -0.558834  0  2.228765  0
O  O250  1  0.23996714  0.01966269  0.72021200  1  -1.165159  0  -0.339046  -0.559009  0  2.229204  0
O  O251  1  0.48037744  0.20093107  0.72017170  1  -1.165759  0  -0.338474  -0.557932  0  2.230487  0
O  O252  1  0.04006131  0.47314843  0.21145106  1  -1.177919  0  -0.339327  -0.564719  0  2.152442  0
O  O253  1  0.17188056  0.23866688  0.21162209  1  -1.17059  0  -0.33939  -0.564686  0  2.150376  0
O  O254  1  0.76132945  0.82808058  0.28836752  1  -1.170854  0  -0.339375  -0.564837  0  2.150325  0
O  O255  1  0.52685307  0.95991172  0.28854952  1  -1.177661  0  -0.339358  -0.564663  0  2.152565  0
O  O256  1  0.95993061  0.52685117  0.78854972  1  -1.177889  0  -0.339417  -0.564802  0  2.152604  0
O  O257  1  0.82808559  0.76132249  0.78836521  1  -1.170631  0  -0.339373  -0.564747  0  2.150452  0
O  O258  1  0.23867679  0.17192952  0.71163626  1  -1.170674  0  -0.339402  -0.564953  0  2.150165  0
O  O259  1  0.47315138  0.04008629  0.71145177  1  -1.177892  0  -0.339347  -0.564652  0  2.152706  0
