# generated using pymatgen
data_Cd3H8C8(N6Cl)2
_symmetry_space_group_name_H-M   'P 1'
_cell_length_a   8.33644619
_cell_length_b   13.17326105
_cell_length_c   17.03338596
_cell_angle_alpha   90.00000989
_cell_angle_beta   90.00000550
_cell_angle_gamma   90.00001025
_symmetry_Int_Tables_number   1
_chemical_formula_structural   Cd3H8C8(N6Cl)2
_chemical_formula_sum   'Cd12 H32 C32 N48 Cl8'
_cell_volume   1870.57547778
_cell_formula_units_Z   4
loop_
 _symmetry_equiv_pos_site_id
 _symmetry_equiv_pos_as_xyz
  1  'x, y, z'
loop_
 _atom_site_type_symbol
 _atom_site_label
 _atom_site_symmetry_multiplicity
 _atom_site_fract_x
 _atom_site_fract_y
 _atom_site_fract_z
 _atom_site_occupancy
 _atom_site_hle17_bader_spin_density
 _atom_site_hle17_ddec_charge
 _atom_site_hle17_ddec_spin_density
 _atom_site_hle17_ddec_sum_bond_order
 _atom_site_hle17_magmom
 _atom_site_hse06_10hf_bader_spin_density
 _atom_site_hse06_10hf_ddec_charge
 _atom_site_hse06_10hf_ddec_spin_density
 _atom_site_hse06_10hf_ddec_sum_bond_order
 _atom_site_hse06_10hf_magmom
 _atom_site_hse06_bader_spin_density
 _atom_site_hse06_ddec_charge
 _atom_site_hse06_ddec_spin_density
 _atom_site_hse06_ddec_sum_bond_order
 _atom_site_hse06_magmom
 _atom_site_pbe_bader_spin_density
 _atom_site_pbe_cm5_charge
 _atom_site_pbe_ddec_charge
 _atom_site_pbe_ddec_spin_density
 _atom_site_pbe_ddec_sum_bond_order
 _atom_site_pbe_magmom
Cd  Cd0  1  0.24999997  0.68039804  0.56359733  1  0  0.973257  0  1.858117  0  0  0.765936  0  2.315296  0  0  0.814002  0  2.276321  0  0  0.762105  0.732146  0  2.341764  0
Cd  Cd1  1  0.74999956  0.18039815  0.93640222  1  0  0.973223  0  1.85816  0  0  0.765908  0  2.315319  0  0  0.813973  0  2.276345  0  0  0.762098  0.732117  0  2.341787  0
Cd  Cd2  1  0.74999953  0.31960205  0.43640241  1  0  0.973226  0  1.858156  0  0  0.765909  0  2.31532  0  0  0.813975  0  2.276345  0  0  0.762096  0.732119  0  2.341787  0
Cd  Cd3  1  0.24999994  0.81960194  0.06359752  1  0  0.973242  0  1.858142  0  0  0.765928  0  2.3153  0  0  0.813995  0  2.276324  0  0  0.762107  0.732139  0  2.341768  0
Cd  Cd4  1  0.99718646  0.56142073  0.75424528  1  0  0.948593  0  1.933446  0  0  0.746607  0  2.403929  0  0  0.793678  0  2.365498  0  0  0.705845  0.713535  0  2.42993  0
Cd  Cd5  1  0.00281303  0.06142071  0.74575484  1  0  0.948567  0  1.933439  0  0  0.746571  0  2.403935  0  0  0.793642  0  2.365505  0  0  0.705832  0.713498  0  2.429935  0
Cd  Cd6  1  0.49718677  0.43857938  0.24575447  1  0  0.948594  0  1.933458  0  0  0.746612  0  2.403939  0  0  0.793681  0  2.365509  0  0  0.705839  0.713542  0  2.429942  0
Cd  Cd7  1  0.50281274  0.93857935  0.25424547  1  0  0.948577  0  1.933451  0  0  0.746587  0  2.40394  0  0  0.793657  0  2.365509  0  0  0.705834  0.713516  0  2.429943  0
Cd  Cd8  1  0.00281304  0.43857936  0.24575446  1  0  0.948597  0  1.933454  0  0  0.746615  0  2.403932  0  0  0.793684  0  2.365503  0  0  0.705843  0.713544  0  2.429935  0
Cd  Cd9  1  0.99718767  0.93857937  0.25424548  1  0  0.948585  0  1.933427  0  0  0.746598  0  2.403909  0  0  0.793668  0  2.365479  0  0  0.705836  0.713526  0  2.429912  0
Cd  Cd10  1  0.50281273  0.56142070  0.75424527  1  0  0.948588  0  1.933439  0  0  0.746601  0  2.403922  0  0  0.793672  0  2.365491  0  0  0.705843  0.713527  0  2.429923  0
Cd  Cd11  1  0.49718676  0.06142074  0.74575427  1  0  0.948567  0  1.933471  0  0  0.746585  0  2.403948  0  0  0.793655  0  2.365518  0  0  0.705834  0.713513  0  2.429949  0
H  H12  1  0.99754869  0.55564460  0.43187955  1  0  0.081123  0  0.959965  0  0  0.09133  0  1.025979  0  0  0.093243  0  1.02334  0  0  0.119514  0.089853  0  1.027952  0
H  H13  1  0.00245070  0.05564454  0.06811975  1  0  0.081127  0  0.959958  0  0  0.091334  0  1.025972  0  0  0.093247  0  1.023332  0  0  0.119519  0.089857  0  1.027945  0
H  H14  1  0.49754906  0.44435552  0.56812020  1  0  0.081109  0  0.959982  0  0  0.091319  0  1.025993  0  0  0.093231  0  1.023354  0  0  0.11951  0.089843  0  1.027964  0
H  H15  1  0.50245174  0.94435628  0.93187997  1  0  0.081109  0  0.960022  0  0  0.091316  0  1.026035  0  0  0.093229  0  1.023396  0  0  0.11951  0.089839  0  1.028008  0
H  H16  1  0.00245080  0.44435625  0.56812019  1  0  0.081121  0  0.959973  0  0  0.091331  0  1.025982  0  0  0.093244  0  1.023343  0  0  0.119525  0.089855  0  1.027954  0
H  H17  1  0.99754880  0.94435630  0.93187999  1  0  0.081106  0  0.959981  0  0  0.091314  0  1.025995  0  0  0.093227  0  1.023355  0  0  0.11952  0.089837  0  1.027967  0
H  H18  1  0.50245043  0.55564381  0.43188012  1  0  0.081108  0  0.960011  0  0  0.091317  0  1.026022  0  0  0.09323  0  1.023383  0  0  0.119519  0.089841  0  1.027996  0
H  H19  1  0.49754896  0.05564457  0.06811977  1  0  0.081081  0  0.959968  0  0  0.091289  0  1.025987  0  0  0.093201  0  1.023347  0  0  0.119502  0.089811  0  1.027962  0
H  H20  1  0.99755356  0.66996183  0.93991243  1  0  0.082259  0  0.955577  0  0  0.092028  0  1.020474  0  0  0.09433  0  1.017357  0  0  0.118129  0.090274  0  1.022806  0
H  H21  1  0.00244597  0.16996102  0.56008771  1  0  0.082281  0  0.955569  0  0  0.092047  0  1.020467  0  0  0.094349  0  1.017349  0  0  0.118132  0.090292  0  1.022798  0
H  H22  1  0.49755380  0.33003828  0.06008732  1  0  0.082244  0  0.955628  0  0  0.092022  0  1.02051  0  0  0.094324  0  1.017394  0  0  0.118141  0.090279  0  1.022829  0
H  H23  1  0.50244568  0.83003829  0.43991202  1  0  0.082268  0  0.955587  0  0  0.092037  0  1.020482  0  0  0.094338  0  1.017366  0  0  0.118141  0.090282  0  1.022813  0
H  H24  1  0.00244594  0.33003826  0.06008731  1  0  0.082259  0  0.955615  0  0  0.092037  0  1.020499  0  0  0.094339  0  1.017382  0  0  0.118146  0.090293  0  1.022817  0
H  H25  1  0.99755353  0.83003907  0.43991203  1  0  0.08228  0  0.955569  0  0  0.092048  0  1.020465  0  0  0.094349  0  1.017349  0  0  0.118131  0.090292  0  1.022795  0
H  H26  1  0.50244570  0.66996181  0.93991242  1  0  0.082275  0  0.955604  0  0  0.092043  0  1.020502  0  0  0.094344  0  1.017384  0  0  0.118142  0.090288  0  1.022834  0
H  H27  1  0.49755382  0.16996180  0.56008772  1  0  0.08226  0  0.955611  0  0  0.092027  0  1.02051  0  0  0.094329  0  1.017393  0  0  0.118138  0.090273  0  1.022843  0
H  H28  1  0.91296596  0.80675558  0.80396941  1  0  0.078243  0  0.948206  0  0  0.087235  0  1.018268  0  0  0.088712  0  1.015968  0  0  0.122096  0.086084  0  1.01997  0
H  H29  1  0.08703360  0.30675556  0.69603075  1  0  0.078256  0  0.948198  0  0  0.087247  0  1.018259  0  0  0.088724  0  1.015959  0  0  0.122101  0.086097  0  1.019961  0
H  H30  1  0.41296619  0.19324377  0.19603092  1  0  0.078258  0  0.948192  0  0  0.087248  0  1.018255  0  0  0.088725  0  1.015954  0  0  0.122105  0.086098  0  1.019956  0
H  H31  1  0.58703325  0.69324375  0.30396957  1  0  0.078278  0  0.94818  0  0  0.087268  0  1.018238  0  0  0.088745  0  1.015939  0  0  0.122122  0.086118  0  1.019939  0
H  H32  1  0.08703354  0.19324451  0.19603092  1  0  0.078258  0  0.948198  0  0  0.08725  0  1.018256  0  0  0.088727  0  1.015956  0  0  0.122102  0.0861  0  1.019958  0
H  H33  1  0.91296590  0.69324377  0.30396958  1  0  0.078278  0  0.948186  0  0  0.08727  0  1.018243  0  0  0.088747  0  1.015943  0  0  0.122117  0.086119  0  1.019944  0
H  H34  1  0.58703331  0.80675632  0.80396940  1  0  0.078267  0  0.948212  0  0  0.087258  0  1.018268  0  0  0.088735  0  1.015968  0  0  0.122112  0.086108  0  1.01997  0
H  H35  1  0.41296625  0.30675634  0.69603076  1  0  0.078258  0  0.948195  0  0  0.087248  0  1.018258  0  0  0.088725  0  1.015957  0  0  0.122101  0.086098  0  1.01996  0
H  H36  1  0.07629529  0.90855946  0.58492428  1  0  0.083763  0  0.947767  0  0  0.091953  0  1.015771  0  0  0.093781  0  1.01321  0  0  0.126017  0.09054  0  1.017669  0
H  H37  1  0.92370550  0.40855958  0.91507589  1  0  0.083744  0  0.947791  0  0  0.091951  0  1.015781  0  0  0.09378  0  1.01322  0  0  0.126009  0.090536  0  1.017677  0
H  H38  1  0.57629478  0.09143985  0.41507545  1  0  0.083773  0  0.947783  0  0  0.091964  0  1.015788  0  0  0.093792  0  1.013226  0  0  0.126022  0.090548  0  1.017682  0
H  H39  1  0.42370582  0.59144053  0.08492444  1  0  0.083767  0  0.947774  0  0  0.091955  0  1.015783  0  0  0.093783  0  1.013222  0  0  0.126016  0.090542  0  1.01768  0
H  H40  1  0.92370541  0.09144063  0.41507546  1  0  0.083712  0  0.947839  0  0  0.091936  0  1.01581  0  0  0.093764  0  1.01325  0  0  0.126014  0.090522  0  1.017707  0
H  H41  1  0.07629519  0.59144051  0.08492444  1  0  0.083764  0  0.947775  0  0  0.091953  0  1.015782  0  0  0.093781  0  1.013221  0  0  0.126014  0.09054  0  1.01768  0
H  H42  1  0.42370471  0.90855948  0.58492429  1  0  0.083766  0  0.94777  0  0  0.091957  0  1.015774  0  0  0.093785  0  1.013213  0  0  0.126016  0.090544  0  1.017672  0
H  H43  1  0.57629488  0.40855956  0.91507588  1  0  0.083799  0  0.947739  0  0  0.09197  0  1.015762  0  0  0.093799  0  1.0132  0  0  0.126015  0.090555  0  1.017658  0
C  C44  1  0.12237960  0.54393750  0.41608466  1  0  0.184123  0  3.748877  0  0  0.13093  0  4.014713  0  0  0.142916  0  4.030727  0  0  0.122701  0.123103  0  4.003632  0
C  C45  1  0.87761979  0.04393831  0.08391522  1  0  0.18414  0  3.748867  0  0  0.130948  0  4.014702  0  0  0.142934  0  4.030716  0  0  0.122707  0.123121  0  4.003622  0
C  C46  1  0.62238044  0.45606257  0.58391507  1  0  0.18413  0  3.748859  0  0  0.130939  0  4.014693  0  0  0.142925  0  4.030706  0  0  0.122701  0.12311  0  4.003615  0
C  C47  1  0.37762037  0.95606028  0.91608393  1  0  0.184116  0  3.748973  0  0  0.130922  0  4.014803  0  0  0.142907  0  4.030819  0  0  0.122672  0.123094  0  4.003724  0
C  C48  1  0.87761869  0.45606107  0.58391508  1  0  0.184184  0  3.748863  0  0  0.130991  0  4.014695  0  0  0.142977  0  4.030709  0  0  0.122714  0.123162  0  4.003617  0
C  C49  1  0.12238091  0.95606102  0.91608510  1  0  0.184219  0  3.748826  0  0  0.131028  0  4.014653  0  0  0.143013  0  4.030667  0  0  0.122748  0.123199  0  4.003574  0
C  C50  1  0.37761906  0.54393903  0.41608467  1  0  0.184185  0  3.748895  0  0  0.130991  0  4.01473  0  0  0.142978  0  4.030744  0  0  0.122716  0.123162  0  4.003652  0
C  C51  1  0.62238153  0.04393905  0.08391522  1  0  0.184182  0  3.748877  0  0  0.130988  0  4.014717  0  0  0.142973  0  4.030732  0  0  0.122704  0.12316  0  4.003636  0
C  C52  1  0.12270715  0.65969174  0.92391441  1  0  0.182048  0  3.754694  0  0  0.130042  0  4.020936  0  0  0.141805  0  4.036691  0  0  0.120349  0.122393  0  4.010004  0
C  C53  1  0.87729237  0.15969254  0.57608514  1  0  0.182002  0  3.754696  0  0  0.129993  0  4.020942  0  0  0.141755  0  4.0367  0  0  0.12032  0.122345  0  4.010008  0
C  C54  1  0.62270665  0.34030758  0.07608532  1  0  0.182042  0  3.754721  0  0  0.130027  0  4.020968  0  0  0.141792  0  4.036721  0  0  0.12033  0.122369  0  4.01003  0
C  C55  1  0.37729283  0.84030756  0.42391461  1  0  0.182032  0  3.754695  0  0  0.130026  0  4.020938  0  0  0.14179  0  4.036691  0  0  0.12033  0.122378  0  4.010004  0
C  C56  1  0.87729235  0.34030759  0.07608533  1  0  0.182002  0  3.754683  0  0  0.129984  0  4.020936  0  0  0.141748  0  4.03669  0  0  0.120303  0.122327  0  4.009997  0
C  C57  1  0.12270712  0.84030831  0.42391460  1  0  0.182001  0  3.754681  0  0  0.129992  0  4.020923  0  0  0.141756  0  4.036677  0  0  0.120331  0.122345  0  4.009988  0
C  C58  1  0.37729285  0.65969251  0.92391501  1  0  0.181992  0  3.754737  0  0  0.129983  0  4.020982  0  0  0.141745  0  4.036739  0  0  0.120308  0.122333  0  4.010049  0
C  C59  1  0.62270667  0.15969252  0.57608513  1  0  0.182018  0  3.754719  0  0  0.130011  0  4.020965  0  0  0.141774  0  4.03672  0  0  0.120319  0.122361  0  4.010033  0
C  C60  1  0.95937662  0.80893120  0.74451735  1  0  0.213593  0  3.726718  0  0  0.155454  0  3.999614  0  0  0.168695  0  4.015177  0  0  0.132552  0.146774  0  3.988875  0
C  C61  1  0.04062294  0.30893118  0.75548281  1  0  0.213571  0  3.726745  0  0  0.155432  0  3.999639  0  0  0.168673  0  4.015201  0  0  0.132549  0.146753  0  3.988901  0
C  C62  1  0.45937686  0.19106816  0.25548299  1  0  0.213607  0  3.726725  0  0  0.15547  0  3.99962  0  0  0.168713  0  4.015182  0  0  0.132563  0.146792  0  3.988882  0
C  C63  1  0.54062258  0.69106812  0.24451692  1  0  0.213578  0  3.726723  0  0  0.155442  0  3.999614  0  0  0.168684  0  4.015177  0  0  0.132556  0.146765  0  3.988875  0
C  C64  1  0.04062288  0.19106889  0.25548298  1  0  0.21358  0  3.726736  0  0  0.155443  0  3.99963  0  0  0.168684  0  4.015193  0  0  0.132554  0.146765  0  3.988892  0
C  C65  1  0.95937655  0.69106890  0.24451693  1  0  0.213523  0  3.72674  0  0  0.155382  0  3.999633  0  0  0.168623  0  4.015197  0  0  0.132542  0.146705  0  3.988895  0
C  C66  1  0.54062264  0.80893193  0.74451734  1  0  0.213565  0  3.726773  0  0  0.155427  0  3.999667  0  0  0.168668  0  4.015231  0  0  0.132546  0.146748  0  3.988928  0
C  C67  1  0.45937692  0.30893197  0.75548282  1  0  0.213575  0  3.726756  0  0  0.155438  0  3.999653  0  0  0.16868  0  4.015216  0  0  0.132547  0.146759  0  3.988915  0
C  C68  1  0.03985410  0.86022595  0.63330045  1  0  0.205272  0  3.737736  0  0  0.149071  0  4.006212  0  0  0.162999  0  4.020844  0  0  0.129409  0.139982  0  3.996017  0
C  C69  1  0.96014668  0.36022606  0.86669913  1  0  0.205249  0  3.737829  0  0  0.149031  0  4.0063  0  0  0.16296  0  4.020934  0  0  0.129399  0.139946  0  3.996103  0
C  C70  1  0.53985360  0.13977412  0.36669928  1  0  0.205238  0  3.737853  0  0  0.149035  0  4.006326  0  0  0.162964  0  4.020958  0  0  0.129398  0.139952  0  3.996125  0
C  C71  1  0.46014582  0.63977405  0.13330062  1  0  0.205228  0  3.737828  0  0  0.149025  0  4.006305  0  0  0.162953  0  4.020938  0  0  0.129393  0.139938  0  3.99611  0
C  C72  1  0.96014660  0.13977414  0.36669929  1  0  0.205274  0  3.737837  0  0  0.149042  0  4.006317  0  0  0.162972  0  4.020949  0  0  0.129393  0.139955  0  3.996121  0
C  C73  1  0.03985402  0.63977402  0.13330061  1  0  0.205225  0  3.737775  0  0  0.149021  0  4.006253  0  0  0.16295  0  4.020885  0  0  0.129397  0.139935  0  3.996058  0
C  C74  1  0.46014590  0.86022597  0.63330046  1  0  0.205239  0  3.737769  0  0  0.149036  0  4.006247  0  0  0.162965  0  4.02088  0  0  0.129401  0.139948  0  3.996052  0
C  C75  1  0.53985368  0.36022604  0.86669971  1  0  0.205213  0  3.737782  0  0  0.149027  0  4.006252  0  0  0.162955  0  4.020885  0  0  0.129404  0.139942  0  3.996055  0
N  N76  1  0.98278228  0.89480363  0.70235545  1  0  -0.414046  0  3.210494  0  0  -0.334016  0  3.490233  0  0  -0.357528  0  3.506246  0  0  -0.363159  -0.31804  0  3.47884  0
N  N77  1  0.01721730  0.39480362  0.79764472  1  0  -0.414039  0  3.210579  0  0  -0.33401  0  3.490322  0  0  -0.357522  0  3.506335  0  0  -0.363164  -0.318034  0  3.478929  0
N  N78  1  0.48278250  0.10519573  0.29764489  1  0  -0.414058  0  3.210597  0  0  -0.33403  0  3.49034  0  0  -0.357541  0  3.506352  0  0  -0.363172  -0.318054  0  3.478948  0
N  N79  1  0.51721690  0.60519568  0.20235500  1  0  -0.414041  0  3.210605  0  0  -0.334011  0  3.490347  0  0  -0.357522  0  3.506359  0  0  -0.363164  -0.318035  0  3.478957  0
N  N80  1  0.01721721  0.10519646  0.29764488  1  0  -0.414035  0  3.210575  0  0  -0.33401  0  3.490328  0  0  -0.357521  0  3.506339  0  0  -0.363159  -0.318034  0  3.478936  0
N  N81  1  0.98278219  0.60519647  0.20235502  1  0  -0.414008  0  3.210565  0  0  -0.333977  0  3.490304  0  0  -0.357488  0  3.506318  0  0  -0.363146  -0.318001  0  3.478914  0
N  N82  1  0.51721699  0.89480360  0.70235485  1  0  -0.414031  0  3.210571  0  0  -0.334003  0  3.490314  0  0  -0.357513  0  3.506326  0  0  -0.36316  -0.318027  0  3.478922  0
N  N83  1  0.48278259  0.39480365  0.79764474  1  0  -0.414049  0  3.210566  0  0  -0.33402  0  3.490303  0  0  -0.357531  0  3.506314  0  0  -0.363168  -0.318044  0  3.478909  0
N  N84  1  0.24999874  0.57447513  0.45946183  1  0  -0.436859  0  3.272495  0  0  -0.348545  0  3.55285  0  0  -0.372747  0  3.569047  0  0  -0.374209  -0.332046  0  3.541255  0
N  N85  1  0.75000066  0.07447515  0.04053806  1  0  -0.436922  0  3.272551  0  0  -0.348615  0  3.552918  0  0  -0.372816  0  3.569115  0  0  -0.374238  -0.332117  0  3.541323  0
N  N86  1  0.74999956  0.42552496  0.54053791  1  0  -0.436928  0  3.272557  0  0  -0.348623  0  3.552924  0  0  -0.372823  0  3.56912  0  0  -0.374244  -0.332125  0  3.541332  0
N  N87  1  0.25000244  0.92552418  0.95946110  1  0  -0.436921  0  3.272627  0  0  -0.348611  0  3.552988  0  0  -0.372811  0  3.569185  0  0  -0.374223  -0.332113  0  3.541396  0
N  N88  1  0.99962037  0.72607775  0.70437265  1  0  -0.279266  0  3.19611  0  0  -0.214042  0  3.475122  0  0  -0.230975  0  3.495354  0  0  -0.261247  -0.202517  0  3.461105  0
N  N89  1  0.00037917  0.22607775  0.79562691  1  0  -0.279286  0  3.196089  0  0  -0.214065  0  3.475104  0  0  -0.230998  0  3.495336  0  0  -0.261263  -0.20254  0  3.461087  0
N  N90  1  0.49962064  0.27392236  0.29562710  1  0  -0.279295  0  3.196087  0  0  -0.214078  0  3.475107  0  0  -0.231011  0  3.49534  0  0  -0.261259  -0.202553  0  3.461092  0
N  N91  1  0.50037882  0.77392231  0.20437282  1  0  -0.279305  0  3.196114  0  0  -0.214088  0  3.475134  0  0  -0.231021  0  3.495367  0  0  -0.26127  -0.202562  0  3.461117  0
N  N92  1  0.00037913  0.27392234  0.29562709  1  0  -0.279312  0  3.196106  0  0  -0.214093  0  3.475123  0  0  -0.231026  0  3.495356  0  0  -0.261273  -0.202569  0  3.461107  0
N  N93  1  0.99962153  0.77392234  0.20437283  1  0  -0.279269  0  3.196089  0  0  -0.214048  0  3.475103  0  0  -0.230981  0  3.495337  0  0  -0.261273  -0.202523  0  3.461087  0
N  N94  1  0.50037886  0.72607772  0.70437264  1  0  -0.279284  0  3.196117  0  0  -0.214064  0  3.475133  0  0  -0.230997  0  3.495366  0  0  -0.261259  -0.202539  0  3.461116  0
N  N95  1  0.49962068  0.22607777  0.79562692  1  0  -0.279289  0  3.196091  0  0  -0.214072  0  3.475112  0  0  -0.231006  0  3.495345  0  0  -0.261259  -0.202548  0  3.461096  0
N  N96  1  0.16789179  0.49717307  0.35038017  1  0  -0.26438  0  3.157959  0  0  -0.202756  0  3.436078  0  0  -0.218119  0  3.454825  0  0  -0.25078  -0.192221  0  3.423023  0
N  N97  1  0.83210893  0.99717380  0.14961978  1  0  -0.264371  0  3.157972  0  0  -0.202745  0  3.436088  0  0  -0.218109  0  3.454835  0  0  -0.250773  -0.192211  0  3.423033  0
N  N98  1  0.66789265  0.50282701  0.64961957  1  0  -0.264324  0  3.157927  0  0  -0.202697  0  3.43604  0  0  -0.21806  0  3.454787  0  0  -0.250756  -0.192161  0  3.422983  0
N  N99  1  0.33210803  0.00282705  0.85037938  1  0  -0.264324  0  3.157892  0  0  -0.202697  0  3.436004  0  0  -0.218061  0  3.454753  0  0  -0.250738  -0.192161  0  3.422946  0
N  N100  1  0.83210891  0.50282626  0.64962016  1  0  -0.264363  0  3.157939  0  0  -0.202733  0  3.43605  0  0  -0.218097  0  3.454798  0  0  -0.250751  -0.192197  0  3.422993  0
N  N101  1  0.16789177  0.00282704  0.85038055  1  0  -0.264364  0  3.157944  0  0  -0.202735  0  3.43605  0  0  -0.218098  0  3.454799  0  0  -0.250781  -0.192199  0  3.422991  0
N  N102  1  0.33210805  0.49717308  0.35038017  1  0  -0.264369  0  3.157932  0  0  -0.202743  0  3.436048  0  0  -0.218107  0  3.454795  0  0  -0.250753  -0.192209  0  3.422994  0
N  N103  1  0.66789267  0.99717380  0.14961978  1  0  -0.264303  0  3.157917  0  0  -0.202671  0  3.436025  0  0  -0.218034  0  3.454772  0  0  -0.250719  -0.192136  0  3.422969  0
N  N104  1  0.05124983  0.75889265  0.63219321  1  0  -0.307469  0  3.19823  0  0  -0.237016  0  3.479259  0  0  -0.255068  0  3.497887  0  0  -0.275813  -0.22474  0  3.466302  0
N  N105  1  0.94875092  0.25889201  0.86780695  1  0  -0.30738  0  3.198121  0  0  -0.236924  0  3.479151  0  0  -0.254978  0  3.497781  0  0  -0.275766  -0.224647  0  3.466192  0
N  N106  1  0.55124936  0.24110818  0.36780711  1  0  -0.307416  0  3.198165  0  0  -0.236958  0  3.479192  0  0  -0.255012  0  3.497821  0  0  -0.275788  -0.224681  0  3.466232  0
N  N107  1  0.44875129  0.74110810  0.13219339  1  0  -0.3074  0  3.19816  0  0  -0.236942  0  3.479184  0  0  -0.254995  0  3.497813  0  0  -0.27578  -0.224664  0  3.466224  0
N  N108  1  0.94875087  0.24110820  0.36780653  1  0  -0.307374  0  3.198113  0  0  -0.236918  0  3.479148  0  0  -0.254971  0  3.497777  0  0  -0.275768  -0.224641  0  3.466189  0
N  N109  1  0.05124977  0.74110808  0.13219338  1  0  -0.307412  0  3.198114  0  0  -0.236955  0  3.47914  0  0  -0.255008  0  3.497768  0  0  -0.27579  -0.224676  0  3.466181  0
N  N110  1  0.44875014  0.75889191  0.63219322  1  0  -0.30743  0  3.198159  0  0  -0.236976  0  3.479187  0  0  -0.255028  0  3.497816  0  0  -0.275804  -0.224699  0  3.46623  0
N  N111  1  0.55124941  0.25889198  0.86780694  1  0  -0.307399  0  3.198169  0  0  -0.23694  0  3.479189  0  0  -0.254993  0  3.497819  0  0  -0.275777  -0.224663  0  3.46623  0
N  N112  1  0.25000001  0.68806361  0.96840939  1  0  -0.447772  0  3.212238  0  0  -0.369581  0  3.493664  0  0  -0.392224  0  3.50953  0  0  -0.370895  -0.354061  0  3.482247  0
N  N113  1  0.74999952  0.18806439  0.53159076  1  0  -0.447758  0  3.212246  0  0  -0.369567  0  3.493677  0  0  -0.39221  0  3.509542  0  0  -0.370884  -0.354048  0  3.482258  0
N  N114  1  0.74999949  0.31193571  0.03159094  1  0  -0.447724  0  3.212179  0  0  -0.369529  0  3.493608  0  0  -0.392172  0  3.509474  0  0  -0.370854  -0.354009  0  3.482194  0
N  N115  1  0.24999998  0.81193570  0.46840898  1  0  -0.447737  0  3.212223  0  0  -0.369542  0  3.493646  0  0  -0.392186  0  3.509511  0  0  -0.370869  -0.354021  0  3.482225  0
N  N116  1  0.16789666  0.61640860  0.85666824  1  0  -0.271358  0  3.17403  0  0  -0.208511  0  3.452484  0  0  -0.224384  0  3.472125  0  0  -0.255381  -0.197644  0  3.438828  0
N  N117  1  0.83210165  0.11640865  0.64333189  1  0  -0.271295  0  3.173972  0  0  -0.20844  0  3.452411  0  0  -0.224313  0  3.472053  0  0  -0.255329  -0.197573  0  3.438754  0
N  N118  1  0.66789738  0.38359148  0.14333208  1  0  -0.27131  0  3.173963  0  0  -0.208458  0  3.452413  0  0  -0.224332  0  3.472055  0  0  -0.255354  -0.197593  0  3.438762  0
N  N119  1  0.33210331  0.88359145  0.35666785  1  0  -0.271348  0  3.174014  0  0  -0.208501  0  3.452468  0  0  -0.224374  0  3.47211  0  0  -0.255375  -0.197635  0  3.438815  0
N  N120  1  0.83210284  0.38359149  0.14333209  1  0  -0.271288  0  3.173958  0  0  -0.208434  0  3.452405  0  0  -0.224307  0  3.472049  0  0  -0.25534  -0.197569  0  3.438754  0
N  N121  1  0.16789784  0.88359144  0.35666785  1  0  -0.271275  0  3.173974  0  0  -0.208417  0  3.452413  0  0  -0.22429  0  3.472056  0  0  -0.25532  -0.197552  0  3.438758  0
N  N122  1  0.33210212  0.61640861  0.85666824  1  0  -0.271247  0  3.173963  0  0  -0.208388  0  3.452402  0  0  -0.224261  0  3.472043  0  0  -0.255304  -0.197521  0  3.438744  0
N  N123  1  0.66789739  0.11640864  0.64333189  1  0  -0.271286  0  3.173983  0  0  -0.208434  0  3.452427  0  0  -0.224307  0  3.472069  0  0  -0.255339  -0.197567  0  3.43877  0
Cl  Cl124  1  0.24999995  0.51610844  0.65505829  1  0  -0.543646  0  1.024151  0  0  -0.476455  0  1.34339  0  0  -0.49314  0  1.315774  0  0  -0.273038  -0.464397  0  1.362245  0
Cl  Cl125  1  0.74999953  0.01610852  0.84494183  1  0  -0.543634  0  1.024133  0  0  -0.476439  0  1.343367  0  0  -0.493123  0  1.315751  0  0  -0.273039  -0.46438  0  1.362223  0
Cl  Cl126  1  0.74999955  0.48389165  0.34494145  1  0  -0.543659  0  1.024166  0  0  -0.476459  0  1.34339  0  0  -0.493143  0  1.315774  0  0  -0.273052  -0.464399  0  1.362246  0
Cl  Cl127  1  0.24999997  0.98389156  0.15505850  1  0  -0.543635  0  1.024148  0  0  -0.476439  0  1.343379  0  0  -0.493123  0  1.315764  0  0  -0.273032  -0.464377  0  1.362234  0
Cl  Cl128  1  0.74999961  0.60261022  0.84898511  1  0  -0.590119  0  0.889193  0  0  -0.528129  0  1.164033  0  0  -0.544218  0  1.140432  0  0  -0.324531  -0.51656  0  1.180172  0
Cl  Cl129  1  0.24999989  0.10261021  0.65101503  1  0  -0.590113  0  0.8892  0  0  -0.528121  0  1.164037  0  0  -0.544209  0  1.140436  0  0  -0.32453  -0.516552  0  1.180177  0
Cl  Cl130  1  0.24999989  0.39738986  0.15101463  1  0  -0.590117  0  0.889201  0  0  -0.528134  0  1.164043  0  0  -0.544223  0  1.140441  0  0  -0.324528  -0.516564  0  1.180187  0
Cl  Cl131  1  0.74999960  0.89738987  0.34898471  1  0  -0.590116  0  0.889184  0  0  -0.528125  0  1.16402  0  0  -0.544214  0  1.140419  0  0  -0.324531  -0.516555  0  1.180159  0
