# generated using pymatgen
data_CdH22C22(N2O3)2
_symmetry_space_group_name_H-M   'P 1'
_cell_length_a   9.15261674
_cell_length_b   9.15250136
_cell_length_c   14.77350582
_cell_angle_alpha   106.17086185
_cell_angle_beta   106.16967866
_cell_angle_gamma   93.45625209
_symmetry_Int_Tables_number   1
_chemical_formula_structural   CdH22C22(N2O3)2
_chemical_formula_sum   'Cd2 H44 C44 N8 O12'
_cell_volume   1128.76517051
_cell_formula_units_Z   2
loop_
 _symmetry_equiv_pos_site_id
 _symmetry_equiv_pos_as_xyz
  1  'x, y, z'
loop_
 _atom_site_type_symbol
 _atom_site_label
 _atom_site_symmetry_multiplicity
 _atom_site_fract_x
 _atom_site_fract_y
 _atom_site_fract_z
 _atom_site_occupancy
 _atom_site_hle17_bader_spin_density
 _atom_site_hle17_ddec_charge
 _atom_site_hle17_ddec_spin_density
 _atom_site_hle17_ddec_sum_bond_order
 _atom_site_hle17_magmom
 _atom_site_hse06_10hf_bader_charge
 _atom_site_hse06_10hf_bader_spin_density
 _atom_site_hse06_10hf_ddec_charge
 _atom_site_hse06_10hf_ddec_spin_density
 _atom_site_hse06_10hf_ddec_sum_bond_order
 _atom_site_hse06_10hf_magmom
 _atom_site_hse06_bader_spin_density
 _atom_site_hse06_ddec_charge
 _atom_site_hse06_ddec_spin_density
 _atom_site_hse06_ddec_sum_bond_order
 _atom_site_hse06_magmom
 _atom_site_pbe_bader_spin_density
 _atom_site_pbe_cm5_charge
 _atom_site_pbe_ddec_charge
 _atom_site_pbe_ddec_spin_density
 _atom_site_pbe_ddec_sum_bond_order
 _atom_site_pbe_magmom
Cd  Cd0  1  0.33495501  0.66504654  0.75000207  1  0  1.013393  0  1.795153  0  1.255167  0  0.808951  0  2.243916  0  0  0.860991  0  2.201424  0  0  0.768631  0.772422  0  2.272674  0
Cd  Cd1  1  0.66504540  0.33495440  0.24999442  1  0  1.013437  0  1.795096  0  1.255263  0  0.808969  0  2.243918  0  0  0.861007  0  2.201426  0  0  0.768635  0.772445  0  2.272678  0
H  H2  1  0.75499706  0.99319391  0.69628316  1  0  0.382427  0  0.895596  0  0.660547  0  0.355637  0  0.970723  0  0  0.367781  0  0.957229  0  0  0.294296  0.346926  0  0.980446  0
H  H3  1  0.00684280  0.24499256  0.80373359  1  0  0.382342  0  0.895627  0  0.66056  0  0.355608  0  0.970694  0  0  0.367759  0  0.957181  0  0  0.29432  0.346897  0  0.980416  0
H  H4  1  0.24501751  0.00683430  0.30372906  1  0  0.382384  0  0.895675  0  0.660827  0  0.355593  0  0.970826  0  0  0.367744  0  0.95732  0  0  0.294298  0.34688  0  0.980552  0
H  H5  1  0.99319127  0.75499189  0.19627283  1  0  0.382384  0  0.895642  0  0.660576  0  0.35554  0  0.97087  0  0  0.367689  0  0.957368  0  0  0.294319  0.346829  0  0.980594  0
H  H6  1  0.65573860  0.74066828  0.81893380  1  0  0.258901  0  0.925884  0  0.463141  0  0.249009  0  0.981911  0  0  0.25564  0  0.976797  0  0  0.288177  0.244158  0  0.985803  0
H  H7  1  0.25930472  0.34427513  0.68107424  1  0  0.25885  0  0.925873  0  0.462827  0  0.248869  0  0.982009  0  0  0.2555  0  0.976898  0  0  0.2882  0.244016  0  0.985899  0
H  H8  1  0.34427341  0.25931383  0.18107153  1  0  0.258863  0  0.925951  0  0.46293  0  0.248974  0  0.981958  0  0  0.255605  0  0.976844  0  0  0.288195  0.244121  0  0.985854  0
H  H9  1  0.74067477  0.65573145  0.31892488  1  0  0.258831  0  0.926011  0  0.463011  0  0.248977  0  0.981983  0  0  0.255607  0  0.97687  0  0  0.288194  0.244125  0  0.985877  0
H  H10  1  0.27401490  0.82937714  0.49411430  1  0  0.114215  0  0.956748  0  0.115923  0  0.123736  0  1.020101  0  0  0.127906  0  1.017045  0  0  0.103093  0.120971  0  1.021909  0
H  H11  1  0.17064352  0.72600023  0.00588902  1  0  0.114115  0  0.956697  0  0.115668  0  0.123618  0  1.020073  0  0  0.127815  0  1.016995  0  0  0.103062  0.120853  0  1.02188  0
H  H12  1  0.72600488  0.17063969  0.50589273  1  0  0.114138  0  0.956744  0  0.115639  0  0.12365  0  1.020088  0  0  0.127844  0  1.017012  0  0  0.103091  0.120884  0  1.021895  0
H  H13  1  0.82937374  0.27399947  0.99411101  1  0  0.114136  0  0.956804  0  0.115794  0  0.123689  0  1.020115  0  0  0.127867  0  1.017051  0  0  0.103093  0.120922  0  1.021925  0
H  H14  1  0.73635723  0.46984330  0.79859047  1  0  0.063494  0  0.930867  0  0.052943  0  0.081075  0  0.991554  0  0  0.081087  0  0.992539  0  0  0.100268  0.080979  0  0.990899  0
H  H15  1  0.53011936  0.26360914  0.70139709  1  0  0.063475  0  0.930759  0  0.05348  0  0.081071  0  0.991432  0  0  0.081121  0  0.992377  0  0  0.100236  0.080977  0  0.990775  0
H  H16  1  0.26362398  0.53013785  0.20140700  1  0  0.063534  0  0.930748  0  0.053011  0  0.081122  0  0.991439  0  0  0.08116  0  0.992397  0  0  0.100264  0.081027  0  0.990782  0
H  H17  1  0.46985806  0.73636970  0.29859994  1  0  0.063541  0  0.930927  0  0.053275  0  0.081132  0  0.991589  0  0  0.08112  0  0.992596  0  0  0.100287  0.081038  0  0.990931  0
H  H18  1  0.63614711  0.52779147  0.69593580  1  0  0.068647  0  0.931089  0  0.050287  0  0.085595  0  0.993763  0  0  0.086041  0  0.994148  0  0  0.106936  0.085254  0  0.993439  0
H  H19  1  0.47218216  0.36383721  0.80405178  1  0  0.068702  0  0.931099  0  0.050363  0  0.085598  0  0.993794  0  0  0.086041  0  0.994192  0  0  0.10694  0.085257  0  0.993469  0
H  H20  1  0.36384903  0.47218977  0.30406037  1  0  0.068757  0  0.931121  0  0.050159  0  0.085666  0  0.99381  0  0  0.08611  0  0.994205  0  0  0.106993  0.085324  0  0.993486  0
H  H21  1  0.52779380  0.63616032  0.19594097  1  0  0.068778  0  0.931023  0  0.050177  0  0.08566  0  0.993737  0  0  0.086108  0  0.994118  0  0  0.106989  0.085319  0  0.993412  0
H  H22  1  0.76127201  0.61423240  0.95200798  1  0  0.056745  0  0.981488  0  0.083391  0  0.06994  0  1.051147  0  0  0.068721  0  1.054588  0  0  0.096718  0.070918  0  1.048397  0
H  H23  1  0.38573486  0.23871164  0.54798758  1  0  0.056761  0  0.981466  0  0.083245  0  0.069953  0  1.05114  0  0  0.068725  0  1.05459  0  0  0.096735  0.070929  0  1.048384  0
H  H24  1  0.23872203  0.38575894  0.04799710  1  0  0.056771  0  0.981542  0  0.083355  0  0.06999  0  1.051148  0  0  0.068753  0  1.054606  0  0  0.096751  0.070966  0  1.048396  0
H  H25  1  0.61424599  0.76128117  0.45200790  1  0  0.056658  0  0.981599  0  0.083346  0  0.069882  0  1.051202  0  0  0.068659  0  1.054643  0  0  0.096724  0.070857  0  1.048446  0
H  H26  1  0.56500512  0.56158797  0.93948746  1  0  0.07385  0  0.924611  0  0.034117  0  0.08992  0  0.986428  0  0  0.090854  0  0.985791  0  0  0.1061  0.089143  0  0.986926  0
H  H27  1  0.43838013  0.43498914  0.56050280  1  0  0.073915  0  0.924725  0  0.034312  0  0.090134  0  0.986367  0  0  0.091064  0  0.985747  0  0  0.106125  0.089351  0  0.986869  0
H  H28  1  0.43500013  0.43840122  0.06051387  1  0  0.073901  0  0.924581  0  0.034107  0  0.089986  0  0.986392  0  0  0.090921  0  0.985756  0  0  0.106123  0.089208  0  0.98689  0
H  H29  1  0.56161035  0.56500613  0.43948948  1  0  0.073897  0  0.924706  0  0.034244  0  0.090017  0  0.986468  0  0  0.090955  0  0.985825  0  0  0.106136  0.089236  0  0.986962  0
H  H30  1  0.87027194  0.90278585  0.00714054  1  0  0.112919  0  0.93149  0  0.105671  0  0.127478  0  0.982779  0  0  0.130364  0  0.982189  0  0  0.112354  0.125407  0  0.98327  0
H  H31  1  0.09718148  0.12972426  0.49285978  1  0  0.112882  0  0.931545  0  0.105277  0  0.127485  0  0.982783  0  0  0.130373  0  0.982192  0  0  0.112306  0.125414  0  0.983275  0
H  H32  1  0.12973247  0.09719259  0.99286950  1  0  0.113067  0  0.931479  0  0.10505  0  0.127594  0  0.982804  0  0  0.130482  0  0.982213  0  0  0.112381  0.125523  0  0.983296  0
H  H33  1  0.90279063  0.87028487  0.50713236  1  0  0.112969  0  0.931369  0  0.105131  0  0.127526  0  0.982679  0  0  0.130413  0  0.982091  0  0  0.112363  0.125455  0  0.983168  0
H  H34  1  0.43187710  0.73945933  0.02715338  1  0  0.114203  0  0.967222  0  0.133215  0  0.122884  0  1.031332  0  0  0.126151  0  1.030145  0  0  0.107168  0.120406  0  1.032448  0
H  H35  1  0.26053560  0.56813835  0.47285488  1  0  0.114115  0  0.967222  0  0.133232  0  0.12285  0  1.031279  0  0  0.126121  0  1.030086  0  0  0.107165  0.120368  0  1.032396  0
H  H36  1  0.56811797  0.26055091  0.97284182  1  0  0.114273  0  0.967139  0  0.133242  0  0.122867  0  1.031335  0  0  0.126136  0  1.030149  0  0  0.107167  0.12039  0  1.032452  0
H  H37  1  0.73946238  0.43187837  0.52715355  1  0  0.114219  0  0.967242  0  0.133283  0  0.122883  0  1.031369  0  0  0.126153  0  1.030181  0  0  0.107161  0.120404  0  1.032485  0
H  H38  1  0.45397289  0.99106791  0.15712373  1  0  0.08366  0  0.961762  0  0.126677  0  0.091557  0  1.025402  0  0  0.093984  0  1.023568  0  0  0.113709  0.089634  0  1.026838  0
H  H39  1  0.00893080  0.54601806  0.34286494  1  0  0.083578  0  0.961709  0  0.127007  0  0.09156  0  1.025265  0  0  0.093992  0  1.02343  0  0  0.113708  0.089636  0  1.026705  0
H  H40  1  0.54599668  0.00893707  0.84285499  1  0  0.083698  0  0.961711  0  0.126833  0  0.091538  0  1.025406  0  0  0.093966  0  1.023573  0  0  0.113702  0.089619  0  1.026834  0
H  H41  1  0.99107155  0.45399553  0.65713423  1  0  0.083776  0  0.961625  0  0.127151  0  0.091544  0  1.025403  0  0  0.093968  0  1.023571  0  0  0.113692  0.089621  0  1.026839  0
H  H42  1  0.87185406  0.14933673  0.13432158  1  0  0.07891  0  0.931015  0  0.119232  0  0.088164  0  0.991695  0  0  0.090501  0  0.989855  0  0  0.116986  0.086475  0  0.992994  0
H  H43  1  0.85065835  0.12814846  0.36567374  1  0  0.078889  0  0.931023  0  0.119185  0  0.088091  0  0.99176  0  0  0.090439  0  0.989903  0  0  0.116971  0.086404  0  0.993056  0
H  H44  1  0.12814721  0.85067091  0.86568173  1  0  0.078897  0  0.931039  0  0.119203  0  0.088097  0  0.991773  0  0  0.090442  0  0.989921  0  0  0.116993  0.08641  0  0.99307  0
H  H45  1  0.14932893  0.87187092  0.63432441  1  0  0.07884  0  0.930943  0  0.119338  0  0.087999  0  0.991725  0  0  0.090347  0  0.989866  0  0  0.116961  0.086316  0  0.993023  0
C  C46  1  0.52244074  0.84280355  0.64777043  1  0  0.649085  0  3.917738  0  1.588169  0  0.597884  0  4.216831  0  0  0.632277  0  4.208331  0  0  0.196012  0.57451  0  4.221689  0
C  C47  1  0.15720913  0.47754632  0.85223102  1  0  0.649272  0  3.917635  0  1.588214  0  0.598207  0  4.216574  0  0  0.632601  0  4.208073  0  0  0.196088  0.57483  0  4.221437  0
C  C48  1  0.47757547  0.15720712  0.35224633  1  0  0.648865  0  3.917824  0  1.588234  0  0.597618  0  4.216895  0  0  0.632015  0  4.208404  0  0  0.195963  0.574245  0  4.221746  0
C  C49  1  0.84280488  0.52244656  0.14776514  1  0  0.649002  0  3.917888  0  1.588098  0  0.597791  0  4.216961  0  0  0.632186  0  4.208467  0  0  0.195986  0.574416  0  4.221818  0
C  C50  1  0.51024051  0.92786966  0.57364037  1  0  -0.188493  0  3.800182  0  -0.027729  0  -0.172949  0  4.047363  0  0  -0.180848  0  4.066943  0  0  -0.041758  -0.167328  0  4.033654  0
C  C51  1  0.07212967  0.48976195  0.92635924  1  0  -0.188628  0  3.80003  0  -0.02754  0  -0.173196  0  4.047307  0  0  -0.181087  0  4.066889  0  0  -0.041829  -0.167568  0  4.033602  0
C  C52  1  0.48977352  0.07214111  0.42637330  1  0  -0.188459  0  3.800464  0  -0.027696  0  -0.172758  0  4.047383  0  0  -0.180656  0  4.066966  0  0  -0.041726  -0.167137  0  4.033673  0
C  C53  1  0.92787957  0.51023073  0.07364210  1  0  -0.18855  0  3.800414  0  -0.028003  0  -0.172977  0  4.04752  0  0  -0.180867  0  4.067089  0  0  -0.041821  -0.167353  0  4.03381  0
C  C54  1  0.64006133  0.02579321  0.57786305  1  0  0.289388  0  3.865678  0  0.514555  0  0.272422  0  4.141374  0  0  0.283548  0  4.156777  0  0  0.068411  0.264629  0  4.130852  0
C  C55  1  0.97424512  0.35993508  0.92215232  1  0  0.289616  0  3.865157  0  0.514812  0  0.272679  0  4.140864  0  0  0.283799  0  4.156261  0  0  0.068648  0.264881  0  4.130348  0
C  C56  1  0.35994805  0.97422951  0.42214045  1  0  0.289394  0  3.865782  0  0.515348  0  0.272436  0  4.141381  0  0  0.283564  0  4.156773  0  0  0.068481  0.264643  0  4.130859  0
C  C57  1  0.02577532  0.64004941  0.07785161  1  0  0.28955  0  3.865218  0  0.514649  0  0.272629  0  4.140816  0  0  0.283753  0  4.156214  0  0  0.068615  0.264837  0  4.130294  0
C  C58  1  0.37273227  0.90466744  0.49649395  1  0  -0.185203  0  3.7429  0  -0.055169  0  -0.217845  0  4.006162  0  0  -0.21898  0  4.021286  0  0  -0.109699  -0.217247  0  3.995426  0
C  C59  1  0.09534267  0.62727617  0.00350541  1  0  -0.185223  0  3.742822  0  -0.05419  0  -0.21782  0  4.006111  0  0  -0.218976  0  4.021206  0  0  -0.109722  -0.217224  0  3.995374  0
C  C60  1  0.62728238  0.09535288  0.50351210  1  0  -0.185277  0  3.743053  0  -0.054569  0  -0.217935  0  4.006257  0  0  -0.219088  0  4.021355  0  0  -0.109734  -0.217334  0  3.995519  0
C  C61  1  0.90466828  0.37271999  0.99649553  1  0  -0.185263  0  3.743063  0  -0.054805  0  -0.217907  0  4.006268  0  0  -0.21905  0  4.021386  0  0  -0.109751  -0.217306  0  3.99553  0
C  C62  1  0.62672126  0.50454972  0.76334221  1  0  0.011778  0  3.636199  0  0.263245  0  -0.044584  0  3.897484  0  0  -0.041077  0  3.909882  0  0  -0.072325  -0.046875  0  3.88891  0
C  C63  1  0.49544404  0.37327834  0.73665652  1  0  0.011586  0  3.636176  0  0.284457  0  -0.044699  0  3.897405  0  0  -0.041217  0  3.909795  0  0  -0.07239  -0.046994  0  3.888829  0
C  C64  1  0.37327839  0.49545551  0.23666374  1  0  0.011586  0  3.635997  0  0.263241  0  -0.044778  0  3.89729  0  0  -0.041289  0  3.909673  0  0  -0.072419  -0.047069  0  3.888718  0
C  C65  1  0.50455619  0.62673038  0.26334882  1  0  0.011561  0  3.63629  0  0.284661  0  -0.044732  0  3.897552  0  0  -0.041207  0  3.909952  0  0  -0.072432  -0.047024  0  3.888979  0
C  C66  1  0.64601845  0.64842317  0.93258547  1  0  -0.014138  0  3.668154  0  0.300147  0  -0.075851  0  3.9232  0  0  -0.072176  0  3.934963  0  0  -0.069442  -0.078369  0  3.914915  0
C  C67  1  0.35155847  0.35397508  0.56741530  1  0  -0.014234  0  3.668108  0  0.299978  0  -0.076066  0  3.923198  0  0  -0.07238  0  3.934995  0  0  -0.069566  -0.078564  0  3.91488  0
C  C68  1  0.35398192  0.35156376  0.06741388  1  0  -0.014344  0  3.668228  0  0.30003  0  -0.076128  0  3.923312  0  0  -0.072437  0  3.935097  0  0  -0.069614  -0.078631  0  3.915008  0
C  C69  1  0.64843366  0.64602557  0.43258843  1  0  -0.014137  0  3.668216  0  0.299831  0  -0.07588  0  3.923258  0  0  -0.072205  0  3.935026  0  0  -0.069486  -0.078366  0  3.914928  0
C  C70  1  0.64926740  0.80083971  0.00618222  1  0  0.132218  0  3.705093  0  0.009865  0  0.149062  0  3.94406  0  0  0.152804  0  3.966582  0  0  0.01389  0.146754  0  3.928822  0
C  C71  1  0.19914765  0.35073721  0.49381442  1  0  0.132215  0  3.705016  0  0.010335  0  0.149076  0  3.944028  0  0  0.152785  0  3.966598  0  0  0.013985  0.146758  0  3.928784  0
C  C72  1  0.35072879  0.19914760  0.99380626  1  0  0.132186  0  3.705216  0  0.010449  0  0.149084  0  3.944126  0  0  0.152802  0  3.966685  0  0  0.013994  0.146766  0  3.928885  0
C  C73  1  0.80084248  0.64927167  0.50618571  1  0  0.132414  0  3.704934  0  0.010233  0  0.149223  0  3.943974  0  0  0.152975  0  3.966486  0  0  0.01398  0.146903  0  3.928732  0
C  C74  1  0.77390026  0.91854910  0.03693472  1  0  -0.154356  0  3.700499  0  -0.052285  0  -0.174042  0  3.948307  0  0  -0.18107  0  3.969077  0  0  -0.079163  -0.169538  0  3.934422  0
C  C75  1  0.08142816  0.22608908  0.46305656  1  0  -0.15436  0  3.700215  0  -0.051733  0  -0.174102  0  3.948003  0  0  -0.181118  0  3.968783  0  0  -0.079137  -0.169595  0  3.934121  0
C  C76  1  0.22608372  0.08143449  0.96305965  1  0  -0.154419  0  3.700259  0  -0.051643  0  -0.174135  0  3.948073  0  0  -0.181154  0  3.968849  0  0  -0.079194  -0.169626  0  3.934188  0
C  C77  1  0.91855972  0.77391188  0.53693832  1  0  -0.154545  0  3.700396  0  -0.051876  0  -0.174238  0  3.948216  0  0  -0.18127  0  3.968988  0  0  -0.079228  -0.169729  0  3.934333  0
C  C78  1  0.53240173  0.82706809  0.05021023  1  0  -0.160453  0  3.700616  0  -0.011946  0  -0.179996  0  3.948643  0  0  -0.187603  0  3.970471  0  0  -0.083332  -0.175163  0  3.934054  0
C  C79  1  0.17291770  0.46759533  0.44978005  1  0  -0.160485  0  3.700584  0  -0.011843  0  -0.180078  0  3.948645  0  0  -0.187677  0  3.970485  0  0  -0.083431  -0.175237  0  3.934049  0
C  C80  1  0.46758820  0.17292273  0.94977708  1  0  -0.160635  0  3.700811  0  -0.068266  0  -0.1801  0  3.948828  0  0  -0.187701  0  3.970665  0  0  -0.083411  -0.175266  0  3.934241  0
C  C81  1  0.82708117  0.53240228  0.55021218  1  0  -0.160691  0  3.700499  0  -0.068118  0  -0.180207  0  3.948521  0  0  -0.18782  0  3.970346  0  0  -0.083427  -0.175369  0  3.933933  0
C  C82  1  0.54349518  0.96707495  0.12156584  1  0  0.12076  0  3.720993  0  0.437905  0  0.091108  0  3.973322  0  0  0.097503  0  3.993224  0  0  0.040821  0.087042  0  3.95978  0
C  C83  1  0.03290503  0.45650560  0.37843079  1  0  0.121002  0  3.720671  0  0.436928  0  0.091298  0  3.973014  0  0  0.09769  0  3.992916  0  0  0.040873  0.087229  0  3.959472  0
C  C84  1  0.45648747  0.03292047  0.87842165  1  0  0.120926  0  3.720927  0  0.493566  0  0.091324  0  3.973239  0  0  0.097719  0  3.993136  0  0  0.040885  0.087255  0  3.9597  0
C  C85  1  0.96708691  0.54351680  0.62158028  1  0  0.120826  0  3.720802  0  0.49321  0  0.091289  0  3.973117  0  0  0.09769  0  3.993013  0  0  0.040887  0.087222  0  3.959577  0
C  C86  1  0.77657691  0.05527465  0.10865322  1  0  0.134012  0  3.721272  0  0.450668  0  0.102479  0  3.977658  0  0  0.109601  0  3.995876  0  0  0.04751  0.097887  0  3.965186  0
C  C87  1  0.94471034  0.22343056  0.39134725  1  0  0.134148  0  3.721306  0  0.450399  0  0.102663  0  3.977718  0  0  0.10978  0  3.995929  0  0  0.047536  0.098071  0  3.965249  0
C  C88  1  0.22342278  0.94471468  0.89134373  1  0  0.134172  0  3.721144  0  0.450538  0  0.102704  0  3.977537  0  0  0.109823  0  3.995744  0  0  0.047551  0.098112  0  3.965067  0
C  C89  1  0.05527427  0.77658746  0.60865625  1  0  0.134152  0  3.72127  0  0.450371  0  0.102719  0  3.977673  0  0  0.109837  0  3.995881  0  0  0.047528  0.098119  0  3.965209  0
N  N90  1  0.66355350  0.07994087  0.15052278  1  0  -0.338575  0  3.249509  0  -1.287503  0  -0.263604  0  3.516636  0  0  -0.282866  0  3.536475  0  0  -0.331471  -0.250625  0  3.503077  0
N  N91  1  0.92004550  0.33643619  0.34946793  1  0  -0.338756  0  3.249645  0  -1.287398  0  -0.26381  0  3.516806  0  0  -0.283074  0  3.536649  0  0  -0.33151  -0.25083  0  3.503249  0
N  N92  1  0.33643490  0.92004858  0.84947008  1  0  -0.33876  0  3.249641  0  -1.287577  0  -0.263793  0  3.516744  0  0  -0.283056  0  3.536581  0  0  -0.331514  -0.250814  0  3.503188  0
N  N93  1  0.07995591  0.66357062  0.65052644  1  0  -0.33863  0  3.249684  0  -1.287256  0  -0.263674  0  3.516729  0  0  -0.28294  0  3.536575  0  0  -0.331445  -0.250694  0  3.503169  0
N  N94  1  0.59968877  0.64790959  0.82846603  1  0  -0.41823  0  3.20786  0  -1.097684  0  -0.34063  0  3.457067  0  0  -0.359303  0  3.467127  0  0  -0.483959  -0.327572  0  3.449866  0
N  N95  1  0.35207446  0.40030930  0.67153963  1  0  -0.41818  0  3.20761  0  -1.09728  0  -0.340544  0  3.456935  0  0  -0.359221  0  3.467004  0  0  -0.483933  -0.327484  0  3.44972  0
N  N96  1  0.40032075  0.35207833  0.17153856  1  0  -0.418222  0  3.207659  0  -1.097222  0  -0.340541  0  3.456806  0  0  -0.359217  0  3.466874  0  0  -0.483933  -0.327489  0  3.449604  0
N  N97  1  0.64791686  0.59969363  0.32846505  1  0  -0.418182  0  3.207843  0  -1.097106  0  -0.340653  0  3.457133  0  0  -0.359324  0  3.467186  0  0  -0.483999  -0.327612  0  3.449944  0
O  O98  1  0.40815902  0.74136040  0.63118630  1  0  -0.648947  0  2.043265  0  -1.219773  0  -0.583761  0  2.307499  0  0  -0.611044  0  2.296771  0  0  -0.337961  -0.564681  0  2.313772  0
O  O99  1  0.25862759  0.59183916  0.86880392  1  0  -0.648992  0  2.043366  0  -1.219625  0  -0.583816  0  2.307515  0  0  -0.6111  0  2.296792  0  0  -0.33794  -0.564734  0  2.31379  0
O  O100  1  0.59185431  0.25864984  0.36881021  1  0  -0.64887  0  2.043101  0  -1.220134  0  -0.583638  0  2.307342  0  0  -0.610907  0  2.296578  0  0  -0.33797  -0.564557  0  2.313611  0
O  O101  1  0.74137684  0.40814936  0.13118359  1  0  -0.648922  0  2.043162  0  -1.219669  0  -0.583761  0  2.307446  0  0  -0.611041  0  2.296715  0  0  -0.337932  -0.564679  0  2.313719  0
O  O102  1  0.64512822  0.87506393  0.72181242  1  0  -0.627448  0  1.918864  0  -1.202613  0  -0.577599  0  2.13226  0  0  -0.599554  0  2.12002  0  0  -0.324563  -0.562287  0  2.140398  0
O  O103  1  0.12494409  0.35486141  0.77818007  1  0  -0.627442  0  1.918919  0  -1.202864  0  -0.577637  0  2.13225  0  0  -0.59959  0  2.119978  0  0  -0.324536  -0.562323  0  2.140393  0
O  O104  1  0.35489353  0.12494267  0.27818903  1  0  -0.627401  0  1.919038  0  -1.202388  0  -0.577557  0  2.13244  0  0  -0.599523  0  2.120203  0  0  -0.324549  -0.562243  0  2.14058  0
O  O105  1  0.87506787  0.64513268  0.22181458  1  0  -0.627353  0  1.918869  0  -1.202624  0  -0.577492  0  2.132274  0  0  -0.599454  0  2.120037  0  0  -0.324549  -0.562177  0  2.140412  0
O  O106  1  0.77543188  0.05126543  0.65054557  1  0  -0.515922  0  2.108459  0  -1.194259  0  -0.471454  0  2.321217  0  0  -0.490641  0  2.312328  0  0  -0.363064  -0.457516  0  2.327166  0
O  O107  1  0.94878287  0.22454425  0.84947548  1  0  -0.516001  0  2.108037  0  -1.194025  0  -0.471577  0  2.320724  0  0  -0.490764  0  2.311832  0  0  -0.363285  -0.457645  0  2.326688  0
O  O108  1  0.22457188  0.94876728  0.34946956  1  0  -0.515789  0  2.108558  0  -1.194049  0  -0.47137  0  2.321313  0  0  -0.49056  0  2.312421  0  0  -0.363038  -0.457434  0  2.327266  0
O  O109  1  0.05125685  0.77543314  0.15053407  1  0  -0.515937  0  2.108137  0  -1.194094  0  -0.471457  0  2.320919  0  0  -0.490647  0  2.312028  0  0  -0.363173  -0.457519  0  2.326866  0
