# generated using pymatgen
data_Ag3H11C14(NO5)2
_symmetry_space_group_name_H-M   'P 1'
_cell_length_a   6.64491832
_cell_length_b   10.57935875
_cell_length_c   12.96015843
_cell_angle_alpha   66.67284678
_cell_angle_beta   82.64374285
_cell_angle_gamma   83.33090913
_symmetry_Int_Tables_number   1
_chemical_formula_structural   Ag3H11C14(NO5)2
_chemical_formula_sum   'Ag6 H22 C28 N4 O20'
_cell_volume   827.58214157
_cell_formula_units_Z   2
loop_
 _symmetry_equiv_pos_site_id
 _symmetry_equiv_pos_as_xyz
  1  'x, y, z'
loop_
 _atom_site_type_symbol
 _atom_site_label
 _atom_site_symmetry_multiplicity
 _atom_site_fract_x
 _atom_site_fract_y
 _atom_site_fract_z
 _atom_site_occupancy
 _atom_site_hle17_bader_spin_density
 _atom_site_hle17_ddec_charge
 _atom_site_hle17_ddec_spin_density
 _atom_site_hle17_ddec_sum_bond_order
 _atom_site_hle17_magmom
 _atom_site_hse06_10hf_bader_spin_density
 _atom_site_hse06_10hf_ddec_charge
 _atom_site_hse06_10hf_ddec_spin_density
 _atom_site_hse06_10hf_ddec_sum_bond_order
 _atom_site_hse06_10hf_magmom
 _atom_site_hse06_bader_spin_density
 _atom_site_hse06_ddec_charge
 _atom_site_hse06_ddec_spin_density
 _atom_site_hse06_ddec_sum_bond_order
 _atom_site_hse06_magmom
 _atom_site_pbe_bader_spin_density
 _atom_site_pbe_cm5_charge
 _atom_site_pbe_ddec_charge
 _atom_site_pbe_ddec_spin_density
 _atom_site_pbe_ddec_sum_bond_order
 _atom_site_pbe_magmom
Ag  Ag0  1  0.49998888  0.99999629  0.99999868  1  0  0.50356  0  1.477178  0  0  0.347868  0  1.931486  0  0  0.380121  0  1.883276  0  0  0.467431  0.323929  0  1.966286  0
Ag  Ag1  1  0.00000735  0.00000104  0.00000386  1  0  0.510505  0  1.458994  0  0  0.356393  0  1.909693  0  0  0.388446  0  1.861642  0  0  0.467313  0.332969  0  1.94468  0
Ag  Ag2  1  0.43129382  0.53694347  0.08991904  1  0  0.567619  0  1.501286  0  0  0.466764  0  1.970526  0  0  0.499963  0  1.902169  0  0  0.404294  0.443768  0  2.017342  0
Ag  Ag3  1  0.56870243  0.46305995  0.91007450  1  0  0.567719  0  1.50113  0  0  0.466871  0  1.970337  0  0  0.500071  0  1.901987  0  0  0.404329  0.443874  0  2.017152  0
Ag  Ag4  1  0.12408278  0.60403612  0.92264986  1  0  0.576246  0  1.43972  0  0  0.459702  0  1.9155  0  0  0.497524  0  1.844929  0  0  0.391856  0.43348  0  1.964177  0
Ag  Ag5  1  0.87591947  0.39596628  0.07735061  1  0  0.576279  0  1.439677  0  0  0.459754  0  1.915452  0  0  0.497571  0  1.844879  0  0  0.39187  0.433532  0  1.964127  0
H  H6  1  0.68417656  0.93313793  0.39947323  1  0  0.113452  0  0.937064  0  0  0.123266  0  0.995327  0  0  0.126425  0  0.994511  0  0  0.113516  0.120902  0  0.996281  0
H  H7  1  0.31581373  0.06686343  0.60052597  1  0  0.113405  0  0.937124  0  0  0.123241  0  0.995348  0  0  0.126398  0  0.994536  0  0  0.113515  0.120879  0  0.996298  0
H  H8  1  0.68576515  0.67592385  0.47914416  1  0  0.126038  0  0.934581  0  0  0.132365  0  0.998247  0  0  0.136682  0  0.994249  0  0  0.11777  0.129092  0  1.001281  0
H  H9  1  0.31422949  0.32407854  0.52085753  1  0  0.126098  0  0.934566  0  0  0.132393  0  0.998248  0  0  0.136701  0  0.994277  0  0  0.117807  0.129119  0  1.001279  0
H  H10  1  0.34485758  0.77561054  0.20348952  1  0  0.097196  0  0.966158  0  0  0.105665  0  1.030445  0  0  0.108512  0  1.027654  0  0  0.114096  0.103624  0  1.032416  0
H  H11  1  0.65514575  0.22438154  0.79651576  1  0  0.097185  0  0.966103  0  0  0.105598  0  1.030454  0  0  0.108446  0  1.027659  0  0  0.114082  0.103556  0  1.032425  0
H  H12  1  0.22974527  0.72224559  0.40527302  1  0  0.118074  0  0.943119  0  0  0.125509  0  1.00446  0  0  0.129186  0  1.002816  0  0  0.112967  0.122806  0  1.005893  0
H  H13  1  0.77026027  0.27775372  0.59473134  1  0  0.118035  0  0.943235  0  0  0.125544  0  1.004481  0  0  0.129221  0  1.002836  0  0  0.112969  0.122836  0  1.005912  0
H  H14  1  0.16928021  0.91510243  0.47344787  1  0  0.114224  0  0.94812  0  0  0.123308  0  1.007663  0  0  0.127275  0  1.004455  0  0  0.112586  0.120179  0  1.010381  0
H  H15  1  0.83072328  0.08490307  0.52654921  1  0  0.114242  0  0.948091  0  0  0.123345  0  1.007596  0  0  0.127314  0  1.00439  0  0  0.112599  0.120215  0  1.010318  0
H  H16  1  0.80734795  0.05598533  0.19891986  1  0  0.099524  0  0.962035  0  0  0.109268  0  1.023875  0  0  0.111955  0  1.021425  0  0  0.11565  0.107279  0  1.025726  0
H  H17  1  0.19264710  0.94401397  0.80108049  1  0  0.099517  0  0.962005  0  0  0.109216  0  1.023909  0  0  0.111906  0  1.021456  0  0  0.115637  0.107226  0  1.025761  0
H  H18  1  0.38546116  0.76740263  0.70437309  1  0  0.418629  0  0.886368  0  0  0.386373  0  0.953171  0  0  0.39748  0  0.937118  0  0  0.282823  0.378473  0  0.964564  0
H  H19  1  0.61453367  0.23259873  0.29562661  1  0  0.418725  0  0.886239  0  0  0.386464  0  0.953025  0  0  0.397567  0  0.936979  0  0  0.282899  0.378564  0  0.964416  0
H  H20  1  0.14765567  0.77910457  0.69671985  1  0  0.411551  0  0.896026  0  0  0.378534  0  0.963295  0  0  0.389789  0  0.947066  0  0  0.282204  0.37059  0  0.974755  0
H  H21  1  0.85233748  0.22089782  0.30328115  1  0  0.411565  0  0.896021  0  0  0.378587  0  0.963217  0  0  0.389842  0  0.946989  0  0  0.282247  0.370643  0  0.974677  0
H  H22  1  0.02315219  0.34021631  0.39253977  1  0  0.403729  0  0.893304  0  0  0.366832  0  0.977628  0  0  0.380842  0  0.964194  0  0  0.298911  0.357023  0  0.986831  0
H  H23  1  0.97685084  0.65977886  0.60746298  1  0  0.403761  0  0.893233  0  0  0.36688  0  0.977536  0  0  0.380891  0  0.964104  0  0  0.298952  0.357072  0  0.986742  0
H  H24  1  0.47596656  0.50867268  0.31724524  1  0  0.418322  0  0.886783  0  0  0.386482  0  0.952868  0  0  0.39722  0  0.937402  0  0  0.287768  0.378903  0  0.963721  0
H  H25  1  0.52403764  0.49132662  0.68275225  1  0  0.418338  0  0.886782  0  0  0.38648  0  0.95289  0  0  0.397219  0  0.937422  0  0  0.287764  0.378903  0  0.963739  0
H  H26  1  0.24059679  0.51531533  0.30684003  1  0  0.411283  0  0.893287  0  0  0.381135  0  0.955715  0  0  0.391419  0  0.940877  0  0  0.28893  0.373741  0  0.966428  0
H  H27  1  0.75940452  0.48468293  0.69315720  1  0  0.411262  0  0.893302  0  0  0.381133  0  0.955701  0  0  0.391417  0  0.940863  0  0  0.288925  0.373739  0  0.966414  0
C  C28  1  0.80587356  0.94391241  0.23474560  1  0  0.112382  0  3.69145  0  0  0.075357  0  3.943401  0  0  0.081631  0  3.963139  0  0  0.038922  0.071201  0  3.930558  0
C  C29  1  0.19412135  0.05608791  0.76525520  1  0  0.112439  0  3.691306  0  0  0.075436  0  3.943302  0  0  0.081702  0  3.963037  0  0  0.038943  0.071295  0  3.930442  0
C  C30  1  0.73819537  0.87476243  0.34735375  1  0  -0.083835  0  3.708146  0  0  -0.09962  0  3.967717  0  0  -0.105367  0  3.988839  0  0  -0.073207  -0.096166  0  3.953958  0
C  C31  1  0.26179979  0.12523583  0.65264692  1  0  -0.083777  0  3.708011  0  0  -0.099569  0  3.967611  0  0  -0.105312  0  3.988726  0  0  -0.073206  -0.09612  0  3.953851  0
C  C32  1  0.73949210  0.73157211  0.39119966  1  0  -0.009856  0  3.649248  0  0  -0.041735  0  3.906031  0  0  -0.037067  0  3.920835  0  0  -0.055517  -0.044325  0  3.896099  0
C  C33  1  0.26050127  0.26842821  0.60880200  1  0  -0.009919  0  3.64906  0  0  -0.04177  0  3.905872  0  0  -0.037103  0  3.920668  0  0  -0.055536  -0.044359  0  3.89594  0
C  C34  1  0.80990133  0.66146592  0.32057944  1  0  -0.096965  0  3.684621  0  0  -0.080436  0  3.920438  0  0  -0.088861  0  3.940799  0  0  0.004647  -0.075381  0  3.907539  0
C  C35  1  0.19010100  0.33853545  0.67942290  1  0  -0.09697  0  3.6846  0  0  -0.080438  0  3.920444  0  0  -0.088859  0  3.940797  0  0  0.004628  -0.075385  0  3.907546  0
C  C36  1  0.86933982  0.73799452  0.20642770  1  0  0.093966  0  3.678025  0  0  0.091587  0  3.907286  0  0  0.093363  0  3.927584  0  0  0.118837  0.089882  0  3.893991  0
C  C37  1  0.13066122  0.26200478  0.79357538  1  0  0.093919  0  3.678141  0  0  0.091527  0  3.907428  0  0  0.093301  0  3.927719  0  0  0.118812  0.089823  0  3.894137  0
C  C38  1  0.82241682  0.50633305  0.37006573  1  0  0.701239  0  3.801746  0  0  0.639287  0  4.112207  0  0  0.674791  0  4.100251  0  0  0.240648  0.61507  0  4.119882  0
C  C39  1  0.17758235  0.49366831  0.62994142  1  0  0.701329  0  3.801482  0  0  0.639363  0  4.111986  0  0  0.674874  0  4.100023  0  0  0.240714  0.615145  0  4.119663  0
C  C40  1  0.92377611  0.66576370  0.12541502  1  0  0.613833  0  3.920274  0  0  0.558888  0  4.208861  0  0  0.594006  0  4.205234  0  0  0.204045  0.534975  0  4.210366  0
C  C41  1  0.07622766  0.33423870  0.87458536  1  0  0.613704  0  3.920276  0  0  0.558788  0  4.20883  0  0  0.593905  0  4.205209  0  0  0.203971  0.534877  0  4.210332  0
C  C42  1  0.31841810  0.85784824  0.23516833  1  0  0.107408  0  3.697058  0  0  0.070198  0  3.950619  0  0  0.076619  0  3.969421  0  0  0.035518  0.065684  0  3.938871  0
C  C43  1  0.68158192  0.14214694  0.76483383  1  0  0.107308  0  3.697239  0  0  0.070179  0  3.950733  0  0  0.07659  0  3.969559  0  0  0.035467  0.065664  0  3.938977  0
C  C44  1  0.25240943  0.82829592  0.34795037  1  0  -0.078806  0  3.702503  0  0  -0.094681  0  3.962062  0  0  -0.099057  0  3.981171  0  0  -0.073649  -0.092215  0  3.94979  0
C  C45  1  0.74759490  0.17170132  0.65205164  1  0  -0.078698  0  3.702682  0  0  -0.094627  0  3.962194  0  0  -0.099  0  3.981303  0  0  -0.07358  -0.092154  0  3.949914  0
C  C46  1  0.22142884  0.93574584  0.38544862  1  0  -0.018765  0  3.661421  0  0  -0.047513  0  3.913517  0  0  -0.043974  0  3.928412  0  0  -0.059766  -0.049781  0  3.904134  0
C  C47  1  0.77857044  0.06425656  0.61454971  1  0  -0.018868  0  3.661558  0  0  -0.047629  0  3.913685  0  0  -0.044095  0  3.928583  0  0  -0.059856  -0.0499  0  3.904305  0
C  C48  1  0.25790027  0.07008223  0.30941690  1  0  -0.091035  0  3.684975  0  0  -0.075035  0  3.921685  0  0  -0.082005  0  3.941471  0  0  0.003649  -0.070975  0  3.909176  0
C  C49  1  0.74210217  0.92991914  0.69058080  1  0  -0.09109  0  3.684985  0  0  -0.075101  0  3.921757  0  0  -0.082062  0  3.941532  0  0  0.003619  -0.071043  0  3.909249  0
C  C50  1  0.32577951  0.09247998  0.19677150  1  0  0.092258  0  3.674715  0  0  0.090164  0  3.905181  0  0  0.091007  0  3.925975  0  0  0.117445  0.08916  0  3.891508  0
C  C51  1  0.67422465  0.90751932  0.80322754  1  0  0.092418  0  3.674676  0  0  0.090273  0  3.905203  0  0  0.091131  0  3.925973  0  0  0.117476  0.089263  0  3.891531  0
C  C52  1  0.23333903  0.18146469  0.35607727  1  0  0.684681  0  3.870815  0  0  0.62274  0  4.183579  0  0  0.657999  0  4.173248  0  0  0.224122  0.598863  0  4.189631  0
C  C53  1  0.76666364  0.81853462  0.64392109  1  0  0.684682  0  3.870776  0  0  0.622713  0  4.183586  0  0  0.657971  0  4.173252  0  0  0.224106  0.598836  0  4.189638  0
C  C54  1  0.37321027  0.23528146  0.11309867  1  0  0.613849  0  3.920385  0  0  0.558589  0  4.208485  0  0  0.593964  0  4.205393  0  0  0.203767  0.534673  0  4.209397  0
C  C55  1  0.62679695  0.76471887  0.88689445  1  0  0.613585  0  3.920557  0  0  0.558313  0  4.208685  0  0  0.593678  0  4.205589  0  0  0.203634  0.534399  0  4.209592  0
N  N56  1  0.86940837  0.87688703  0.16572787  1  0  -0.317861  0  3.393605  0  0  -0.226556  0  3.661107  0  0  -0.246332  0  3.679656  0  0  -0.345874  -0.212679  0  3.648439  0
N  N57  1  0.13058806  0.12311330  0.83427284  1  0  -0.317859  0  3.393608  0  0  -0.22657  0  3.66116  0  0  -0.246333  0  3.679696  0  0  -0.345871  -0.21271  0  3.648508  0
N  N58  1  0.35582083  0.98651409  0.16173329  1  0  -0.318544  0  3.395824  0  0  -0.227061  0  3.663808  0  0  -0.246428  0  3.682497  0  0  -0.348494  -0.21346  0  3.651041  0
N  N59  1  0.64418053  0.01348315  0.83826658  1  0  -0.318457  0  3.396105  0  0  -0.226956  0  3.664032  0  0  -0.246324  0  3.682723  0  0  -0.348451  -0.213348  0  3.651255  0
O  O60  1  0.02350545  0.72808404  0.03155784  1  0  -0.598543  0  2.103059  0  0  -0.519105  0  2.380024  0  0  -0.552024  0  2.367309  0  0  -0.31475  -0.4961  0  2.387803  0
O  O61  1  0.97649697  0.27191630  0.96844559  1  0  -0.598525  0  2.103009  0  0  -0.51907  0  2.379918  0  0  -0.551993  0  2.367211  0  0  -0.314701  -0.496061  0  2.387693  0
O  O62  1  0.86048294  0.54584701  0.16174121  1  0  -0.592965  0  2.140166  0  0  -0.520053  0  2.411774  0  0  -0.552821  0  2.401492  0  0  -0.304014  -0.497082  0  2.418176  0
O  O63  1  0.13951023  0.45415538  0.83825902  1  0  -0.592869  0  2.140245  0  0  -0.51998  0  2.411875  0  0  -0.552747  0  2.401593  0  0  -0.303982  -0.497012  0  2.418278  0
O  O64  1  0.00995759  0.44968122  0.38412949  1  0  -0.591047  0  2.132877  0  0  -0.52799  0  2.359936  0  0  -0.554285  0  2.346777  0  0  -0.317993  -0.509584  0  2.368794  0
O  O65  1  0.99005282  0.55031603  0.61587138  1  0  -0.590919  0  2.13288  0  0  -0.527959  0  2.360032  0  0  -0.554259  0  2.346874  0  0  -0.317999  -0.509554  0  2.368893  0
O  O66  1  0.66928889  0.43987076  0.40308925  1  0  -0.55363  0  1.952345  0  0  -0.501811  0  2.166233  0  0  -0.523695  0  2.155773  0  0  -0.276992  -0.486423  0  2.172886  0
O  O67  1  0.33072917  0.56013889  0.59691181  1  0  -0.55388  0  1.952058  0  0  -0.501938  0  2.165853  0  0  -0.523823  0  2.155384  0  0  -0.27705  -0.486553  0  2.172514  0
O  O68  1  0.38586956  0.22165842  0.37785473  1  0  -0.58674  0  1.954584  0  0  -0.533343  0  2.175941  0  0  -0.557882  0  2.166566  0  0  -0.294157  -0.515721  0  2.181609  0
O  O69  1  0.61412410  0.77833984  0.62214526  1  0  -0.586765  0  1.954371  0  0  -0.533362  0  2.175764  0  0  -0.557904  0  2.166391  0  0  -0.294194  -0.515738  0  2.181433  0
O  O70  1  0.04650986  0.21791033  0.38146307  1  0  -0.624397  0  2.067098  0  0  -0.554253  0  2.289355  0  0  -0.582674  0  2.278691  0  0  -0.305604  -0.534153  0  2.29621  0
O  O71  1  0.95348663  0.78209000  0.61853532  1  0  -0.624367  0  2.067156  0  0  -0.554197  0  2.289435  0  0  -0.58261  0  2.278763  0  0  -0.305561  -0.534094  0  2.296291  0
O  O72  1  0.29683055  0.33256054  0.14351347  1  0  -0.616927  0  2.167486  0  0  -0.544267  0  2.446351  0  0  -0.577073  0  2.434688  0  0  -0.308236  -0.521086  0  2.453129  0
O  O73  1  0.70317757  0.66744599  0.85647606  1  0  -0.616879  0  2.167829  0  0  -0.544124  0  2.446528  0  0  -0.576985  0  2.435007  0  0  -0.308128  -0.520945  0  2.453304  0
O  O74  1  0.48533146  0.24672610  0.02342843  1  0  -0.584626  0  2.101786  0  0  -0.507963  0  2.376364  0  0  -0.540276  0  2.364277  0  0  -0.310806  -0.485453  0  2.383471  0
O  O75  1  0.51467225  0.75326495  0.97656712  1  0  -0.58456  0  2.101862  0  0  -0.507866  0  2.376438  0  0  -0.540177  0  2.364356  0  0  -0.310731  -0.485355  0  2.383544  0
O  O76  1  0.36777736  0.55578636  0.26542917  1  0  -0.809422  0  1.910573  0  0  -0.741205  0  2.107803  0  0  -0.765802  0  2.075251  0  0  -0.594214  -0.72361  0  2.130565  0
O  O77  1  0.63222227  0.44421294  0.73456936  1  0  -0.809447  0  1.910589  0  0  -0.741236  0  2.107841  0  0  -0.76583  0  2.075285  0  0  -0.594245  -0.723639  0  2.130599  0
O  O78  1  0.25158762  0.77381057  0.74707576  1  0  -0.828567  0  1.886907  0  0  -0.7616  0  2.088785  0  0  -0.786368  0  2.054259  0  0  -0.599091  -0.743707  0  2.113134  0
O  O79  1  0.74840850  0.22619285  0.25292320  1  0  -0.828698  0  1.886778  0  0  -0.761754  0  2.08872  0  0  -0.786524  0  2.054195  0  0  -0.599224  -0.743852  0  2.113051  0
