# generated using pymatgen
data_ZnH21C23(NO2)2
_symmetry_space_group_name_H-M   'P 1'
_cell_length_a   9.59170005
_cell_length_b   10.72788939
_cell_length_c   11.06855657
_cell_angle_alpha   96.97919960
_cell_angle_beta   104.50452818
_cell_angle_gamma   115.82561631
_symmetry_Int_Tables_number   1
_chemical_formula_structural   ZnH21C23(NO2)2
_chemical_formula_sum   'Zn2 H42 C46 N4 O8'
_cell_volume   957.12678941
_cell_formula_units_Z   2
loop_
 _symmetry_equiv_pos_site_id
 _symmetry_equiv_pos_as_xyz
  1  'x, y, z'
loop_
 _atom_site_type_symbol
 _atom_site_label
 _atom_site_symmetry_multiplicity
 _atom_site_fract_x
 _atom_site_fract_y
 _atom_site_fract_z
 _atom_site_occupancy
 _atom_site_hle17_bader_spin_density
 _atom_site_hle17_ddec_charge
 _atom_site_hle17_ddec_spin_density
 _atom_site_hle17_ddec_sum_bond_order
 _atom_site_hle17_magmom
 _atom_site_hse06_10hf_bader_spin_density
 _atom_site_hse06_10hf_ddec_charge
 _atom_site_hse06_10hf_ddec_spin_density
 _atom_site_hse06_10hf_ddec_sum_bond_order
 _atom_site_hse06_10hf_magmom
 _atom_site_hse06_bader_spin_density
 _atom_site_hse06_ddec_charge
 _atom_site_hse06_ddec_spin_density
 _atom_site_hse06_ddec_sum_bond_order
 _atom_site_hse06_magmom
 _atom_site_pbe_bader_spin_density
 _atom_site_pbe_cm5_charge
 _atom_site_pbe_ddec_charge
 _atom_site_pbe_ddec_spin_density
 _atom_site_pbe_ddec_sum_bond_order
 _atom_site_pbe_magmom
Zn  Zn0  1  0.46979702  0.45173274  0.11959899  1  0  1.071711  0  1.820939  0  0  0.8954  0  2.295842  0  0  0.947955  0  2.230021  0  0  0.675269  0.858829  0  2.340984  0
Zn  Zn1  1  0.53019725  0.54826464  0.88040144  1  0  1.071739  0  1.820856  0  0  0.895407  0  2.295752  0  0  0.947962  0  2.229931  0  0  0.675281  0.858837  0  2.340893  0
H  H2  1  0.02109554  0.21121511  0.13676853  1  0  0.10542  0  0.965217  0  0  0.125507  0  1.027861  0  0  0.12654  0  1.028886  0  0  0.088162  0.124881  0  1.026837  0
H  H3  1  0.97890635  0.78878438  0.86322926  1  0  0.105402  0  0.965277  0  0  0.125459  0  1.027944  0  0  0.126499  0  1.028963  0  0  0.088131  0.124833  0  1.026919  0
H  H4  1  0.92929991  0.30815878  0.19050841  1  0  0.10278  0  0.945653  0  0  0.127522  0  1.00059  0  0  0.128454  0  1.001461  0  0  0.09114  0.126843  0  0.999966  0
H  H5  1  0.07070533  0.69184285  0.80948945  1  0  0.102774  0  0.945673  0  0  0.127524  0  1.000592  0  0  0.128457  0  1.001463  0  0  0.091152  0.12684  0  0.999974  0
H  H6  1  0.98617716  0.20552242  0.28691450  1  0  0.088035  0  0.97718  0  0  0.108161  0  1.042107  0  0  0.109212  0  1.042914  0  0  0.082497  0.107361  0  1.041696  0
H  H7  1  0.01382592  0.79447922  0.71308289  1  0  0.088051  0  0.977188  0  0  0.108168  0  1.042124  0  0  0.10922  0  1.042931  0  0  0.08249  0.107367  0  1.041713  0
H  H8  1  0.22492971  0.47263793  0.22258263  1  0  0.108552  0  0.954536  0  0  0.123828  0  1.015381  0  0  0.126009  0  1.014013  0  0  0.1059  0.122209  0  1.016577  0
H  H9  1  0.77507647  0.52736154  0.77741427  1  0  0.108545  0  0.954562  0  0  0.123817  0  1.015413  0  0  0.125998  0  1.014045  0  0  0.105893  0.122197  0  1.016611  0
H  H10  1  0.19314219  0.47541599  0.37321529  1  0  0.086785  0  0.947396  0  0  0.100776  0  1.011377  0  0  0.101896  0  1.012597  0  0  0.097751  0.100173  0  1.010521  0
H  H11  1  0.80686137  0.52458457  0.62678207  1  0  0.086783  0  0.947434  0  0  0.10078  0  1.011424  0  0  0.101901  0  1.012646  0  0  0.097754  0.100177  0  1.010567  0
H  H12  1  0.71865417  0.35313754  0.26281260  1  0  0.115285  0  0.971143  0  0  0.124446  0  1.031672  0  0  0.128006  0  1.02925  0  0  0.104183  0.121786  0  1.033426  0
H  H13  1  0.28134882  0.64686196  0.73718904  1  0  0.115202  0  0.971243  0  0  0.124408  0  1.031718  0  0  0.127966  0  1.029296  0  0  0.104166  0.121747  0  1.03347  0
H  H14  1  0.83872005  0.24103830  0.41375835  1  0  0.081578  0  0.972677  0  0  0.093745  0  1.033239  0  0  0.095875  0  1.033517  0  0  0.093809  0.09177  0  1.034054  0
H  H15  1  0.16128522  0.75896336  0.58624493  1  0  0.081574  0  0.972668  0  0  0.093735  0  1.033243  0  0  0.09587  0  1.033502  0  0  0.093812  0.091747  0  1.034074  0
H  H16  1  0.72269394  0.15616853  0.58255235  1  0  0.090785  0  0.964071  0  0  0.10177  0  1.024479  0  0  0.103695  0  1.025289  0  0  0.098565  0.100324  0  1.024091  0
H  H17  1  0.27731074  0.84383206  0.41745159  1  0  0.090816  0  0.96407  0  0  0.101788  0  1.024494  0  0  0.103709  0  1.025315  0  0  0.09856  0.100346  0  1.024098  0
H  H18  1  0.48786339  0.18550230  0.61064120  1  0  0.109628  0  0.971311  0  0  0.1191  0  1.034818  0  0  0.121924  0  1.033744  0  0  0.105727  0.117074  0  1.035821  0
H  H19  1  0.51213972  0.81449936  0.38936072  1  0  0.109621  0  0.971253  0  0  0.119074  0  1.034794  0  0  0.121899  0  1.033718  0  0  0.105698  0.117047  0  1.035799  0
H  H20  1  0.19466669  0.36276608  0.51926226  1  0  0.086842  0  0.926209  0  0  0.104696  0  0.985661  0  0  0.105173  0  0.985849  0  0  0.117036  0.103875  0  0.986307  0
H  H21  1  0.80533868  0.63723771  0.48073768  1  0  0.08683  0  0.92616  0  0  0.104703  0  0.985601  0  0  0.105182  0  0.985785  0  0  0.117059  0.103884  0  0.986247  0
H  H22  1  0.33943472  0.33238737  0.62607384  1  0  0.106122  0  0.953781  0  0  0.116849  0  1.023738  0  0  0.118536  0  1.022376  0  0  0.11697  0.11516  0  1.025053  0
H  H23  1  0.66056838  0.66761428  0.37392717  1  0  0.106106  0  0.953734  0  0  0.116842  0  1.023696  0  0  0.118487  0  1.022387  0  0  0.116945  0.115153  0  1.025012  0
H  H24  1  0.15074029  0.03987107  0.34341054  1  0  0.090967  0  0.987392  0  0  0.097655  0  1.056594  0  0  0.099916  0  1.057029  0  0  0.097522  0.095946  0  1.056477  0
H  H25  1  0.84925957  0.96013057  0.65658706  1  0  0.091009  0  0.987379  0  0  0.097665  0  1.056612  0  0  0.099926  0  1.057048  0  0  0.097539  0.095956  0  1.056495  0
H  H26  1  0.06300877  0.20451983  0.67454449  1  0  0.098276  0  0.962179  0  0  0.110438  0  1.02211  0  0  0.112524  0  1.022156  0  0  0.101228  0.108758  0  1.022352  0
H  H27  1  0.93699216  0.79548180  0.32545154  1  0  0.098282  0  0.962152  0  0  0.11043  0  1.022091  0  0  0.112514  0  1.022141  0  0  0.101205  0.108749  0  1.022335  0
H  H28  1  0.35643797  0.06341475  0.73142567  1  0  0.108427  0  0.929016  0  0  0.123853  0  0.989164  0  0  0.125837  0  0.98871  0  0  0.100266  0.122146  0  0.989657  0
H  H29  1  0.64356263  0.93659012  0.26857427  1  0  0.108411  0  0.928944  0  0  0.123812  0  0.98913  0  0  0.125798  0  0.988673  0  0  0.100249  0.122105  0  0.989626  0
H  H30  1  0.36262686  0.02172861  0.88258909  1  0  0.113848  0  0.94065  0  0  0.129305  0  0.998399  0  0  0.131339  0  0.998118  0  0  0.101792  0.127439  0  0.999003  0
H  H31  1  0.63736858  0.97826123  0.11740801  1  0  0.113838  0  0.940818  0  0  0.129315  0  0.998522  0  0  0.131337  0  0.998256  0  0  0.1018  0.127461  0  0.999114  0
H  H32  1  0.52829840  0.90336293  0.88143121  1  0  0.09715  0  0.974802  0  0  0.106722  0  1.039726  0  0  0.109727  0  1.038536  0  0  0.097549  0.104617  0  1.040564  0
H  H33  1  0.47170291  0.09663550  0.11856904  1  0  0.097133  0  0.97477  0  0  0.106715  0  1.039684  0  0  0.109721  0  1.038494  0  0  0.097543  0.10461  0  1.040526  0
H  H34  1  0.79794918  0.92167858  0.90357048  1  0  0.091432  0  0.950953  0  0  0.102921  0  1.010708  0  0  0.105813  0  1.00939  0  0  0.098204  0.100908  0  1.011638  0
H  H35  1  0.20205390  0.07832306  0.09642782  1  0  0.091449  0  0.950964  0  0  0.102932  0  1.010725  0  0  0.105822  0  1.009408  0  0  0.09819  0.100918  0  1.011656  0
H  H36  1  0.02707069  0.14483167  0.89103906  1  0  0.095848  0  0.951704  0  0  0.108956  0  1.008454  0  0  0.111758  0  1.007357  0  0  0.099566  0.106767  0  1.009767  0
H  H37  1  0.97292821  0.85517212  0.10895858  1  0  0.095834  0  0.951685  0  0  0.108934  0  1.008448  0  0  0.111738  0  1.00735  0  0  0.099549  0.10675  0  1.009748  0
H  H38  1  0.70925275  0.33336232  0.83839795  1  0  0.097466  0  0.997681  0  0  0.105846  0  1.065195  0  0  0.108939  0  1.064178  0  0  0.09581  0.103803  0  1.065832  0
H  H39  1  0.29074057  0.66663722  0.16160343  1  0  0.097482  0  0.997699  0  0  0.105887  0  1.065191  0  0  0.108981  0  1.064174  0  0  0.095815  0.103843  0  1.065827  0
H  H40  1  0.98436348  0.38812809  0.74391607  1  0  0.107519  0  0.929535  0  0  0.122925  0  0.99024  0  0  0.125149  0  0.989151  0  0  0.100824  0.121582  0  0.990671  0
H  H41  1  0.01562887  0.61187359  0.25608354  1  0  0.10754  0  0.929558  0  0  0.122948  0  0.990265  0  0  0.125171  0  0.989175  0  0  0.100804  0.121604  0  0.990694  0
H  H42  1  0.00103894  0.48243485  0.89275132  1  0  0.117857  0  0.926877  0  0  0.136435  0  0.982639  0  0  0.13803  0  0.982822  0  0  0.10918  0.135301  0  0.982689  0
H  H43  1  0.99895927  0.51756574  0.10724942  1  0  0.117846  0  0.926847  0  0  0.136437  0  0.982623  0  0  0.138028  0  0.982811  0  0  0.109186  0.135288  0  0.982692  0
C  C44  1  0.02261409  0.27492308  0.22286293  1  0  -0.266179  0  3.668147  0  0  -0.340389  0  3.907488  0  0  -0.342099  0  3.917232  0  0  -0.243218  -0.338808  0  3.900208  0
C  C45  1  0.97738947  0.72507748  0.77713443  1  0  -0.266203  0  3.668271  0  0  -0.340384  0  3.90763  0  0  -0.342103  0  3.917369  0  0  -0.243223  -0.338798  0  3.900352  0
C  C46  1  0.19329713  0.40746751  0.29025709  1  0  -0.181142  0  3.730132  0  0  -0.219556  0  3.987988  0  0  -0.222813  0  3.998054  0  0  -0.157856  -0.217409  0  3.980859  0
C  C47  1  0.80670643  0.59253305  0.70974119  1  0  -0.181144  0  3.730185  0  0  -0.219566  0  3.988034  0  0  -0.222825  0  3.998103  0  0  -0.15784  -0.21742  0  3.980906  0
C  C48  1  0.32519141  0.36881872  0.33484799  1  0  0.377436  0  3.635883  0  0  0.34375  0  3.912477  0  0  0.363582  0  3.923783  0  0  0.241918  0.330818  0  3.904487  0
C  C49  1  0.67481110  0.63118186  0.66515277  1  0  0.377494  0  3.635769  0  0  0.343814  0  3.912366  0  0  0.363648  0  3.923666  0  0  0.24194  0.330883  0  3.904376  0
C  C50  1  0.53381595  0.32808798  0.35082147  1  0  0.149778  0  3.818391  0  0  0.144058  0  4.071247  0  0  0.147565  0  4.095028  0  0  0.084192  0.141573  0  4.054779  0
C  C51  1  0.46618896  0.67191690  0.64918120  1  0  0.149835  0  3.818363  0  0  0.14413  0  4.071223  0  0  0.147638  0  4.095003  0  0  0.084199  0.141644  0  4.05475  0
C  C52  1  0.66882251  0.31553250  0.33742133  1  0  -0.143365  0  3.746013  0  0  -0.161197  0  3.997316  0  0  -0.163404  0  4.016318  0  0  -0.093889  -0.159254  0  3.98379  0
C  C53  1  0.33118215  0.68446807  0.66257898  1  0  -0.143339  0  3.745926  0  0  -0.161222  0  3.997243  0  0  -0.163426  0  4.016243  0  0  -0.093892  -0.159274  0  3.983711  0
C  C54  1  0.73474646  0.25384773  0.42260322  1  0  -0.090174  0  3.804946  0  0  -0.105557  0  4.058574  0  0  -0.10853  0  4.081768  0  0  -0.103142  -0.103438  0  4.043035  0
C  C55  1  0.26525773  0.74615392  0.57739893  1  0  -0.090114  0  3.804771  0  0  -0.105492  0  4.058399  0  0  -0.108462  0  4.081592  0  0  -0.10312  -0.103368  0  4.042869  0
C  C56  1  0.66925862  0.20564362  0.51892536  1  0  -0.073935  0  3.787598  0  0  -0.089278  0  4.040416  0  0  -0.091166  0  4.06338  0  0  -0.096946  -0.088038  0  4.024786  0
C  C57  1  0.33074570  0.79436019  0.48107797  1  0  -0.074021  0  3.787564  0  0  -0.089361  0  4.040399  0  0  -0.091249  0  4.063361  0  0  -0.096984  -0.088119  0  4.024768  0
C  C58  1  0.53685350  0.21986330  0.53483072  1  0  -0.136399  0  3.743467  0  0  -0.155188  0  3.996534  0  0  -0.158092  0  4.016708  0  0  -0.092601  -0.153222  0  3.983093  0
C  C59  1  0.46315010  0.78013729  0.46517208  1  0  -0.136321  0  3.743385  0  0  -0.155107  0  3.996454  0  0  -0.158009  0  4.016628  0  0  -0.092548  -0.15314  0  3.983011  0
C  C60  1  0.47174862  0.28215282  0.44968911  1  0  0.097762  0  3.790442  0  0  0.0864  0  4.038204  0  0  0.090004  0  4.060833  0  0  0.09049  0.083899  0  4.023197  0
C  C61  1  0.52825677  0.71785099  0.55031445  1  0  0.097721  0  3.790657  0  0  0.086384  0  4.03836  0  0  0.089985  0  4.060992  0  0  0.090563  0.083889  0  4.023342  0
C  C62  1  0.25018456  0.29234419  0.52733205  1  0  -0.038619  0  3.647073  0  0  -0.104084  0  3.894147  0  0  -0.099647  0  3.904328  0  0  -0.047733  -0.106465  0  3.887096  0
C  C63  1  0.74981914  0.70765853  0.47266831  1  0  -0.038567  0  3.647049  0  0  -0.104096  0  3.894127  0  0  -0.099639  0  3.904333  0  0  -0.047713  -0.106479  0  3.88708  0
C  C64  1  0.12096356  0.13989332  0.50994865  1  0  0.063858  0  3.755082  0  0  0.081674  0  3.997036  0  0  0.081234  0  4.020519  0  0  -0.016016  0.08174  0  3.981405  0
C  C65  1  0.87903402  0.86010617  0.49004822  1  0  0.063776  0  3.755217  0  0  0.08167  0  3.997071  0  0  0.081233  0  4.020542  0  0  -0.016034  0.081735  0  3.981439  0
C  C66  1  0.08510882  0.02351776  0.41246079  1  0  -0.125765  0  3.777954  0  0  -0.146041  0  4.027311  0  0  -0.148561  0  4.049119  0  0  -0.097761  -0.144347  0  4.012948  0
C  C67  1  0.91489200  0.97648174  0.58753767  1  0  -0.125732  0  3.777971  0  0  -0.146  0  4.027308  0  0  -0.14852  0  4.049116  0  0  -0.097758  -0.144309  0  4.012945  0
C  C68  1  0.03482645  0.11467812  0.59737351  1  0  -0.11511  0  3.741312  0  0  -0.131342  0  3.98494  0  0  -0.134101  0  4.007023  0  0  -0.094047  -0.129249  0  3.970109  0
C  C69  1  0.96516612  0.88531818  0.40262372  1  0  -0.115067  0  3.741295  0  0  -0.131305  0  3.984893  0  0  -0.134064  0  4.006972  0  0  -0.094018  -0.129212  0  3.970065  0
C  C70  1  0.43951052  0.24424197  0.88963645  1  0  0.727816  0  3.810238  0  0  0.679074  0  4.105021  0  0  0.713789  0  4.097111  0  0  0.219838  0.655057  0  4.111076  0
C  C71  1  0.56048139  0.75575115  0.11036931  1  0  0.727586  0  3.810445  0  0  0.678958  0  4.105019  0  0  0.713696  0  4.097077  0  0  0.219768  0.654941  0  4.111072  0
C  C72  1  0.42832815  0.10163731  0.83569931  1  0  -0.308663  0  3.680084  0  0  -0.352647  0  3.919675  0  0  -0.358422  0  3.926212  0  0  -0.158861  -0.348416  0  3.915494  0
C  C73  1  0.57166503  0.89836006  0.16429908  1  0  -0.308593  0  3.680294  0  0  -0.352604  0  3.919801  0  0  -0.358375  0  3.926334  0  0  -0.158868  -0.348384  0  3.91562  0
C  C74  1  0.59793774  0.11654394  0.85531492  1  0  0.124149  0  3.741962  0  0  0.148687  0  3.973745  0  0  0.149496  0  3.9987  0  0  -0.009196  0.148509  0  3.956139  0
C  C75  1  0.40205987  0.88345558  0.14468647  1  0  0.124202  0  3.741967  0  0  0.148728  0  3.973759  0  0  0.149535  0  3.998712  0  0  -0.009174  0.148546  0  3.95616  0
C  C76  1  0.62575816  0.00171944  0.87500247  1  0  -0.129626  0  3.74813  0  0  -0.1527  0  3.9969  0  0  -0.155853  0  4.018726  0  0  -0.098599  -0.150281  0  3.981372  0
C  C77  1  0.37424159  0.99828006  0.12499758  1  0  -0.129608  0  3.748056  0  0  -0.152688  0  3.996829  0  0  -0.155842  0  4.018655  0  0  -0.098598  -0.150267  0  3.981301  0
C  C78  1  0.77917677  0.01232166  0.88713289  1  0  -0.067075  0  3.792778  0  0  -0.080241  0  4.048681  0  0  -0.080894  0  4.068512  0  0  -0.097289  -0.079741  0  4.034626  0
C  C79  1  0.22082297  0.98767783  0.11286535  1  0  -0.067087  0  3.792703  0  0  -0.080241  0  4.048597  0  0  -0.080892  0  4.068427  0  0  -0.097275  -0.079741  0  4.034544  0
C  C80  1  0.90725313  0.13738353  0.88013692  1  0  -0.14429  0  3.767022  0  0  -0.165273  0  4.01576  0  0  -0.168112  0  4.035915  0  0  -0.100659  -0.162993  0  4.001526  0
C  C81  1  0.09274399  0.86261706  0.11986178  1  0  -0.144262  0  3.767007  0  0  -0.165249  0  4.015744  0  0  -0.168091  0  4.035895  0  0  -0.10064  -0.162974  0  4.001509  0
C  C82  1  0.88251501  0.25431405  0.86269485  1  0  0.121994  0  3.768917  0  0  0.141772  0  4.008408  0  0  0.142887  0  4.032823  0  0  -0.014547  0.141322  0  3.991088  0
C  C83  1  0.11748104  0.74568654  0.13730362  1  0  0.121969  0  3.769062  0  0  0.141776  0  4.008544  0  0  0.142896  0  4.032952  0  0  -0.014538  0.141343  0  3.991196  0
C  C84  1  0.72841682  0.24235421  0.85155522  1  0  -0.194057  0  3.714569  0  0  -0.219118  0  3.955651  0  0  -0.224066  0  3.978229  0  0  -0.104011  -0.215515  0  3.939752  0
C  C85  1  0.27157803  0.75764423  0.14844365  1  0  -0.194102  0  3.714531  0  0  -0.219203  0  3.955615  0  0  -0.22415  0  3.978187  0  0  -0.10403  -0.215601  0  3.939709  0
C  C86  1  0.01056721  0.39054417  0.84712940  1  0  -0.315943  0  3.700429  0  0  -0.360333  0  3.94481  0  0  -0.365844  0  3.951504  0  0  -0.160652  -0.3565  0  3.939763  0
C  C87  1  0.98943326  0.60945855  0.15286936  1  0  -0.315963  0  3.700544  0  0  -0.360405  0  3.944921  0  0  -0.365908  0  3.951611  0  0  -0.160651  -0.356563  0  3.939865  0
C  C88  1  0.18949918  0.42750333  0.90500670  1  0  0.719371  0  3.828957  0  0  0.667818  0  4.130614  0  0  0.702558  0  4.1224  0  0  0.216254  0.644203  0  4.135389  0
C  C89  1  0.81050078  0.57250045  0.09498755  1  0  0.71938  0  3.82906  0  0  0.667883  0  4.130646  0  0  0.702623  0  4.122428  0  0  0.21624  0.644267  0  4.13542  0
N  N90  1  0.43905226  0.38082178  0.28038242  1  0  -0.472571  0  3.126129  0  0  -0.406205  0  3.420823  0  0  -0.42876  0  3.429494  0  0  -0.346815  -0.39054  0  3.414308  0
N  N91  1  0.56095024  0.61917879  0.71961744  1  0  -0.472683  0  3.126082  0  0  -0.406371  0  3.420855  0  0  -0.428926  0  3.429524  0  0  -0.346891  -0.390707  0  3.414343  0
N  N92  1  0.34152192  0.31072878  0.43780386  1  0  -0.161071  0  3.482471  0  0  -0.077426  0  3.705367  0  0  -0.094799  0  3.728447  0  0  -0.237871  -0.065584  0  3.68956  0
N  N93  1  0.65848345  0.68927501  0.56219698  1  0  -0.161005  0  3.482498  0  0  -0.077329  0  3.705364  0  0  -0.094699  0  3.728433  0  0  -0.237872  -0.065492  0  3.689557  0
O  O94  1  0.42771001  0.26617512  0.00110670  1  0  -0.640304  0  2.057283  0  0  -0.571513  0  2.322289  0  0  -0.600466  0  2.309155  0  0  -0.312545  -0.552154  0  2.331999  0
O  O95  1  0.57229176  0.73382017  0.99890865  1  0  -0.64014  0  2.057473  0  0  -0.571302  0  2.322306  0  0  -0.600264  0  2.309159  0  0  -0.312385  -0.551945  0  2.332013  0
O  O96  1  0.46622396  0.33312114  0.82028962  1  0  -0.658325  0  2.084089  0  0  -0.587803  0  2.350508  0  0  -0.616351  0  2.337464  0  0  -0.318088  -0.568324  0  2.359555  0
O  O97  1  0.53376465  0.66686988  0.17972241  1  0  -0.658347  0  2.084109  0  0  -0.587888  0  2.350505  0  0  -0.616446  0  2.337446  0  0  -0.318107  -0.568407  0  2.359552  0
O  O98  1  0.23655735  0.41354619  0.01817594  1  0  -0.643436  0  2.074958  0  0  -0.572845  0  2.342318  0  0  -0.602038  0  2.330035  0  0  -0.313377  -0.552706  0  2.35013  0
O  O99  1  0.76343484  0.58644363  0.98181775  1  0  -0.643476  0  2.075086  0  0  -0.572898  0  2.342408  0  0  -0.602106  0  2.330159  0  0  -0.313362  -0.55276  0  2.350221  0
O  O100  1  0.27875879  0.47337876  0.83574943  1  0  -0.648414  0  2.074794  0  0  -0.581357  0  2.342744  0  0  -0.609397  0  2.329035  0  0  -0.315943  -0.561693  0  2.35134  0
O  O101  1  0.72123328  0.52661858  0.16424420  1  0  -0.648468  0  2.07483  0  0  -0.581409  0  2.342752  0  0  -0.609449  0  2.32904  0  0  -0.315986  -0.561744  0  2.351351  0
