# generated using pymatgen
data_AgH7C6IN
_symmetry_space_group_name_H-M   'P 1'
_cell_length_a   4.68616464
_cell_length_b   9.00658711
_cell_length_c   18.54593806
_cell_angle_alpha   86.37404666
_cell_angle_beta   89.99815162
_cell_angle_gamma   89.99779883
_symmetry_Int_Tables_number   1
_chemical_formula_structural   AgH7C6IN
_chemical_formula_sum   'Ag4 H28 C24 I4 N4'
_cell_volume   781.18941943
_cell_formula_units_Z   4
loop_
 _symmetry_equiv_pos_site_id
 _symmetry_equiv_pos_as_xyz
  1  'x, y, z'
loop_
 _atom_site_type_symbol
 _atom_site_label
 _atom_site_symmetry_multiplicity
 _atom_site_fract_x
 _atom_site_fract_y
 _atom_site_fract_z
 _atom_site_occupancy
 _atom_site_hle17_bader_spin_density
 _atom_site_hle17_ddec_charge
 _atom_site_hle17_ddec_spin_density
 _atom_site_hle17_ddec_sum_bond_order
 _atom_site_hle17_magmom
 _atom_site_hse06_10hf_bader_spin_density
 _atom_site_hse06_10hf_ddec_charge
 _atom_site_hse06_10hf_ddec_spin_density
 _atom_site_hse06_10hf_ddec_sum_bond_order
 _atom_site_hse06_10hf_magmom
 _atom_site_hse06_bader_spin_density
 _atom_site_hse06_ddec_charge
 _atom_site_hse06_ddec_spin_density
 _atom_site_hse06_ddec_sum_bond_order
 _atom_site_hse06_magmom
 _atom_site_pbe_bader_spin_density
 _atom_site_pbe_cm5_charge
 _atom_site_pbe_ddec_charge
 _atom_site_pbe_ddec_spin_density
 _atom_site_pbe_ddec_sum_bond_order
 _atom_site_pbe_magmom
Ag  Ag0  1  0.15435919  0.29154536  0.29337140  1  0  0.275727  0  1.939541  0  0  0.171556  0  2.45499  0  0  0.198225  0  2.403541  0  0  0.220809  0.151924  0  2.492945  0
Ag  Ag1  1  0.65441571  0.20810880  0.20669544  1  0  0.275574  0  1.939438  0  0  0.171197  0  2.454956  0  0  0.197877  0  2.403506  0  0  0.220692  0.151558  0  2.492905  0
Ag  Ag2  1  0.84563441  0.70844091  0.70663081  1  0  0.275756  0  1.939517  0  0  0.171581  0  2.45498  0  0  0.198245  0  2.403528  0  0  0.22083  0.151947  0  2.492933  0
Ag  Ag3  1  0.34560349  0.79189471  0.79329956  1  0  0.275557  0  1.939622  0  0  0.171208  0  2.455161  0  0  0.19788  0  2.403705  0  0  0.220711  0.151566  0  2.493113  0
H  H4  1  0.82271541  0.47822627  0.41195390  1  0  0.071633  0  0.95665  0  0  0.079004  0  1.026366  0  0  0.081586  0  1.024565  0  0  0.100325  0.077184  0  1.027504  0
H  H5  1  0.32307497  0.02157740  0.08803424  1  0  0.071084  0  0.956845  0  0  0.078461  0  1.02668  0  0  0.081056  0  1.024859  0  0  0.100118  0.07662  0  1.027848  0
H  H6  1  0.17726752  0.52176377  0.58804288  1  0  0.071558  0  0.956811  0  0  0.079005  0  1.02645  0  0  0.081595  0  1.024632  0  0  0.100359  0.077183  0  1.027601  0
H  H7  1  0.67695704  0.97844960  0.91197236  1  0  0.071091  0  0.956834  0  0  0.078508  0  1.026621  0  0  0.081099  0  1.024804  0  0  0.100133  0.076668  0  1.027791  0
H  H8  1  0.15635564  0.92551698  0.40763691  1  0  0.093641  0  0.95782  0  0  0.103726  0  1.021703  0  0  0.106675  0  1.019631  0  0  0.091754  0.101013  0  1.024223  0
H  H9  1  0.65617229  0.57411685  0.09236682  1  0  0.094544  0  0.956212  0  0  0.104222  0  1.020544  0  0  0.107268  0  1.018378  0  0  0.091876  0.101481  0  1.023106  0
H  H10  1  0.84367210  0.07444888  0.59237040  1  0  0.093617  0  0.957825  0  0  0.103685  0  1.021706  0  0  0.10663  0  1.019641  0  0  0.091745  0.100997  0  1.024213  0
H  H11  1  0.34376796  0.42587987  0.90762988  1  0  0.09439  0  0.956481  0  0  0.104183  0  1.020695  0  0  0.107224  0  1.018537  0  0  0.091898  0.101444  0  1.023255  0
H  H12  1  0.47893243  0.85904370  0.30805624  1  0  0.091471  0  0.992624  0  0  0.097985  0  1.062065  0  0  0.100306  0  1.062526  0  0  0.092069  0.096287  0  1.061857  0
H  H13  1  0.97877770  0.64049260  0.19197177  1  0  0.091704  0  0.992948  0  0  0.097914  0  1.062664  0  0  0.100299  0  1.063073  0  0  0.091901  0.09621  0  1.062461  0
H  H14  1  0.52111665  0.14092519  0.69195481  1  0  0.091504  0  0.992749  0  0  0.097921  0  1.06231  0  0  0.100235  0  1.062779  0  0  0.091985  0.09621  0  1.062111  0
H  H15  1  0.02114975  0.35948482  0.80803000  1  0  0.091684  0  0.992868  0  0  0.097954  0  1.062542  0  0  0.100341  0  1.062948  0  0  0.091924  0.096228  0  1.062356  0
H  H16  1  0.46218820  0.59915621  0.26588608  1  0  0.067259  0  0.959304  0  0  0.072992  0  1.033353  0  0  0.074986  0  1.032134  0  0  0.103515  0.071505  0  1.034311  0
H  H17  1  0.96215349  0.90038831  0.23415439  1  0  0.066777  0  0.959813  0  0  0.072727  0  1.033793  0  0  0.074706  0  1.032593  0  0  0.10326  0.071243  0  1.034748  0
H  H18  1  0.53782887  0.40081063  0.73412283  1  0  0.067257  0  0.95919  0  0  0.072989  0  1.033273  0  0  0.074982  0  1.032055  0  0  0.103508  0.071501  0  1.034227  0
H  H19  1  0.03785718  0.09958752  0.76585334  1  0  0.066809  0  0.960098  0  0  0.072737  0  1.034102  0  0  0.074721  0  1.032889  0  0  0.103289  0.071256  0  1.035055  0
H  H20  1  0.59956915  0.65837183  0.48818444  1  0  0.107104  0  0.951746  0  0  0.128013  0  1.012179  0  0  0.12922  0  1.012696  0  0  0.085601  0.127088  0  1.011824  0
H  H21  1  0.09961234  0.84144904  0.01185538  1  0  0.10691  0  0.951453  0  0  0.127933  0  1.011858  0  0  0.129136  0  1.012375  0  0  0.085637  0.126976  0  1.011543  0
H  H22  1  0.40042444  0.34163449  0.51181700  1  0  0.107039  0  0.951708  0  0  0.127948  0  1.012144  0  0  0.129156  0  1.01266  0  0  0.08556  0.127027  0  1.011784  0
H  H23  1  0.90041113  0.15863273  0.98813332  1  0  0.107034  0  0.951488  0  0  0.128016  0  1.011967  0  0  0.129221  0  1.012483  0  0  0.085653  0.127079  0  1.01163  0
H  H24  1  0.89245790  0.73946143  0.53192199  1  0  0.101384  0  0.987751  0  0  0.118072  0  1.062059  0  0  0.118822  0  1.062233  0  0  0.0739  0.117081  0  1.062705  0
H  H25  1  0.39240882  0.76042873  0.96806600  1  0  0.101396  0  0.987826  0  0  0.118001  0  1.062165  0  0  0.118749  0  1.062336  0  0  0.073946  0.117012  0  1.062809  0
H  H26  1  0.10753997  0.26053734  0.46807684  1  0  0.10143  0  0.987664  0  0  0.118104  0  1.061983  0  0  0.118854  0  1.062156  0  0  0.073903  0.117113  0  1.062632  0
H  H27  1  0.60764026  0.23964553  0.03191954  1  0  0.101324  0  0.988113  0  0  0.118031  0  1.062316  0  0  0.118777  0  1.062488  0  0  0.073954  0.117042  0  1.062965  0
H  H28  1  0.67757176  0.85108771  0.47193964  1  0  0.10794  0  0.961492  0  0  0.127323  0  1.026554  0  0  0.128598  0  1.026534  0  0  0.081035  0.126366  0  1.026477  0
H  H29  1  0.17761792  0.64873603  0.02803149  1  0  0.107823  0  0.961409  0  0  0.127052  0  1.026728  0  0  0.128322  0  1.026709  0  0  0.080982  0.126101  0  1.026639  0
H  H30  1  0.32245811  0.14890594  0.52805385  1  0  0.107943  0  0.961322  0  0  0.127323  0  1.026409  0  0  0.128601  0  1.026391  0  0  0.081011  0.126369  0  1.02633  0
H  H31  1  0.82235221  0.35132283  0.97193859  1  0  0.107808  0  0.961392  0  0  0.127172  0  1.026567  0  0  0.128442  0  1.026555  0  0  0.081011  0.126214  0  1.02649  0
C  C32  1  0.96847029  0.56582707  0.39131055  1  0  0.052232  0  3.678994  0  0  0.021282  0  3.919872  0  0  0.025672  0  3.939589  0  0  0.035204  0.018508  0  3.906313  0
C  C33  1  0.46872199  0.93391975  0.10869893  1  0  0.053482  0  3.680047  0  0  0.022261  0  3.92066  0  0  0.026645  0  3.940362  0  0  0.035445  0.019501  0  3.907088  0
C  C34  1  0.03151690  0.43416267  0.60869000  1  0  0.052358  0  3.679114  0  0  0.021352  0  3.919992  0  0  0.025743  0  3.939709  0  0  0.035239  0.018575  0  3.906427  0
C  C35  1  0.53129935  0.06609440  0.89130188  1  0  0.053582  0  3.679273  0  0  0.02242  0  3.919903  0  0  0.026814  0  3.939593  0  0  0.035564  0.019651  0  3.906339  0
C  C36  1  0.96503666  0.70630171  0.41963843  1  0  0.101754  0  3.751194  0  0  0.133396  0  3.980397  0  0  0.130128  0  4.006458  0  0  -0.005088  0.135258  0  3.962644  0
C  C37  1  0.46512215  0.79346689  0.08039080  1  0  0.100349  0  3.752705  0  0  0.132351  0  3.981572  0  0  0.129077  0  4.007651  0  0  -0.005356  0.134222  0  3.963807  0
C  C38  1  0.03498041  0.29369296  0.58036962  1  0  0.101866  0  3.751065  0  0  0.133476  0  3.980335  0  0  0.130208  0  4.006394  0  0  -0.004998  0.135335  0  3.962595  0
C  C39  1  0.53486291  0.20656567  0.91961574  1  0  0.100405  0  3.752484  0  0  0.132224  0  3.981685  0  0  0.128953  0  4.007758  0  0  -0.005533  0.134093  0  3.963928  0
C  C40  1  0.77251201  0.73993542  0.48087566  1  0  -0.342488  0  3.763927  0  0  -0.421541  0  3.995811  0  0  -0.424339  0  4.008158  0  0  -0.25133  -0.419205  0  3.987328  0
C  C41  1  0.27256642  0.75988804  0.01912920  1  0  -0.341905  0  3.763033  0  0  -0.420952  0  3.994897  0  0  -0.423746  0  4.007243  0  0  -0.251455  -0.418586  0  3.98641  0
C  C42  1  0.22748372  0.26006201  0.51912588  1  0  -0.342529  0  3.763711  0  0  -0.421571  0  3.995649  0  0  -0.424374  0  4.007999  0  0  -0.251303  -0.419242  0  3.98718  0
C  C43  1  0.72745491  0.24017252  0.98086082  1  0  -0.341963  0  3.763457  0  0  -0.421147  0  3.99525  0  0  -0.423943  0  4.007604  0  0  -0.251422  -0.418793  0  3.986753  0
C  C44  1  0.15200100  0.81343711  0.38847830  1  0  -0.072307  0  3.698969  0  0  -0.09525  0  3.938779  0  0  -0.093961  0  3.957837  0  0  -0.075278  -0.095702  0  3.925896  0
C  C45  1  0.65192287  0.68622568  0.11153916  1  0  -0.072782  0  3.698034  0  0  -0.095534  0  3.937787  0  0  -0.094307  0  3.956798  0  0  -0.075192  -0.095981  0  3.924925  0
C  C46  1  0.84804808  0.18653427  0.61152948  1  0  -0.072385  0  3.698795  0  0  -0.095313  0  3.938645  0  0  -0.094019  0  3.957699  0  0  -0.075287  -0.095793  0  3.925741  0
C  C47  1  0.34802378  0.31377650  0.88845856  1  0  -0.072662  0  3.698117  0  0  -0.095458  0  3.937906  0  0  -0.094238  0  3.956938  0  0  -0.075145  -0.095891  0  3.925006  0
C  C48  1  0.33200774  0.77684950  0.33257160  1  0  -0.117411  0  3.774273  0  0  -0.12358  0  4.01582  0  0  -0.130012  0  4.039122  0  0  -0.090411  -0.119417  0  4.000083  0
C  C49  1  0.83194831  0.72273017  0.16745230  1  0  -0.117114  0  3.774273  0  0  -0.122972  0  4.015871  0  0  -0.129466  0  4.039164  0  0  -0.089991  -0.118806  0  4.000143  0
C  C50  1  0.66802214  0.22312531  0.66743506  1  0  -0.117332  0  3.774571  0  0  -0.123378  0  4.015999  0  0  -0.129809  0  4.039301  0  0  -0.090307  -0.119207  0  4.000275  0
C  C51  1  0.16801115  0.27723631  0.83254744  1  0  -0.117359  0  3.774439  0  0  -0.123284  0  4.016068  0  0  -0.129783  0  4.03936  0  0  -0.09024  -0.119102  0  4.000352  0
C  C52  1  0.32351460  0.63319566  0.30912196  1  0  0.101252  0  3.726225  0  0  0.073275  0  3.973916  0  0  0.078529  0  3.993902  0  0  0.031181  0.069881  0  3.960185  0
C  C53  1  0.82354490  0.86638352  0.19091011  1  0  0.101603  0  3.727259  0  0  0.07324  0  3.974855  0  0  0.078495  0  3.994822  0  0  0.031412  0.069844  0  3.961141  0
C  C54  1  0.67649820  0.36678278  0.69088088  1  0  0.101272  0  3.726591  0  0  0.073259  0  3.974221  0  0  0.078515  0  3.994207  0  0  0.031226  0.069868  0  3.960475  0
C  C55  1  0.17641669  0.13359866  0.80908783  1  0  0.10189  0  3.727311  0  0  0.07354  0  3.974842  0  0  0.078797  0  3.994802  0  0  0.0316  0.070148  0  3.96112  0
I  I56  1  0.15991046  0.33971608  0.13934292  1  0  -0.356415  0  1.529953  0  0  -0.277081  0  1.967831  0  0  -0.298031  0  1.93284  0  0  -0.15063  -0.260517  0  1.994651  0
I  I57  1  0.65977742  0.15996658  0.36074082  1  0  -0.356302  0  1.529351  0  0  -0.277059  0  1.967311  0  0  -0.297982  0  1.932267  0  0  -0.150581  -0.260511  0  1.994147  0
I  I58  1  0.84008314  0.66030158  0.86065569  1  0  -0.356392  0  1.530021  0  0  -0.277094  0  1.967984  0  0  -0.298033  0  1.932974  0  0  -0.150636  -0.26053  0  1.994796  0
I  I59  1  0.34020764  0.84000670  0.63925723  1  0  -0.356336  0  1.529426  0  0  -0.277111  0  1.967416  0  0  -0.298026  0  1.93236  0  0  -0.150613  -0.260559  0  1.994259  0
N  N60  1  0.14335855  0.52929042  0.33778404  1  0  -0.282849  0  3.30764  0  0  -0.209118  0  3.585408  0  0  -0.226376  0  3.603801  0  0  -0.342696  -0.19718  0  3.572417  0
N  N61  1  0.64355354  0.97039060  0.16224353  1  0  -0.283059  0  3.307371  0  0  -0.208886  0  3.584781  0  0  -0.226146  0  3.603204  0  0  -0.342661  -0.196942  0  3.571759  0
N  N62  1  0.85665638  0.47069092  0.66222417  1  0  -0.282943  0  3.307748  0  0  -0.209173  0  3.585513  0  0  -0.226435  0  3.603909  0  0  -0.342844  -0.197234  0  3.572514  0
N  N63  1  0.35643152  0.02959909  0.83775756  1  0  -0.283286  0  3.306611  0  0  -0.20912  0  3.584029  0  0  -0.226383  0  3.602446  0  0  -0.342769  -0.197178  0  3.57101  0
