# generated using pymatgen
data_SmH8C12(NO3)3
_symmetry_space_group_name_H-M   'P 1'
_cell_length_a   7.70754627
_cell_length_b   8.05800455
_cell_length_c   12.63856582
_cell_angle_alpha   85.54961957
_cell_angle_beta   94.26829496
_cell_angle_gamma   83.29115684
_symmetry_Int_Tables_number   1
_chemical_formula_structural   SmH8C12(NO3)3
_chemical_formula_sum   'Sm2 H16 C24 N6 O18'
_cell_volume   774.45565458
_cell_formula_units_Z   2
loop_
 _symmetry_equiv_pos_site_id
 _symmetry_equiv_pos_as_xyz
  1  'x, y, z'
loop_
 _atom_site_type_symbol
 _atom_site_label
 _atom_site_symmetry_multiplicity
 _atom_site_fract_x
 _atom_site_fract_y
 _atom_site_fract_z
 _atom_site_occupancy
 _atom_site_hle17_bader_spin_density
 _atom_site_hle17_ddec_charge
 _atom_site_hle17_ddec_spin_density
 _atom_site_hle17_ddec_sum_bond_order
 _atom_site_hle17_magmom
 _atom_site_hse06_10hf_bader_spin_density
 _atom_site_hse06_10hf_ddec_charge
 _atom_site_hse06_10hf_ddec_spin_density
 _atom_site_hse06_10hf_ddec_sum_bond_order
 _atom_site_hse06_10hf_magmom
 _atom_site_hse06_bader_spin_density
 _atom_site_hse06_ddec_charge
 _atom_site_hse06_ddec_spin_density
 _atom_site_hse06_ddec_sum_bond_order
 _atom_site_hse06_magmom
 _atom_site_pbe_bader_spin_density
 _atom_site_pbe_cm5_charge
 _atom_site_pbe_ddec_charge
 _atom_site_pbe_ddec_spin_density
 _atom_site_pbe_ddec_sum_bond_order
 _atom_site_pbe_magmom
Sm  Sm0  1  0.30799291  0.20853112  0.49179657  1  0  2.248384  0  1.615288  0  0  2.087175  0  2.087385  0  0  2.203473  0  1.913098  0  0  1.494073  2.054015  0  2.117501  0
Sm  Sm1  1  0.69201719  0.79144499  0.50820547  1  0  2.248321  0  1.615269  0  0  2.087067  0  2.087447  0  0  2.203409  0  1.913076  0  0  1.49409  2.053876  0  2.117612  0
H  H2  1  0.65181779  0.37047419  0.00821628  1  0  0.087223  0  0.970139  0  0  0.098588  0  1.032352  0  0  0.102086  0  1.030694  0  0  0.097123  0.096045  0  1.033736  0
H  H3  1  0.34821092  0.62953269  0.99181049  1  0  0.087218  0  0.97032  0  0  0.098626  0  1.032462  0  0  0.102128  0  1.030799  0  0  0.097127  0.096079  0  1.033848  0
H  H4  1  0.77220474  0.49920201  0.84803423  1  0  0.080215  0  0.922316  0  0  0.088701  0  0.981325  0  0  0.092539  0  0.977717  0  0  0.112421  0.085908  0  0.983961  0
H  H5  1  0.22782051  0.50083271  0.15200494  1  0  0.080082  0  0.922339  0  0  0.088662  0  0.981269  0  0  0.0925  0  0.977658  0  0  0.112419  0.085865  0  0.983905  0
H  H6  1  0.96673027  0.03609883  0.75769947  1  0  0.098759  0  0.930331  0  0  0.106053  0  0.989326  0  0  0.109364  0  0.986751  0  0  0.118522  0.103716  0  0.991057  0
H  H7  1  0.03323796  0.96395588  0.24228555  1  0  0.098673  0  0.930309  0  0  0.105968  0  0.989318  0  0  0.109283  0  0.986738  0  0  0.118449  0.103629  0  0.991041  0
H  H8  1  0.85302307  0.88494739  0.91299029  1  0  0.112469  0  0.934142  0  0  0.122521  0  0.992882  0  0  0.126581  0  0.990755  0  0  0.108644  0.119546  0  0.994596  0
H  H9  1  0.14694353  0.11507807  0.08698169  1  0  0.11247  0  0.934086  0  0  0.122498  0  0.992859  0  0  0.126554  0  0.990737  0  0  0.108696  0.119508  0  0.994585  0
H  H10  1  0.55941931  0.23902822  0.14522300  1  0  0.32511  0  0.841134  0  0  0.310899  0  0.8936  0  0  0.319005  0  0.886616  0  0  0.342051  0.305129  0  0.898604  0
H  H11  1  0.44055602  0.76097247  0.85477762  1  0  0.325201  0  0.841039  0  0  0.310958  0  0.893546  0  0  0.319065  0  0.886561  0  0  0.342076  0.305189  0  0.898551  0
H  H12  1  0.74665989  0.62118228  0.12001808  1  0  0.394684  0  0.835723  0  0  0.366808  0  0.914099  0  0  0.378227  0  0.90092  0  0  0.325013  0.358702  0  0.923364  0
H  H13  1  0.25337322  0.37881730  0.87998630  1  0  0.394715  0  0.835586  0  0  0.366766  0  0.914043  0  0  0.378185  0  0.90087  0  0  0.325049  0.358661  0  0.923313  0
H  H14  1  0.65413827  0.36770226  0.52210698  1  0  0.452124  0  0.833475  0  0  0.426542  0  0.886826  0  0  0.436825  0  0.871965  0  0  0.317089  0.419437  0  0.897248  0
H  H15  1  0.34586937  0.63227567  0.47788852  1  0  0.451978  0  0.833654  0  0  0.426379  0  0.887052  0  0  0.436663  0  0.87219  0  0  0.31698  0.419269  0  0.897483  0
H  H16  1  0.58229040  0.41339963  0.40415950  1  0  0.441621  0  0.838808  0  0  0.415701  0  0.895477  0  0  0.425944  0  0.880562  0  0  0.316324  0.408526  0  0.906139  0
H  H17  1  0.41769617  0.58658328  0.59583882  1  0  0.441513  0  0.838821  0  0  0.415635  0  0.895548  0  0  0.425882  0  0.880627  0  0  0.316283  0.408451  0  0.906227  0
C  C18  1  0.46212682  0.06313454  0.31055783  1  0  0.656155  0  3.954821  0  0  0.608207  0  4.252279  0  0  0.64196  0  4.250649  0  0  0.215974  0.584707  0  4.259172  0
C  C19  1  0.53787567  0.93685039  0.68944498  1  0  0.65596  0  3.954518  0  0  0.607953  0  4.252081  0  0  0.641701  0  4.250467  0  0  0.216016  0.584441  0  4.25899  0
C  C20  1  0.56372581  0.00103132  0.22367998  1  0  0.084062  0  3.63816  0  0  0.066639  0  3.896158  0  0  0.069236  0  3.911667  0  0  0.123539  0.064983  0  3.885703  0
C  C21  1  0.43626523  0.99896838  0.77632065  1  0  0.084364  0  3.637885  0  0  0.066962  0  3.8958  0  0  0.069571  0  3.911304  0  0  0.123618  0.065306  0  3.885356  0
C  C22  1  0.63618821  0.84595846  0.19426755  1  0  -0.031455  0  3.783341  0  0  -0.036212  0  4.046354  0  0  -0.04247  0  4.068678  0  0  0.088857  -0.032299  0  4.031786  0
C  C23  1  0.36381652  0.15404844  0.80572673  1  0  -0.031619  0  3.783452  0  0  -0.036277  0  4.046329  0  0  -0.042549  0  4.068645  0  0  0.088765  -0.032368  0  4.031774  0
C  C24  1  0.64977320  0.67518858  0.24577057  1  0  0.680985  0  3.785384  0  0  0.633459  0  4.0805  0  0  0.668362  0  4.072092  0  0  0.258225  0.609661  0  4.087606  0
C  C25  1  0.35022950  0.32480218  0.75423962  1  0  0.680999  0  3.784721  0  0  0.633423  0  4.07985  0  0  0.668352  0  4.071413  0  0  0.258223  0.609633  0  4.086946  0
C  C26  1  0.68258833  0.03110531  0.06851033  1  0  0.347391  0  3.730128  0  0  0.312869  0  4.0072  0  0  0.326019  0  4.020656  0  0  0.227821  0.304194  0  3.997746  0
C  C27  1  0.31739940  0.96890539  0.93148686  1  0  0.347433  0  3.730315  0  0  0.312861  0  4.007324  0  0  0.326014  0  4.020779  0  0  0.227821  0.304195  0  3.997866  0
C  C28  1  0.74458848  0.11474087  0.97485138  1  0  0.017558  0  3.828628  0  0  0.032659  0  4.067916  0  0  0.033024  0  4.091915  0  0  -0.00195  0.032499  0  4.051536  0
C  C29  1  0.25540246  0.88527498  0.02514608  1  0  0.017574  0  3.828705  0  0  0.032898  0  4.067656  0  0  0.033261  0  4.091656  0  0  -0.001786  0.032724  0  4.051292  0
C  C30  1  0.72102566  0.29026138  0.95522058  1  0  -0.172422  0  3.762664  0  0  -0.195087  0  4.012387  0  0  -0.202009  0  4.035593  0  0  -0.099089  -0.190406  0  3.996594  0
C  C31  1  0.27898028  0.70975785  0.04479476  1  0  -0.172461  0  3.762767  0  0  -0.195262  0  4.012499  0  0  -0.20219  0  4.035709  0  0  -0.099202  -0.190573  0  3.99671  0
C  C32  1  0.78940058  0.36287789  0.86613357  1  0  0.098996  0  3.77339  0  0  0.079189  0  4.033322  0  0  0.083315  0  4.051034  0  0  0.037999  0.076614  0  4.02103  0
C  C33  1  0.21060591  0.63715488  0.13388999  1  0  0.099182  0  3.77328  0  0  0.079264  0  4.033273  0  0  0.083392  0  4.050984  0  0  0.038141  0.076687  0  4.02098  0
C  C34  1  0.89721863  0.10638069  0.81553143  1  0  0.126263  0  3.682242  0  0  0.103795  0  3.947573  0  0  0.108901  0  3.963083  0  0  0.048576  0.10055  0  3.936716  0
C  C35  1  0.10275833  0.89365734  0.18446233  1  0  0.126464  0  3.681902  0  0  0.103973  0  3.947246  0  0  0.109076  0  3.962755  0  0  0.04873  0.100738  0  3.936364  0
C  C36  1  0.83325500  0.02138218  0.90183475  1  0  -0.135648  0  3.698369  0  0  -0.16075  0  3.952762  0  0  -0.166665  0  3.97397  0  0  -0.082036  -0.156721  0  3.938347  0
C  C37  1  0.16671950  0.97864002  0.09815342  1  0  -0.135673  0  3.698159  0  0  -0.160792  0  3.952422  0  0  -0.166712  0  3.973644  0  0  -0.082079  -0.156754  0  3.938013  0
C  C38  1  0.96255966  0.04156362  0.44392661  1  0  0.583434  0  3.899066  0  0  0.541444  0  4.1947  0  0  0.572167  0  4.190325  0  0  0.216851  0.520109  0  4.202132  0
C  C39  1  0.03744456  0.95841287  0.55608019  1  0  0.583518  0  3.899405  0  0  0.541658  0  4.194829  0  0  0.572387  0  4.190452  0  0  0.217079  0.520366  0  4.202212  0
C  C40  1  0.95819146  0.44586952  0.54213178  1  0  0.573963  0  3.907077  0  0  0.530645  0  4.201145  0  0  0.560855  0  4.1975  0  0  0.222708  0.509811  0  4.207797  0
C  C41  1  0.04181024  0.55410234  0.45784288  1  0  0.5738  0  3.907299  0  0  0.530465  0  4.20139  0  0  0.560706  0  4.197711  0  0  0.222748  0.509608  0  4.208064  0
N  N42  1  0.59533117  0.11374195  0.14336706  1  0  -0.314392  0  3.373346  0  0  -0.260044  0  3.605615  0  0  -0.274668  0  3.61632  0  0  -0.354873  -0.250096  0  3.597964  0
N  N43  1  0.40465949  0.88625884  0.85663187  1  0  -0.314604  0  3.373262  0  0  -0.260272  0  3.605561  0  0  -0.274901  0  3.616264  0  0  -0.354895  -0.250322  0  3.597914  0
N  N44  1  0.70557996  0.86671762  0.09756721  1  0  -0.433338  0  3.035548  0  0  -0.406952  0  3.311527  0  0  -0.420109  0  3.326445  0  0  -0.328027  -0.39778  0  3.301289  0
N  N45  1  0.29441975  0.13328332  0.90243165  1  0  -0.433183  0  3.035515  0  0  -0.406827  0  3.311443  0  0  -0.419983  0  3.32636  0  0  -0.327961  -0.397652  0  3.301204  0
N  N46  1  0.87830328  0.27421280  0.79786434  1  0  -0.251403  0  3.020779  0  0  -0.226268  0  3.292255  0  0  -0.233872  0  3.30499  0  0  -0.307785  -0.220885  0  3.283128  0
N  N47  1  0.12168789  0.72583079  0.20214392  1  0  -0.251562  0  3.020946  0  0  -0.226404  0  3.292453  0  0  -0.234006  0  3.305183  0  0  -0.308042  -0.22102  0  3.283322  0
O  O48  1  0.38621513  0.21195303  0.29736522  1  0  -0.630292  0  1.8928  0  0  -0.587148  0  2.118097  0  0  -0.615762  0  2.106658  0  0  -0.340019  -0.571722  0  2.124894  0
O  O49  1  0.61377950  0.78803168  0.70263685  1  0  -0.630099  0  1.8928  0  0  -0.586939  0  2.118106  0  0  -0.615557  0  2.106678  0  0  -0.339966  -0.571501  0  2.124902  0
O  O50  1  0.45448229  0.96659862  0.39520617  1  0  -0.769905  0  2.094299  0  0  -0.712449  0  2.34675  0  0  -0.753568  0  2.336807  0  0  -0.411748  -0.694809  0  2.352968  0
O  O51  1  0.54551832  0.03338720  0.60479337  1  0  -0.769926  0  2.093968  0  0  -0.712463  0  2.346465  0  0  -0.753577  0  2.336523  0  0  -0.411843  -0.694825  0  2.352702  0
O  O52  1  0.61143513  0.63588096  0.33680987  1  0  -0.596644  0  2.022185  0  0  -0.547736  0  2.249267  0  0  -0.576859  0  2.237221  0  0  -0.284626  -0.532813  0  2.256398  0
O  O53  1  0.38855092  0.36412123  0.66316666  1  0  -0.596909  0  2.021029  0  0  -0.547988  0  2.248124  0  0  -0.577129  0  2.236072  0  0  -0.284778  -0.533061  0  2.255255  0
O  O54  1  0.71100619  0.55723382  0.18365539  1  0  -0.508007  0  2.008379  0  0  -0.465556  0  2.208631  0  0  -0.48443  0  2.191431  0  0  -0.321202  -0.452177  0  2.220004  0
O  O55  1  0.28902725  0.44277062  0.81634692  1  0  -0.507926  0  2.008377  0  0  -0.465399  0  2.20872  0  0  -0.484269  0  2.191501  0  0  -0.32112  -0.452021  0  2.220087  0
O  O56  1  0.06019104  0.12918652  0.39273399  1  0  -0.671216  0  2.018347  0  0  -0.627045  0  2.257557  0  0  -0.658235  0  2.24411  0  0  -0.391774  -0.611062  0  2.264222  0
O  O57  1  0.93982686  0.87077669  0.60726449  1  0  -0.671229  0  2.018854  0  0  -0.627101  0  2.25802  0  0  -0.658294  0  2.244569  0  0  -0.391879  -0.611132  0  2.264677  0
O  O58  1  0.80981560  0.01520439  0.41186583  1  0  -0.663093  0  2.084424  0  0  -0.618648  0  2.337104  0  0  -0.650662  0  2.326832  0  0  -0.379041  -0.601524  0  2.342296  0
O  O59  1  0.19019203  0.98478026  0.58814573  1  0  -0.663091  0  2.084328  0  0  -0.618684  0  2.336928  0  0  -0.650695  0  2.326657  0  0  -0.378991  -0.601558  0  2.342071  0
O  O60  1  0.04392482  0.30874184  0.57798056  1  0  -0.639291  0  2.111024  0  0  -0.59457  0  2.356555  0  0  -0.626457  0  2.349061  0  0  -0.351481  -0.577381  0  2.359767  0
O  O61  1  0.95608406  0.69122583  0.42201356  1  0  -0.639126  0  2.111477  0  0  -0.594406  0  2.357034  0  0  -0.626299  0  2.349526  0  0  -0.351449  -0.577201  0  2.360246  0
O  O62  1  0.80653692  0.50503060  0.56654013  1  0  -0.693661  0  2.066829  0  0  -0.640783  0  2.307304  0  0  -0.672782  0  2.292513  0  0  -0.379422  -0.624453  0  2.315104  0
O  O63  1  0.19348026  0.49493692  0.43343884  1  0  -0.69378  0  2.066548  0  0  -0.640889  0  2.307028  0  0  -0.672894  0  2.292223  0  0  -0.37955  -0.624559  0  2.314841  0
O  O64  1  0.57630178  0.33131256  0.46491875  1  0  -0.898571  0  1.882778  0  0  -0.852575  0  2.072471  0  0  -0.879296  0  2.036338  0  0  -0.63881  -0.839955  0  2.093877  0
O  O65  1  0.42369333  0.66866690  0.53508145  1  0  -0.898336  0  1.882836  0  0  -0.85238  0  2.072498  0  0  -0.87911  0  2.036358  0  0  -0.638697  -0.839746  0  2.093909  0
