# generated using pymatgen
data_Y2Cu3H24(C4O5)6
_symmetry_space_group_name_H-M   'P 1'
_cell_length_a   12.72413582
_cell_length_b   12.72290996
_cell_length_c   16.39551309
_cell_angle_alpha   90.00447963
_cell_angle_beta   89.99670418
_cell_angle_gamma   120.00369452
_symmetry_Int_Tables_number   1
_chemical_formula_structural   Y2Cu3H24(C4O5)6
_chemical_formula_sum   'Y4 Cu6 H48 C48 O60'
_cell_volume   2298.55141784
_cell_formula_units_Z   2
loop_
 _symmetry_equiv_pos_site_id
 _symmetry_equiv_pos_as_xyz
  1  'x, y, z'
loop_
 _atom_site_type_symbol
 _atom_site_label
 _atom_site_symmetry_multiplicity
 _atom_site_fract_x
 _atom_site_fract_y
 _atom_site_fract_z
 _atom_site_occupancy
 _atom_site_pbe_bader_charge
 _atom_site_pbe_bader_spin_density
 _atom_site_pbe_cm5_charge
 _atom_site_pbe_ddec_charge
 _atom_site_pbe_ddec_spin_density
 _atom_site_pbe_ddec_sum_bond_order
 _atom_site_pbe_magmom
Y  Y0  1  0.33337050  0.66664531  0.24995359  1  2.284869  -0.000648  1.295113  1.672665  -0.001457  2.588893  -0.001
Y  Y1  1  0.66671709  0.33337823  0.25003545  1  2.275356  -0.00065  1.295155  1.672321  -0.001458  2.589271  -0.001
Y  Y2  1  0.66656905  0.33330743  0.75002834  1  2.285837  -0.000648  1.295018  1.671814  -0.001458  2.590136  -0.001
Y  Y3  1  0.33334178  0.66670782  0.74998857  1  2.275748  -0.00065  1.295003  1.671926  -0.001458  2.58976  -0.001
Cu  Cu4  1  0.49998676  0.49999336  0.99999270  1  1.113816  0.579331  0.731846  0.94341  0.737414  2.008713  0.582
Cu  Cu5  1  0.99999369  0.49998503  0.99999793  1  1.114343  0.579319  0.731916  0.943563  0.737459  2.008443  0.582
Cu  Cu6  1  0.49996279  0.00001903  0.00000584  1  1.113256  0.57934  0.732122  0.943668  0.73746  2.009394  0.582
Cu  Cu7  1  0.00000962  0.49997613  0.50001898  1  1.113017  0.579339  0.732036  0.943453  0.737441  2.008673  0.582
Cu  Cu8  1  0.50000894  0.50002340  0.49998334  1  1.113879  0.579351  0.732074  0.943754  0.73744  2.008127  0.582
Cu  Cu9  1  0.50000018  0.99999444  0.49999052  1  1.114099  0.579282  0.731961  0.943715  0.73743  2.00905  0.582
H  H10  1  0.85094421  0.19711117  0.85714008  1  0.102081  0.000161  0.117359  0.113658  5.6e-05  0.968963  0.0
H  H11  1  0.76510316  0.06317769  0.79626508  1  0.052138  -0.000159  0.105923  0.083219  -0.000199  1.010903  0.0
H  H12  1  0.34600190  0.14891369  0.85715511  1  0.107322  0.000165  0.117377  0.113912  5.7e-05  0.969383  0.0
H  H13  1  0.29790694  0.23485390  0.79627870  1  0.052193  -0.000158  0.105901  0.083161  -0.000198  1.010205  0.0
H  H14  1  0.80296981  0.65395263  0.85714238  1  0.113793  0.000157  0.117385  0.113855  5.5e-05  0.968719  0.0
H  H15  1  0.93691524  0.70181835  0.79617917  1  0.060637  -0.000161  0.106039  0.083532  -0.000199  1.010563  0.0
H  H16  1  0.14896021  0.80288204  0.85711837  1  0.101675  0.000162  0.117152  0.113551  5.6e-05  0.968993  0.0
H  H17  1  0.23479568  0.93684669  0.79626983  1  0.052504  -0.000159  0.105826  0.083112  -0.000199  1.01088  0.0
H  H18  1  0.65386824  0.85097639  0.85715152  1  0.106586  0.000163  0.117417  0.113865  5.6e-05  0.969029  0.0
H  H19  1  0.70189753  0.76497453  0.79624340  1  0.05106  -0.000158  0.105925  0.083417  -0.000198  1.010218  0.0
H  H20  1  0.19709137  0.34614517  0.85714475  1  0.111743  0.000158  0.117426  0.113777  5.6e-05  0.968893  0.0
H  H21  1  0.06312153  0.29817643  0.79620081  1  0.060239  -0.00016  0.105986  0.083397  -0.000198  1.010515  0.0
H  H22  1  0.65389408  0.80289403  0.64288391  1  0.112485  0.000159  0.117289  0.113615  5.6e-05  0.968812  0.0
H  H23  1  0.70196659  0.93684908  0.70372886  1  0.060243  -0.000161  0.105879  0.083248  -0.000199  1.01089  0.0
H  H24  1  0.19711499  0.85096369  0.64282748  1  0.101344  0.000162  0.117438  0.113945  5.6e-05  0.968999  0.0
H  H25  1  0.06308626  0.76507041  0.70373177  1  0.051344  -0.000158  0.105827  0.083357  -0.000198  1.010408  0.0
H  H26  1  0.14907407  0.34609777  0.64284017  1  0.107219  0.000161  0.117491  0.113851  5.5e-05  0.968687  0.0
H  H27  1  0.23508326  0.29816776  0.70380250  1  0.051362  -0.000159  0.106012  0.083407  -0.000198  1.010646  0.0
H  H28  1  0.34603518  0.19707748  0.64287682  1  0.112495  0.000161  0.117164  0.11356  5.7e-05  0.96899  0.0
H  H29  1  0.29792511  0.06310861  0.70371211  1  0.059873  -0.000161  0.105762  0.083049  -0.000199  1.010872  0.0
H  H30  1  0.80285481  0.14901260  0.64287653  1  0.101621  0.000161  0.117455  0.113923  5.6e-05  0.969009  0.0
H  H31  1  0.93688748  0.23501733  0.70375983  1  0.050897  -0.000158  0.106012  0.083508  -0.000198  1.010302  0.0
H  H32  1  0.85098145  0.65383678  0.64284676  1  0.10591  0.000162  0.117441  0.113868  5.6e-05  0.968813  0.0
H  H33  1  0.76502537  0.70190381  0.70377509  1  0.051532  -0.000159  0.105814  0.08332  -0.000199  1.010532  0.0
H  H34  1  0.14899785  0.80286805  0.14288332  1  0.101451  0.000162  0.117329  0.113766  5.6e-05  0.968868  0.0
H  H35  1  0.23483648  0.93678710  0.20377297  1  0.051553  -0.000159  0.10599  0.083332  -0.000199  1.010673  0.0
H  H36  1  0.65396779  0.85103227  0.14282316  1  0.107177  0.000163  0.117436  0.113982  5.6e-05  0.96915  0.0
H  H37  1  0.70201371  0.76506938  0.20372397  1  0.051627  -0.000158  0.105836  0.083266  -0.000198  1.010355  0.0
H  H38  1  0.19701218  0.34599858  0.14281333  1  0.113177  0.000158  0.11735  0.113966  5.6e-05  0.968486  0.0
H  H39  1  0.06306943  0.29809701  0.20378263  1  0.06008  -0.00016  0.105919  0.083441  -0.000198  1.010781  0.0
H  H40  1  0.85098894  0.19711639  0.14288491  1  0.102402  0.000162  0.117303  0.113635  5.6e-05  0.968913  0.0
H  H41  1  0.76513880  0.06315324  0.20371760  1  0.052423  -0.000159  0.105913  0.083242  -0.000199  1.010869  0.0
H  H42  1  0.34624008  0.14905005  0.14282675  1  0.107159  0.000163  0.117404  0.113897  5.6e-05  0.969036  0.0
H  H43  1  0.29811127  0.23498210  0.20371963  1  0.051354  -0.000158  0.10601  0.083462  -0.000198  1.010314  0.0
H  H44  1  0.80298218  0.65393938  0.14286830  1  0.113486  0.000157  0.117407  0.11376  5.6e-05  0.968857  0.0
H  H45  1  0.93697044  0.70193802  0.20378478  1  0.059722  -0.00016  0.105875  0.083157  -0.000198  1.010497  0.0
H  H46  1  0.34610018  0.19710192  0.35710047  1  0.112079  0.000159  0.117268  0.113551  5.6e-05  0.969061  0.0
H  H47  1  0.29808063  0.06316438  0.29625063  1  0.060541  -0.000161  0.105978  0.08332  -0.000199  1.010814  0.0
H  H48  1  0.80291667  0.14900809  0.35715873  1  0.101287  0.000161  0.117398  0.113921  5.5e-05  0.968988  0.0
H  H49  1  0.93692545  0.23496089  0.29624163  1  0.052303  -0.000159  0.105856  0.083356  -0.000198  1.010396  0.0
H  H50  1  0.85102238  0.65399280  0.35719178  1  0.107184  0.000163  0.117423  0.114033  5.6e-05  0.968481  0.0
H  H51  1  0.76506564  0.70198023  0.29622030  1  0.05255  -0.000158  0.105866  0.083242  -0.000198  1.010617  0.0
H  H52  1  0.65389096  0.80284222  0.35709840  1  0.109471  0.000161  0.117247  0.113729  5.7e-05  0.969067  0.0
H  H53  1  0.70204223  0.93683953  0.29628385  1  0.059846  -0.000161  0.10593  0.083227  -0.000199  1.010914  0.0
H  H54  1  0.19717320  0.85093983  0.35716030  1  0.102267  0.00016  0.117411  0.113942  5.5e-05  0.969041  0.0
H  H55  1  0.06309282  0.76495973  0.29629956  1  0.050984  -0.000158  0.106014  0.083507  -0.000198  1.01041  0.0
H  H56  1  0.14901413  0.34605024  0.35712115  1  0.106937  0.000163  0.11737  0.113743  5.6e-05  0.968738  0.0
H  H57  1  0.23502548  0.29806834  0.29618366  1  0.052558  -0.000159  0.105901  0.083172  -0.000198  1.010359  0.0
C  C58  1  0.12026695  0.65777001  0.36574036  1  1.608178  -0.000599  0.22534  0.626946  -0.001082  4.14556  -0.002
C  C59  1  0.85181902  0.22902062  0.68290919  1  0.421598  0.010218  -0.056594  -0.114229  0.007389  3.876313  0.008
C  C60  1  0.53759342  0.87981839  0.36570281  1  1.612748  -0.000678  0.22545  0.626502  -0.001087  4.145083  -0.002
C  C61  1  0.37707309  0.14808912  0.68289964  1  0.391302  0.01026  -0.055996  -0.113274  0.007394  3.875439  0.008
C  C62  1  0.34224675  0.46239030  0.36567970  1  1.608092  -0.000583  0.225461  0.626879  -0.001085  4.145731  -0.002
C  C63  1  0.77097014  0.62282394  0.68288939  1  0.415093  0.010192  -0.05637  -0.113892  0.007391  3.875882  0.008
C  C64  1  0.87984701  0.34220729  0.36574373  1  1.604801  -0.000608  0.22541  0.626897  -0.001086  4.146025  -0.002
C  C65  1  0.14812028  0.77098946  0.68287771  1  0.421342  0.010212  -0.0563  -0.11421  0.007385  3.876095  0.008
C  C66  1  0.46245031  0.12019537  0.36575322  1  1.611046  -0.00068  0.225225  0.626465  -0.001092  4.14501  -0.002
C  C67  1  0.62282913  0.85187654  0.68289640  1  0.394766  0.010251  -0.056406  -0.113303  0.00739  3.875589  0.008
C  C68  1  0.65779772  0.53769406  0.36572387  1  1.609644  -0.000618  0.225667  0.627253  -0.001091  4.145354  -0.002
C  C69  1  0.22908672  0.37720276  0.68289141  1  0.413112  0.010184  -0.056492  -0.113704  0.007386  3.875949  0.008
C  C70  1  0.46248271  0.34223817  0.13428895  1  1.609933  -0.000586  0.225324  0.626844  -0.001082  4.146092  -0.002
C  C71  1  0.62282881  0.77097646  0.81710919  1  0.413809  0.010183  -0.056296  -0.113791  0.007384  3.876073  0.008
C  C72  1  0.65772111  0.12018220  0.13428343  1  1.605978  -0.00061  0.225419  0.62668  -0.00109  4.144722  -0.002
C  C73  1  0.22899262  0.85188869  0.81709787  1  0.419342  0.010224  -0.056175  -0.11333  0.007392  3.875534  0.008
C  C74  1  0.87986416  0.53760289  0.13430543  1  1.612274  -0.000675  0.225716  0.627154  -0.001086  4.14502  -0.002
C  C75  1  0.14816205  0.37722056  0.81709485  1  0.395058  0.010237  -0.056523  -0.113711  0.007384  3.876266  0.008
C  C76  1  0.53768776  0.65782412  0.13423372  1  1.60854  -0.000611  0.225497  0.627434  -0.001089  4.145657  -0.002
C  C77  1  0.37701589  0.22892729  0.81714201  1  0.410543  0.010195  -0.056113  -0.113746  0.007384  3.875143  0.008
C  C78  1  0.34226214  0.87984630  0.13426851  1  1.606433  -0.00061  0.225332  0.626552  -0.001091  4.145271  -0.002
C  C79  1  0.77091453  0.14813601  0.81711430  1  0.421195  0.010218  -0.056459  -0.113397  0.007392  3.875963  0.008
C  C80  1  0.12017909  0.46237591  0.13425871  1  1.611553  -0.000679  0.225347  0.626905  -0.001087  4.146162  -0.002
C  C81  1  0.85186594  0.62281771  0.81710085  1  0.392395  0.010249  -0.05649  -0.114119  0.00739  3.87628  0.008
C  C82  1  0.87972764  0.34218770  0.63428549  1  1.60965  -0.0006  0.225269  0.62659  -0.001083  4.145963  -0.002
C  C83  1  0.14816372  0.77093597  0.31712947  1  0.420741  0.010212  -0.056472  -0.114164  0.007385  3.876231  0.008
C  C84  1  0.46236223  0.12012697  0.63428584  1  1.611683  -0.000681  0.225532  0.626964  -0.00109  4.144777  -0.002
C  C85  1  0.62288174  0.85186459  0.31708351  1  0.393917  0.010263  -0.056287  -0.113576  0.007396  3.87614  0.008
C  C86  1  0.65774418  0.53758294  0.63428699  1  1.60911  -0.00059  0.225571  0.626853  -0.001083  4.145563  -0.002
C  C87  1  0.22903109  0.37711849  0.31707852  1  0.414126  0.010178  -0.056267  -0.113326  0.007387  3.875379  0.008
C  C88  1  0.12016916  0.65777435  0.63428395  1  1.606707  -0.000606  0.225358  0.626744  -0.001086  4.145633  -0.002
C  C89  1  0.85188397  0.22900478  0.31712252  1  0.420222  0.010216  -0.056321  -0.114159  0.007385  3.875866  0.008
C  C90  1  0.53757118  0.87984503  0.63425738  1  1.611841  -0.000684  0.225388  0.626568  -0.001093  4.144951  -0.002
C  C91  1  0.37719824  0.14814323  0.31709346  1  0.395072  0.010249  -0.056336  -0.113079  0.00739  3.876019  0.008
C  C92  1  0.34229270  0.46244914  0.63428063  1  1.60801  -0.000588  0.225616  0.627315  -0.001085  4.145782  -0.002
C  C93  1  0.77102982  0.62292677  0.31712956  1  0.409056  0.010201  -0.056228  -0.114002  0.007384  3.875191  0.008
C  C94  1  0.53754887  0.65778224  0.86571006  1  1.609214  -0.000587  0.225241  0.626501  -0.001083  4.146235  -0.002
C  C95  1  0.37721765  0.22903164  0.18287702  1  0.41338  0.010185  -0.056453  -0.113865  0.007386  3.875968  0.008
C  C96  1  0.34223356  0.87986875  0.86572900  1  1.603221  -0.000614  0.225416  0.626394  -0.001092  4.145087  -0.002
C  C97  1  0.77095677  0.14812469  0.18290480  1  0.419205  0.010225  -0.056409  -0.113493  0.007395  3.875737  0.008
C  C98  1  0.12019948  0.46246508  0.86570822  1  1.611142  -0.000664  0.225388  0.626666  -0.001082  4.146284  -0.002
C  C99  1  0.85192798  0.62287445  0.18290966  1  0.392763  0.01024  -0.056243  -0.113414  0.007383  3.875598  0.008
C  C100  1  0.46225908  0.34213702  0.86575676  1  1.60785  -0.000606  0.225804  0.627723  -0.00109  4.144429  -0.002
C  C101  1  0.62292584  0.77102494  0.18284907  1  0.410203  0.010198  -0.056356  -0.114237  0.007383  3.875886  0.008
C  C102  1  0.65767581  0.12014433  0.86574575  1  1.60283  -0.000605  0.225531  0.626809  -0.001094  4.145003  -0.002
C  C103  1  0.22902446  0.85183546  0.18291277  1  0.421298  0.01022  -0.056526  -0.113727  0.007391  3.876202  0.008
C  C104  1  0.87976788  0.53755780  0.86573603  1  1.612198  -0.00067  0.225449  0.626845  -0.001083  4.145846  -0.002
C  C105  1  0.14811459  0.37711363  0.18287010  1  0.392838  0.010251  -0.056354  -0.114188  0.007388  3.8761  0.008
O  O106  1  0.17881331  0.60455914  0.34971743  1  -1.174457  0.001858  -0.347738  -0.577416  0.000339  2.268647  0.002
O  O107  1  0.03903968  0.62902680  0.42012290  1  -1.116397  0.09133  -0.319256  -0.541134  0.057981  2.354439  0.083
O  O108  1  0.42583799  0.82122077  0.34969129  1  -1.181399  0.001851  -0.347964  -0.577239  0.000334  2.269551  0.002
O  O109  1  0.59008003  0.96106679  0.42008942  1  -1.10655  0.091418  -0.318897  -0.54077  0.058007  2.354481  0.083
O  O110  1  0.39547820  0.57415015  0.34966502  1  -1.177993  0.001854  -0.347767  -0.577312  0.000338  2.269214  0.002
O  O111  1  0.37098210  0.40992370  0.42007592  1  -1.115446  0.091365  -0.319069  -0.540935  0.057995  2.354487  0.083
O  O112  1  0.82134719  0.39545949  0.34973106  1  -1.172924  0.001857  -0.347988  -0.57728  0.000337  2.268757  0.002
O  O113  1  0.96107347  0.37092970  0.42012204  1  -1.113664  0.091353  -0.318864  -0.540923  0.057998  2.354984  0.083
O  O114  1  0.57423068  0.17881496  0.34980539  1  -1.181725  0.001847  -0.347585  -0.577191  0.000332  2.26886  0.002
O  O115  1  0.40990695  0.03890838  0.42010795  1  -1.105348  0.091412  -0.318909  -0.540775  0.058003  2.354343  0.083
O  O116  1  0.60460078  0.42591544  0.34975846  1  -1.176918  0.001855  -0.348164  -0.577591  0.000338  2.268679  0.002
O  O117  1  0.62903413  0.59019722  0.42008363  1  -1.114451  0.091377  -0.318867  -0.540867  0.058007  2.354596  0.083
O  O118  1  0.57423198  0.39547009  0.15029676  1  -1.177991  0.001854  -0.347757  -0.57741  0.000338  2.269365  0.002
O  O119  1  0.40997039  0.37097817  0.07992351  1  -1.115868  0.091383  -0.318982  -0.54072  0.058007  2.354396  0.083
O  O120  1  0.60455198  0.17876754  0.15031131  1  -1.174143  0.00185  -0.347888  -0.577322  0.000333  2.269331  0.002
O  O121  1  0.62898032  0.03895412  0.07988228  1  -1.114377  0.091356  -0.319018  -0.540967  0.057996  2.354417  0.083
O  O122  1  0.82133414  0.42584423  0.15031154  1  -1.181349  0.001853  -0.347926  -0.577205  0.000336  2.268816  0.002
O  O123  1  0.96106456  0.59008205  0.07990115  1  -1.106499  0.091393  -0.319071  -0.541149  0.057989  2.354312  0.083
O  O124  1  0.42592767  0.60458288  0.15024076  1  -1.175778  0.001854  -0.34824  -0.577853  0.000337  2.268833  0.002
O  O125  1  0.59017909  0.62906604  0.07986148  1  -1.114655  0.091392  -0.318725  -0.540966  0.058015  2.354658  0.083
O  O126  1  0.39546500  0.82126787  0.15022439  1  -1.173999  0.001852  -0.34764  -0.577173  0.000335  2.268661  0.002
O  O127  1  0.37097342  0.96110820  0.07990880  1  -1.11443  0.091335  -0.318876  -0.540749  0.057991  2.354685  0.083
O  O128  1  0.17880331  0.57415658  0.15020463  1  -1.180351  0.001856  -0.347884  -0.577232  0.000338  2.269009  0.002
O  O129  1  0.03890890  0.40987092  0.07990701  1  -1.106707  0.091426  -0.318809  -0.540973  0.058012  2.354698  0.083
O  O130  1  0.82117275  0.39538981  0.65028280  1  -1.174454  0.001857  -0.347683  -0.577115  0.000339  2.268916  0.002
O  O131  1  0.96098300  0.37093211  0.57991880  1  -1.116976  0.091374  -0.31899  -0.540655  0.058016  2.354647  0.083
O  O132  1  0.57412269  0.17871688  0.65030468  1  -1.180333  0.001853  -0.348027  -0.577314  0.000336  2.268987  0.002
O  O133  1  0.40988775  0.03888549  0.57989618  1  -1.106503  0.091402  -0.318954  -0.541139  0.057998  2.354775  0.083
O  O134  1  0.60448015  0.42582002  0.65030227  1  -1.177824  0.001855  -0.347844  -0.57704  0.000338  2.268802  0.002
O  O135  1  0.62904381  0.59007620  0.57989077  1  -1.115206  0.09138  -0.319115  -0.541113  0.058002  2.354396  0.083
O  O136  1  0.17871290  0.60457083  0.65028930  1  -1.173266  0.001855  -0.347761  -0.577095  0.000336  2.269052  0.002
O  O137  1  0.03891096  0.62900104  0.57992028  1  -1.115613  0.091363  -0.319008  -0.540799  0.058007  2.354307  0.083
O  O138  1  0.42580773  0.82127495  0.65024120  1  -1.181803  0.001847  -0.34773  -0.57705  0.000333  2.269226  0.002
O  O139  1  0.59010426  0.96109759  0.57987704  1  -1.105542  0.091422  -0.318876  -0.54089  0.058007  2.353981  0.083
O  O140  1  0.39551103  0.57422304  0.65025336  1  -1.177277  0.001853  -0.347655  -0.577438  0.000336  2.26924  0.002
O  O141  1  0.37101187  0.40993721  0.57990074  1  -1.115147  0.091374  -0.31933  -0.541379  0.058001  2.354556  0.083
O  O142  1  0.42580082  0.60458559  0.84971750  1  -1.17781  0.001851  -0.347717  -0.577051  0.000336  2.26952  0.002
O  O143  1  0.59004174  0.62900117  0.92006757  1  -1.115583  0.091379  -0.319013  -0.540704  0.058007  2.3543  0.083
O  O144  1  0.39543653  0.82131717  0.84972369  1  -1.172319  0.001849  -0.347872  -0.576974  0.000332  2.269198  0.002
O  O145  1  0.37094824  0.96110592  0.92012771  1  -1.112183  0.091379  -0.318764  -0.540698  0.058019  2.354597  0.083
O  O146  1  0.17874801  0.57423536  0.84974236  1  -1.181833  0.001851  -0.347671  -0.577143  0.000335  2.269481  0.002
O  O147  1  0.03895388  0.40994603  0.92007773  1  -1.106162  0.091384  -0.319024  -0.540794  0.057984  2.354551  0.083
O  O148  1  0.57401405  0.39533901  0.84974849  1  -1.176001  0.001853  -0.348449  -0.57803  0.000337  2.268945  0.002
O  O149  1  0.40978523  0.37092588  0.92012289  1  -1.114551  0.091369  -0.318926  -0.54108  0.058004  2.354393  0.083
O  O150  1  0.60446881  0.17870840  0.84975389  1  -1.173969  0.001854  -0.34789  -0.577281  0.000336  2.268899  0.002
O  O151  1  0.62895601  0.03890401  0.92012192  1  -1.112142  0.09136  -0.319033  -0.541019  0.058004  2.354702  0.083
O  O152  1  0.82113776  0.42577200  0.84979072  1  -1.18175  0.001855  -0.347777  -0.57722  0.000337  2.269021  0.002
O  O153  1  0.96102313  0.59005391  0.92009566  1  -1.106565  0.09142  -0.319045  -0.540877  0.058007  2.354354  0.083
O  O154  1  0.77775408  0.22221549  0.75001862  1  -1.110159  0.004899  -0.24867  -0.213083  0.002772  2.73038  0.004
O  O155  1  0.44427635  0.22215378  0.75001839  1  -1.090659  0.004891  -0.248807  -0.213084  0.002772  2.728985  0.004
O  O156  1  0.77774605  0.55557353  0.75000958  1  -1.094952  0.004894  -0.248771  -0.213095  0.002771  2.730572  0.004
O  O157  1  0.22219464  0.77783583  0.74998853  1  -1.098121  0.004899  -0.248715  -0.212917  0.002772  2.729945  0.004
O  O158  1  0.55558866  0.77781912  0.75000218  1  -1.095059  0.004895  -0.24874  -0.213379  0.002771  2.730555  0.004
O  O159  1  0.22223726  0.44445627  0.74998842  1  -1.094135  0.004894  -0.248923  -0.213537  0.002772  2.730976  0.004
O  O160  1  0.22218768  0.77773216  0.24999137  1  -1.108404  0.004897  -0.248762  -0.213156  0.002772  2.730583  0.004
O  O161  1  0.55566551  0.77783626  0.24995745  1  -1.090267  0.004893  -0.248647  -0.212932  0.002773  2.729724  0.004
O  O162  1  0.22222124  0.44435343  0.24996442  1  -1.094272  0.004893  -0.248712  -0.213361  0.00277  2.73046  0.004
O  O163  1  0.77779034  0.22217175  0.25002817  1  -1.098122  0.004897  -0.248714  -0.212922  0.002771  2.730163  0.004
O  O164  1  0.44445139  0.22222376  0.25000171  1  -1.095851  0.004898  -0.24885  -0.213684  0.002773  2.730756  0.004
O  O165  1  0.77787401  0.55566603  0.25003255  1  -1.092968  0.004891  -0.248912  -0.213393  0.002771  2.729719  0.004
