# generated using pymatgen
data_Mg2H15C26N5O6
_symmetry_space_group_name_H-M   'P 1'
_cell_length_a   6.80675420
_cell_length_b   41.57854789
_cell_length_c   41.57753178
_cell_angle_alpha   119.70693289
_cell_angle_beta   93.12732332
_cell_angle_gamma   93.12985276
_symmetry_Int_Tables_number   1
_chemical_formula_structural   Mg2H15C26N5O6
_chemical_formula_sum   'Mg6 H45 C78 N15 O18'
_cell_volume   10160.00585803
_cell_formula_units_Z   3
loop_
 _symmetry_equiv_pos_site_id
 _symmetry_equiv_pos_as_xyz
  1  'x, y, z'
loop_
 _atom_site_type_symbol
 _atom_site_label
 _atom_site_symmetry_multiplicity
 _atom_site_fract_x
 _atom_site_fract_y
 _atom_site_fract_z
 _atom_site_occupancy
 _atom_site_pbe_bader_charge
 _atom_site_pbe_bader_spin_density
 _atom_site_pbe_cm5_charge
 _atom_site_pbe_ddec_charge
 _atom_site_pbe_ddec_spin_density
 _atom_site_pbe_ddec_sum_bond_order
 _atom_site_pbe_magmom
Mg  Mg0  1  0.54163966  0.63891868  0.32857898  1  1.685112  0  0.914635  1.414412  0  1.324186  0
Mg  Mg1  1  0.21307407  0.67143653  0.31035438  1  1.683703  0  0.914502  1.414642  0  1.323763  0
Mg  Mg2  1  0.90273981  0.68965705  0.36108939  1  1.682537  0  0.914418  1.414336  0  1.323799  0
Mg  Mg3  1  0.36446358  0.36067297  0.67074597  1  1.684108  0  0.912358  1.411367  0  1.326043  0
Mg  Mg4  1  0.69375851  0.32925460  0.68991397  1  1.683308  0  0.912223  1.411134  0  1.326963  0
Mg  Mg5  1  0.00385310  0.31007814  0.63932604  1  1.682154  0  0.912295  1.411003  0  1.327204  0
H  H6  1  0.51415188  0.52280144  0.01795348  1  0.427841  0  0.294798  0.291392  0  0.975326  0
H  H7  1  0.49619250  0.98204492  0.50483703  1  0.423115  0  0.294868  0.291185  0  0.975153  0
H  H8  1  0.99134661  0.49515730  0.47719862  1  0.456011  0  0.294598  0.290471  0  0.975603  0
H  H9  1  0.32153072  0.52733634  0.04325379  1  0.426886  0  0.297178  0.287789  0  0.972997  0
H  H10  1  0.27825229  0.95674908  0.48407465  1  0.425556  0  0.297077  0.287579  0  0.972798  0
H  H11  1  0.79418145  0.51591951  0.47266526  1  0.42325  0  0.297211  0.287398  0  0.973071  0
H  H12  1  0.49358907  0.49054494  0.95232095  1  0.07577  0  0.105159  0.119455  0  1.008477  0
H  H13  1  0.54137794  0.04767137  0.53821231  1  0.074311  0  0.104618  0.119218  0  1.008791  0
H  H14  1  0.00310739  0.46177934  0.50945057  1  0.0659  0  0.104811  0.119525  0  1.008116  0
H  H15  1  0.94237669  0.42831792  0.89260810  1  0.090095  0  0.100043  0.105843  0  1.034536  0
H  H16  1  0.04981286  0.10737666  0.53569632  1  0.103579  0  0.099987  0.105874  0  1.03374  0
H  H17  1  0.51409073  0.46429724  0.57167632  1  0.100057  0  0.100166  0.106114  0  1.034367  0
H  H18  1  0.78542555  0.45577610  0.95194014  1  0.046078  0  0.098016  0.095373  0  1.019906  0
H  H19  1  0.83351937  0.04805691  0.50383555  1  0.042249  0  0.097863  0.09551  0  1.019444  0
H  H20  1  0.32965588  0.49616882  0.54422226  1  0.049991  0  0.097768  0.09523  0  1.01992  0
H  H21  1  0.06704984  0.56135542  0.04345428  1  0.079361  0  0.106743  0.115122  0  0.992996  0
H  H22  1  0.02362719  0.95654135  0.51789279  1  0.093274  0  0.106643  0.115048  0  0.99328  0
H  H23  1  0.50576943  0.48209169  0.43863419  1  0.099082  0  0.106673  0.115069  0  0.993249  0
H  H24  1  0.88577032  0.58598570  0.10008204  1  0.100549  0  0.105762  0.110294  0  1.007289  0
H  H25  1  0.78564775  0.89992526  0.48589839  1  0.098859  0  0.105774  0.110151  0  1.006853  0
H  H26  1  0.29981689  0.51409624  0.41400713  1  0.098581  0  0.105913  0.110261  0  1.00743  0
H  H27  1  0.59508365  0.47695865  0.06103343  1  0.07428  0  0.108713  0.115073  0  0.985701  0
H  H28  1  0.53403325  0.93896821  0.41591689  1  0.101027  0  0.108657  0.115285  0  0.985989  0
H  H29  1  0.11809870  0.58406156  0.52303401  1  0.080186  0  0.10885  0.115439  0  0.985582  0
H  H30  1  0.78431169  0.45145507  0.00521285  1  0.090965  0  0.105695  0.111287  0  0.991811  0
H  H31  1  0.77908955  0.99478048  0.44623822  1  0.082176  0  0.105664  0.110517  0  0.991905  0
H  H32  1  0.33285633  0.55374727  0.54852705  1  0.078107  0  0.105639  0.1109  0  0.992081  0
H  H33  1  0.31440692  0.56190013  0.15462538  1  0.11566  0  0.110857  0.113129  0  0.996739  0
H  H34  1  0.15981307  0.84539092  0.40726617  1  0.119773  0  0.110892  0.113249  0  0.996613  0
H  H35  1  0.75252355  0.59272068  0.43811127  1  0.100168  0  0.110841  0.113145  0  0.997024  0
H  H36  1  0.18510645  0.58988220  0.21705936  1  0.095072  0  0.108864  0.126857  0  0.992148  0
H  H37  1  0.96823441  0.78294579  0.37281775  1  0.08825  0  0.108649  0.126212  0  0.992576  0
H  H38  1  0.59535171  0.62716864  0.41012006  1  0.099266  0  0.108611  0.12611  0  0.992318  0
H  H39  1  0.88763653  0.61853182  0.20669904  1  0.126717  0  0.111107  0.116276  0  1.013204  0
H  H40  1  0.68099657  0.79331938  0.41185571  1  0.107355  0  0.111169  0.116517  0  1.013083  0
H  H41  1  0.26916640  0.58815011  0.38146581  1  0.123986  0  0.111436  0.116723  0  1.0137  0
H  H42  1  0.61469675  0.43294414  0.84475983  1  0.113693  0  0.111041  0.112982  0  1.002336  0
H  H43  1  0.76982714  0.15525480  0.58818667  1  0.120463  0  0.111351  0.113478  0  1.001723  0
H  H44  1  0.18168456  0.41181611  0.56705326  1  0.114038  0  0.111327  0.113714  0  1.001523  0
H  H45  1  0.73105494  0.40712950  0.78132608  1  0.063283  0  0.107965  0.125506  0  0.997682  0
H  H46  1  0.94978446  0.21866873  0.62580359  1  0.077299  0  0.108066  0.125719  0  0.99864  0
H  H47  1  0.32383076  0.37419540  0.59285842  1  0.077859  0  0.108082  0.125441  0  0.998502  0
H  H48  1  0.02695974  0.38396195  0.79510654  1  0.115033  0  0.111041  0.116231  0  1.013894  0
H  H49  1  0.23176162  0.20490141  0.58885835  1  0.112561  0  0.111081  0.116147  0  1.0141  0
H  H50  1  0.64291334  0.41114446  0.61603479  1  0.126433  0  0.110979  0.116153  0  1.013961  0
C  C51  1  0.25117313  0.49913791  0.98670195  1  0.402026  0  0.097869  0.273142  0  4.062571  0
C  C52  1  0.26450871  0.01330230  0.51244156  1  0.428631  0  0.097242  0.271512  0  4.06375  0
C  C53  1  0.75204127  0.48755685  0.50085283  1  0.444352  0  0.097734  0.271921  0  4.063857  0
C  C54  1  0.33768784  0.48319464  0.95280383  1  -0.035198  0  -0.098967  -0.264256  0  3.911909  0
C  C55  1  0.38500847  0.04719404  0.53037811  1  -0.033563  0  -0.098712  -0.264011  0  3.911216  0
C  C56  1  0.85455588  0.46961165  0.51679925  1  -0.070084  0  -0.099126  -0.265096  0  3.912007  0
C  C57  1  0.22840231  0.45806559  0.91921917  1  0.327748  0  0.079799  0.188844  0  4.081594  0
C  C58  1  0.30927644  0.08077658  0.53884164  1  0.312551  0  0.080007  0.189181  0  4.081418  0
C  C59  1  0.77037995  0.46115360  0.54191967  1  0.365993  0  0.080319  0.190557  0  4.080093  0
C  C60  1  0.02718714  0.44772552  0.91883651  1  -0.016042  0  -0.108043  -0.18256  0  4.011937  0
C  C61  1  0.10842296  0.08115238  0.52888467  1  0.005912  0  -0.108094  -0.18288  0  4.011355  0
C  C62  1  0.57949624  0.47111749  0.55226608  1  -0.004629  0  -0.108505  -0.183928  0  4.012139  0
C  C63  1  0.94200625  0.46311696  0.95210299  1  -0.050631  0  -0.093959  -0.10602  0  4.044194  0
C  C64  1  0.98992529  0.04788923  0.51102190  1  -0.012883  0  -0.093642  -0.105856  0  4.044418  0
C  C65  1  0.47891346  0.48899791  0.53688493  1  -0.054828  0  -0.093674  -0.105429  0  4.043922  0
C  C66  1  0.04735826  0.48908347  0.98642920  1  0.004164  0  -0.023549  -0.055756  0  3.958278  0
C  C67  1  0.06094793  0.01356907  0.50267023  1  -0.029544  0  -0.022934  -0.055048  0  3.958972  0
C  C68  1  0.55825741  0.49733800  0.51090504  1  -0.034587  0  -0.023064  -0.054886  0  3.957869  0
C  C69  1  0.94307563  0.50429457  0.02039927  1  -0.059723  0  -0.006793  0.08288  0  3.998099  0
C  C70  1  0.92275550  0.97958810  0.48388047  1  -0.046018  0  -0.00656  0.083836  0  3.996987  0
C  C71  1  0.43880102  0.51609616  0.49569026  1  -0.023961  0  -0.007377  0.082202  0  3.999449  0
C  C72  1  0.96867978  0.54248182  0.04773773  1  -0.028355  0  -0.092426  -0.131416  0  3.979646  0
C  C73  1  0.92102109  0.95225109  0.49472732  1  -0.025479  0  -0.092679  -0.132441  0  3.979808  0
C  C74  1  0.42629265  0.50525152  0.45750480  1  -0.045051  0  -0.092145  -0.13153  0  3.980099  0
C  C75  1  0.86653280  0.55650781  0.07923942  1  -0.045592  0  -0.088493  -0.14459  0  3.975874  0
C  C76  1  0.78721450  0.92077157  0.47726869  1  -0.054371  0  -0.088394  -0.144279  0  3.974813  0
C  C77  1  0.31009092  0.52272698  0.44348633  1  -0.074139  0  -0.088666  -0.144603  0  3.975801  0
C  C78  1  0.73255048  0.53276405  0.08437934  1  0.253247  0  0.076227  0.157842  0  4.070474  0
C  C79  1  0.64810451  0.91562774  0.44838274  1  0.311233  0  0.076377  0.158401  0  4.070276  0
C  C80  1  0.19983806  0.55160247  0.46723236  1  0.321707  0  0.076677  0.159132  0  4.070642  0
C  C81  1  0.70048584  0.49503598  0.05693919  1  0.021836  0  -0.086132  -0.147738  0  3.993157  0
C  C82  1  0.64352626  0.94306043  0.43808853  1  -0.012733  0  -0.085958  -0.148332  0  3.992561  0
C  C83  1  0.20536489  0.56187608  0.50495247  1  -0.042251  0  -0.08622  -0.148678  0  3.993987  0
C  C84  1  0.80600594  0.48103226  0.02576584  1  -0.07312  0  -0.092455  -0.137014  0  3.989693  0
C  C85  1  0.78027178  0.97422066  0.45525404  1  -0.122415  0  -0.092805  -0.136521  0  3.988119  0
C  C86  1  0.32494064  0.54471603  0.51894909  1  -0.071739  0  -0.0924  -0.136278  0  3.991135  0
C  C87  1  0.61257699  0.58799084  0.17682887  1  0.353273  0  0.07341  0.139486  0  4.089422  0
C  C88  1  0.43581884  0.82318984  0.41117103  1  0.358589  0  0.073568  0.139399  0  4.088489  0
C  C89  1  0.02469449  0.58883623  0.41203187  1  0.413524  0  0.073688  0.140465  0  4.089267  0
C  C90  1  0.41166648  0.58007228  0.17978709  1  -0.021791  0  -0.068586  -0.091912  0  3.934639  0
C  C91  1  0.23202024  0.82023888  0.40026262  1  0.001309  0  -0.069013  -0.092325  0  3.93527  0
C  C92  1  0.83172820  0.59971372  0.41995372  1  -0.072527  0  -0.068871  -0.092518  0  3.936176  0
C  C93  1  0.34002852  0.59550106  0.21443475  1  -0.071646  0  -0.100773  -0.203042  0  3.950308  0
C  C94  1  0.12583336  0.78558783  0.38103933  1  -0.059401  0  -0.100164  -0.201664  0  3.950551  0
C  C95  1  0.74469255  0.61892837  0.40452304  1  -0.009914  0  -0.100005  -0.201189  0  3.950874  0
C  C96  1  0.46392271  0.61833500  0.24776845  1  0.634001  0  0.102424  0.376184  0  4.062052  0
C  C97  1  0.21637433  0.75225865  0.37057420  1  0.61568  0  0.102229  0.376077  0  4.062168  0
C  C98  1  0.84569373  0.62940910  0.38167170  1  0.609688  0  0.10215  0.375355  0  4.062862  0
C  C99  1  0.66660913  0.62650665  0.24442694  1  0.004217  0  -0.041643  -0.205926  0  3.981423  0
C  C100  1  0.42231564  0.75559597  0.38211722  1  0.058947  0  -0.041206  -0.206499  0  3.983743  0
C  C101  1  0.04013526  0.61787744  0.37348022  1  -0.011502  0  -0.041782  -0.205666  0  3.982135  0
C  C102  1  0.73396292  0.61189944  0.20908845  1  -0.084754  0  -0.070666  -0.119162  0  3.950772  0
C  C103  1  0.52494464  0.79093792  0.40283927  1  -0.11142  0  -0.07037  -0.119168  0  3.951536  0
C  C104  1  0.12212489  0.59716641  0.38810697  1  -0.077492  0  -0.071071  -0.120976  0  3.95254  0
C  C105  1  0.81365623  0.64875264  0.27644942  1  1.500121  0  0.239544  0.683684  0  4.119911  0
C  C106  1  0.53725861  0.72356463  0.37234794  1  1.51949  0  0.23954  0.683361  0  4.121521  0
C  C107  1  0.16492458  0.62766932  0.35123953  1  1.505365  0  0.239451  0.683917  0  4.119776  0
C  C108  1  0.31068726  0.41036403  0.82382636  1  0.354263  0  0.074759  0.138938  0  4.088863  0
C  C109  1  0.48671934  0.17618180  0.58655545  1  0.418533  0  0.074799  0.138644  0  4.088031  0
C  C110  1  0.90017995  0.41345063  0.58961457  1  0.409399  0  0.074891  0.138313  0  4.087875  0
C  C111  1  0.51224379  0.41662045  0.81989845  1  0.014358  0  -0.068012  -0.088659  0  3.932959  0
C  C112  1  0.69222515  0.18011650  0.59673564  1  -0.06571  0  -0.068088  -0.088944  0  3.933162  0
C  C113  1  0.09547321  0.40326908  0.58336173  1  -0.042798  0  -0.068134  -0.089078  0  3.932916  0
C  C114  1  0.57650085  0.40239651  0.78480642  1  -0.046006  0  -0.099931  -0.202479  0  3.953063  0
C  C115  1  0.79173789  0.21519952  0.61760387  1  -0.011647  0  -0.100136  -0.202468  0  3.955151  0
C  C116  1  0.17396310  0.38239143  0.59757185  1  -0.014812  0  -0.100179  -0.202419  0  3.95462  0
C  C117  1  0.44583888  0.38174340  0.75195425  1  0.571551  0  0.103476  0.377038  0  4.057553  0
C  C118  1  0.69391317  0.24804756  0.62980364  1  0.61881  0  0.102992  0.376282  0  4.057197  0
C  C119  1  0.06401438  0.37020928  0.61824562  1  0.574396  0  0.102671  0.375724  0  4.057934  0
C  C120  1  0.24269552  0.37486759  0.75610484  1  0.005932  0  -0.042081  -0.205276  0  3.977143  0
C  C121  1  0.48658791  0.24389338  0.61878266  1  -0.023624  0  -0.042007  -0.205021  0  3.974883  0
C  C122  1  0.86779037  0.38124526  0.62512763  1  -0.009508  0  -0.041686  -0.20411  0  3.97547  0
C  C123  1  0.18128727  0.38919808  0.79191657  1  0.001996  0  -0.07046  -0.120157  0  3.949341  0
C  C124  1  0.38924321  0.20809111  0.59730847  1  -0.068389  0  -0.069929  -0.119234  0  3.947928  0
C  C125  1  0.79197559  0.40270894  0.61078396  1  -0.063365  0  -0.070111  -0.119381  0  3.947236  0
C  C126  1  0.09192604  0.35348381  0.72447398  1  1.486233  0  0.239657  0.682309  0  4.120667  0
C  C127  1  0.36753325  0.27553172  0.62901989  1  1.520122  0  0.23948  0.682248  0  4.119916  0
C  C128  1  0.73845909  0.37099443  0.64650937  1  1.503128  0  0.239819  0.681717  0  4.120261  0
N  N129  1  0.36614529  0.52429773  0.01907459  1  -1.189726  0  -0.601013  -0.62049  0  3.336539  0
N  N130  1  0.34706657  0.98092619  0.50521867  1  -1.207782  0  -0.600834  -0.619486  0  3.335077  0
N  N131  1  0.84183935  0.49477668  0.47569887  1  -1.236187  0  -0.600653  -0.618336  0  3.33616  0
N  N132  1  0.62505882  0.54490234  0.11588083  1  -0.483033  0  -0.164886  -0.160401  0  3.273513  0
N  N133  1  0.50916155  0.88412479  0.42901659  1  -0.521979  0  -0.164422  -0.160133  0  3.272426  0
N  N134  1  0.08022122  0.57097233  0.45510611  1  -0.465531  0  -0.165198  -0.161675  0  3.273902  0
N  N135  1  0.70983028  0.57378819  0.14425913  1  -0.475722  0  -0.158488  -0.142465  0  3.339847  0
N  N136  1  0.56560818  0.85575688  0.42953557  1  -0.492512  0  -0.158831  -0.142045  0  3.33821  0
N  N137  1  0.13612653  0.57046991  0.42622504  1  -0.509905  0  -0.15838  -0.141517  0  3.338954  0
N  N138  1  0.33163988  0.44470821  0.88696060  1  -0.459962  0  -0.160863  -0.153919  0  3.255711  0
N  N139  1  0.44470383  0.11304632  0.55774537  1  -0.496029  0  -0.160881  -0.154072  0  3.257702  0
N  N140  1  0.88692835  0.44225298  0.55528502  1  -0.467619  0  -0.160951  -0.154315  0  3.256497  0
N  N141  1  0.22115366  0.42403049  0.85718159  1  -0.522459  0  -0.156352  -0.136108  0  3.338856  0
N  N142  1  0.36392017  0.14281734  0.56684680  1  -0.490651  0  -0.156707  -0.136487  0  3.340849  0
N  N143  1  0.79705784  0.43315258  0.57595714  1  -0.514922  0  -0.156484  -0.136183  0  3.339946  0
O  O144  1  0.98685086  0.65780280  0.27182958  1  -1.238616  0  -0.358248  -0.641346  0  2.146429  0
O  O145  1  0.71508385  0.72818051  0.38601119  1  -1.243886  0  -0.35783  -0.640593  0  2.147239  0
O  O146  1  0.32910911  0.61401153  0.34219424  1  -1.240348  0  -0.35816  -0.640894  0  2.146557  0
O  O147  1  0.76415017  0.65783556  0.30932179  1  -1.290695  0  -0.406384  -0.773316  0  2.4247  0
O  O148  1  0.45484077  0.69069662  0.34855567  1  -1.306459  0  -0.406753  -0.773122  0  2.423696  0
O  O149  1  0.10637026  0.65147563  0.34217676  1  -1.294274  0  -0.406362  -0.773843  0  2.424422  0
O  O150  1  0.38863204  0.63103162  0.28056704  1  -1.307362  0  -0.437583  -0.771693  0  2.303534  0
O  O151  1  0.10825128  0.71945855  0.35047273  1  -1.310046  0  -0.43812  -0.772338  0  2.302072  0
O  O152  1  0.75771727  0.64951385  0.36897736  1  -1.311487  0  -0.437598  -0.771505  0  2.30305  0
O  O153  1  0.91845414  0.34495572  0.72948168  1  -1.238801  0  -0.356321  -0.640422  0  2.148109  0
O  O154  1  0.18907450  0.27052284  0.61547107  1  -1.243088  0  -0.356366  -0.640768  0  2.14861  0
O  O155  1  0.57349746  0.38452231  0.65504128  1  -1.239708  0  -0.356758  -0.640646  0  2.147913  0
O  O156  1  0.13886558  0.34409382  0.69135846  1  -1.295756  0  -0.404968  -0.773491  0  2.419104  0
O  O157  1  0.44755602  0.30865031  0.65274274  1  -1.306551  0  -0.404736  -0.773023  0  2.418781  0
O  O158  1  0.79481315  0.34726628  0.65589355  1  -1.295767  0  -0.404862  -0.773061  0  2.418322  0
O  O159  1  0.51697392  0.36982525  0.71889727  1  -1.308714  0  -0.438981  -0.769217  0  2.304159  0
O  O160  1  0.79809943  0.28110746  0.65092611  1  -1.313425  0  -0.439051  -0.769332  0  2.304938  0
O  O161  1  0.14710698  0.34908542  0.63017293  1  -1.305047  0  -0.438779  -0.768815  0  2.304315  0
