# generated using pymatgen
data_ZnH10C16N8O
_symmetry_space_group_name_H-M   'P 1'
_cell_length_a   7.37953035
_cell_length_b   12.74706384
_cell_length_c   18.46647294
_cell_angle_alpha   90.00022577
_cell_angle_beta   89.99992447
_cell_angle_gamma   93.63210856
_symmetry_Int_Tables_number   1
_chemical_formula_structural   ZnH10C16N8O
_chemical_formula_sum   'Zn4 H40 C64 N32 O4'
_cell_volume   1733.60291954
_cell_formula_units_Z   4
loop_
 _symmetry_equiv_pos_site_id
 _symmetry_equiv_pos_as_xyz
  1  'x, y, z'
loop_
 _atom_site_type_symbol
 _atom_site_label
 _atom_site_symmetry_multiplicity
 _atom_site_fract_x
 _atom_site_fract_y
 _atom_site_fract_z
 _atom_site_occupancy
 _atom_site_hle17_bader_spin_density
 _atom_site_hle17_ddec_charge
 _atom_site_hle17_ddec_spin_density
 _atom_site_hle17_ddec_sum_bond_order
 _atom_site_hle17_magmom
 _atom_site_hse06_10hf_bader_spin_density
 _atom_site_hse06_10hf_ddec_charge
 _atom_site_hse06_10hf_ddec_spin_density
 _atom_site_hse06_10hf_ddec_sum_bond_order
 _atom_site_hse06_10hf_magmom
 _atom_site_hse06_bader_spin_density
 _atom_site_hse06_ddec_charge
 _atom_site_hse06_ddec_spin_density
 _atom_site_hse06_ddec_sum_bond_order
 _atom_site_hse06_magmom
 _atom_site_pbe_bader_spin_density
 _atom_site_pbe_cm5_charge
 _atom_site_pbe_ddec_charge
 _atom_site_pbe_ddec_spin_density
 _atom_site_pbe_ddec_sum_bond_order
 _atom_site_pbe_magmom
Zn  Zn0  1  0.63282779  0.55816747  0.71951645  1  0  1.103594  0  1.923266  0  0  0.929368  0  2.4098  0  0  0.971942  0  2.355829  0  0  0.762383  0.899888  0  2.446901  0
Zn  Zn1  1  0.36718946  0.94181593  0.21943508  1  0  1.103846  0  1.923044  0  0  0.929701  0  2.409388  0  0  0.972298  0  2.355365  0  0  0.762224  0.900226  0  2.446461  0
Zn  Zn2  1  0.36716755  0.44192863  0.28017854  1  0  1.102064  0  1.924848  0  0  0.927421  0  2.411985  0  0  0.969973  0  2.358047  0  0  0.762392  0.89794  0  2.449103  0
Zn  Zn3  1  0.63284865  0.05805869  0.78009637  1  0  1.101552  0  1.92531  0  0  0.926647  0  2.412877  0  0  0.969202  0  2.358935  0  0  0.762346  0.89716  0  2.449991  0
H  H4  1  0.50568819  0.46288036  0.59987466  1  0  0.395651  0  0.899776  0  0  0.370214  0  0.963426  0  0  0.378866  0  0.950624  0  0  0.287631  0.364105  0  0.972479  0
H  H5  1  0.49424263  0.03711434  0.09988039  1  0  0.395025  0  0.900175  0  0  0.369719  0  0.963938  0  0  0.378366  0  0.951144  0  0  0.287633  0.363606  0  0.972992  0
H  H6  1  0.49420156  0.53714941  0.40013386  1  0  0.396593  0  0.899132  0  0  0.370814  0  0.963014  0  0  0.379503  0  0.950147  0  0  0.287665  0.364693  0  0.972083  0
H  H7  1  0.50572590  0.96282294  0.90013896  1  0  0.39717  0  0.899254  0  0  0.371254  0  0.962643  0  0  0.379946  0  0.949778  0  0  0.287938  0.365129  0  0.971718  0
H  H8  1  0.54396070  0.54696785  0.53996674  1  0  0.408169  0  0.854455  0  0  0.388435  0  0.918493  0  0  0.397457  0  0.90567  0  0  0.300392  0.381974  0  0.926538  0
H  H9  1  0.45606300  0.95339725  0.03971640  1  0  0.407542  0  0.856258  0  0  0.387621  0  0.920717  0  0  0.396681  0  0.907143  0  0  0.29944  0.381118  0  0.928854  0
H  H10  1  0.45574967  0.45157460  0.45903239  1  0  0.409681  0  0.850449  0  0  0.390143  0  0.914039  0  0  0.399041  0  0.902543  0  0  0.302572  0.383751  0  0.922027  0
H  H11  1  0.54439116  0.04876851  0.95877045  1  0  0.40901  0  0.850297  0  0  0.389668  0  0.913476  0  0  0.398522  0  0.90246  0  0  0.302988  0.38332  0  0.92139  0
H  H12  1  0.64070215  0.75282482  0.79370251  1  0  0.081344  0  0.951425  0  0  0.088643  0  1.020678  0  0  0.090386  0  1.019028  0  0  0.114929  0.087287  0  1.022003  0
H  H13  1  0.35933576  0.74719127  0.29369534  1  0  0.081431  0  0.951429  0  0  0.088595  0  1.020796  0  0  0.090328  0  1.019172  0  0  0.114932  0.087241  0  1.022124  0
H  H14  1  0.35939735  0.24714822  0.20624591  1  0  0.081581  0  0.950697  0  0  0.0886  0  1.020136  0  0  0.090342  0  1.018485  0  0  0.114947  0.087242  0  1.021468  0
H  H15  1  0.64061846  0.25287327  0.70623575  1  0  0.081624  0  0.950853  0  0  0.088682  0  1.020164  0  0  0.090396  0  1.018577  0  0  0.115033  0.08733  0  1.021477  0
H  H16  1  0.72550783  0.83187303  0.91398274  1  0  0.125338  0  0.956758  0  0  0.137532  0  1.010005  0  0  0.140081  0  1.009964  0  0  0.111245  0.135711  0  1.010171  0
H  H17  1  0.27454882  0.66813121  0.41396998  1  0  0.125106  0  0.956754  0  0  0.137223  0  1.010176  0  0  0.139782  0  1.010116  0  0  0.111038  0.135392  0  1.010367  0
H  H18  1  0.27472684  0.16808312  0.08596839  1  0  0.124938  0  0.957443  0  0  0.136789  0  1.011317  0  0  0.139427  0  1.011131  0  0  0.110891  0.134866  0  1.011669  0
H  H19  1  0.72531634  0.33192363  0.58595515  1  0  0.125087  0  0.957261  0  0  0.137004  0  1.010994  0  0  0.139626  0  1.010842  0  0  0.111007  0.135094  0  1.011329  0
H  H20  1  0.78814575  0.71382655  0.01665203  1  0  0.096582  0  0.969452  0  0  0.104572  0  1.03503  0  0  0.107493  0  1.032738  0  0  0.106326  0.102402  0  1.036716  0
H  H21  1  0.21185634  0.78617452  0.51664326  1  0  0.09648  0  0.969432  0  0  0.104504  0  1.035  0  0  0.107435  0  1.032707  0  0  0.106212  0.102336  0  1.036683  0
H  H22  1  0.21182716  0.28620818  0.98332130  1  0  0.096088  0  0.969891  0  0  0.104127  0  1.035427  0  0  0.107027  0  1.033155  0  0  0.106105  0.101962  0  1.037108  0
H  H23  1  0.78817667  0.21379753  0.48331274  1  0  0.096321  0  0.969943  0  0  0.104321  0  1.035506  0  0  0.107229  0  1.033227  0  0  0.106219  0.102152  0  1.037189  0
H  H24  1  0.85040379  0.60968531  0.09487254  1  0  0.092849  0  0.970475  0  0  0.100726  0  1.037762  0  0  0.10319  0  1.036761  0  0  0.102931  0.098921  0  1.038521  0
H  H25  1  0.14959888  0.89031070  0.59486139  1  0  0.092845  0  0.970461  0  0  0.100643  0  1.037844  0  0  0.103106  0  1.036849  0  0  0.10288  0.098841  0  1.0386  0
H  H26  1  0.14953414  0.39031160  0.90512298  1  0  0.09251  0  0.970585  0  0  0.100331  0  1.037994  0  0  0.1028  0  1.036983  0  0  0.102732  0.098526  0  1.038757  0
H  H27  1  0.85046504  0.10968581  0.40511681  1  0  0.092656  0  0.970416  0  0  0.100474  0  1.03784  0  0  0.102943  0  1.036829  0  0  0.102817  0.098669  0  1.038602  0
H  H28  1  0.91402569  0.47002800  0.18416443  1  0  0.086422  0  0.986312  0  0  0.097427  0  1.048019  0  0  0.0991  0  1.04901  0  0  0.097771  0.096184  0  1.047465  0
H  H29  1  0.08598551  0.02996034  0.68416261  1  0  0.086213  0  0.986569  0  0  0.097219  0  1.048294  0  0  0.098872  0  1.049342  0  0  0.097692  0.095978  0  1.047733  0
H  H30  1  0.08592471  0.52994459  0.81581052  1  0  0.086197  0  0.986338  0  0  0.097298  0  1.047987  0  0  0.098927  0  1.049011  0  0  0.09779  0.096053  0  1.047461  0
H  H31  1  0.91407115  0.97004478  0.31581126  1  0  0.086373  0  0.986166  0  0  0.097446  0  1.04781  0  0  0.099097  0  1.048805  0  0  0.097924  0.096197  0  1.047288  0
H  H32  1  0.85227591  0.28260782  0.15144977  1  0  0.059662  0  0.97821  0  0  0.064989  0  1.047599  0  0  0.06695  0  1.046674  0  0  0.101366  0.063536  0  1.048278  0
H  H33  1  0.14773283  0.21738191  0.65145438  1  0  0.059531  0  0.978374  0  0  0.064869  0  1.047755  0  0  0.066831  0  1.046833  0  0  0.101306  0.063418  0  1.048433  0
H  H34  1  0.14769666  0.71735619  0.84851598  1  0  0.059691  0  0.978034  0  0  0.064822  0  1.047634  0  0  0.066778  0  1.046715  0  0  0.101358  0.063382  0  1.048323  0
H  H35  1  0.85230069  0.78263572  0.34852111  1  0  0.059737  0  0.978053  0  0  0.064874  0  1.047627  0  0  0.066825  0  1.046717  0  0  0.101422  0.063435  0  1.048315  0
H  H36  1  0.64693679  0.26735744  0.91927970  1  0  0.111559  0  0.948552  0  0  0.121316  0  1.009759  0  0  0.124182  0  1.008244  0  0  0.106207  0.119232  0  1.010942  0
H  H37  1  0.35307327  0.23265423  0.41928387  1  0  0.111789  0  0.948463  0  0  0.12157  0  1.009582  0  0  0.124435  0  1.008074  0  0  0.106251  0.11949  0  1.010757  0
H  H38  1  0.35310021  0.73269478  0.08067576  1  0  0.113009  0  0.947139  0  0  0.122859  0  1.007869  0  0  0.125722  0  1.006371  0  0  0.107022  0.120774  0  1.009054  0
H  H39  1  0.64691556  0.76732319  0.58068296  1  0  0.112705  0  0.947499  0  0  0.122572  0  1.008283  0  0  0.125435  0  1.006778  0  0  0.106858  0.120491  0  1.009468  0
H  H40  1  0.59145832  0.39335541  0.82107813  1  0  0.108077  0  0.971427  0  0  0.118124  0  1.035171  0  0  0.120417  0  1.034762  0  0  0.104219  0.116445  0  1.035608  0
H  H41  1  0.40853271  0.10665250  0.32107760  1  0  0.108327  0  0.971356  0  0  0.118272  0  1.035162  0  0  0.120562  0  1.034759  0  0  0.104265  0.11659  0  1.035604  0
H  H42  1  0.40857533  0.60669051  0.17887678  1  0  0.108281  0  0.97118  0  0  0.118343  0  1.034923  0  0  0.120659  0  1.034441  0  0  0.10424  0.116652  0  1.035395  0
H  H43  1  0.59143299  0.89332406  0.67887732  1  0  0.108078  0  0.971317  0  0  0.118141  0  1.035098  0  0  0.120454  0  1.03462  0  0  0.104172  0.116453  0  1.03556  0
C  C44  1  0.96671988  0.40702822  0.72203098  1  0  0.521856  0  3.941647  0  0  0.48105  0  4.223723  0  0  0.506919  0  4.234181  0  0  0.326106  0.463345  0  4.216395  0
C  C45  1  0.03331871  0.09297771  0.22203386  1  0  0.521906  0  3.941826  0  0  0.481081  0  4.223899  0  0  0.506946  0  4.234378  0  0  0.326283  0.463377  0  4.216577  0
C  C46  1  0.03315859  0.59294337  0.27797754  1  0  0.523278  0  3.940938  0  0  0.482052  0  4.222966  0  0  0.507951  0  4.233437  0  0  0.326817  0.464328  0  4.21565  0
C  C47  1  0.96690519  0.90707349  0.77798225  1  0  0.522924  0  3.94153  0  0  0.481647  0  4.22359  0  0  0.50755  0  4.23406  0  0  0.32671  0.463921  0  4.216268  0
C  C48  1  0.27512117  0.40567223  0.71483325  1  0  0.541309  0  3.944143  0  0  0.497812  0  4.222786  0  0  0.524703  0  4.233084  0  0  0.332034  0.479422  0  4.215511  0
C  C49  1  0.72490410  0.09436269  0.21486772  1  0  0.540615  0  3.944952  0  0  0.497106  0  4.223652  0  0  0.523991  0  4.233972  0  0  0.331769  0.47872  0  4.216378  0
C  C50  1  0.72468483  0.59419856  0.28532365  1  0  0.542635  0  3.944467  0  0  0.498712  0  4.222828  0  0  0.525654  0  4.233111  0  0  0.332495  0.480291  0  4.21557  0
C  C51  1  0.27537023  0.90582618  0.78535525  1  0  0.542444  0  3.944217  0  0  0.498508  0  4.222427  0  0  0.525464  0  4.232692  0  0  0.332404  0.48008  0  4.215176  0
C  C52  1  0.98832397  0.67609368  0.66022853  1  0  0.537978  0  3.944567  0  0  0.495198  0  4.229103  0  0  0.521598  0  4.23955  0  0  0.324115  0.477075  0  4.221691  0
C  C53  1  0.01164968  0.82387196  0.16023583  1  0  0.537402  0  3.945189  0  0  0.494687  0  4.229773  0  0  0.521083  0  4.240238  0  0  0.323929  0.476553  0  4.22236  0
C  C54  1  0.01181686  0.32403429  0.33979787  1  0  0.538338  0  3.945749  0  0  0.495562  0  4.230272  0  0  0.521979  0  4.240719  0  0  0.324464  0.477419  0  4.222857  0
C  C55  1  0.98815773  0.17593203  0.83981114  1  0  0.538187  0  3.946375  0  0  0.49555  0  4.230791  0  0  0.52198  0  4.241235  0  0  0.324156  0.477401  0  4.223371  0
C  C56  1  0.29692814  0.67812996  0.66351467  1  0  0.521775  0  3.962695  0  0  0.481018  0  4.246214  0  0  0.506992  0  4.257557  0  0  0.317555  0.463206  0  4.238153  0
C  C57  1  0.70309262  0.82184606  0.16353298  1  0  0.521604  0  3.963312  0  0  0.480935  0  4.24679  0  0  0.506905  0  4.258142  0  0  0.317517  0.463111  0  4.238735  0
C  C58  1  0.70310723  0.32195997  0.33655180  1  0  0.522085  0  3.963509  0  0  0.481385  0  4.246954  0  0  0.507364  0  4.258296  0  0  0.317999  0.463563  0  4.238888  0
C  C59  1  0.29688331  0.17801659  0.83657356  1  0  0.521692  0  3.964376  0  0  0.481068  0  4.247868  0  0  0.507061  0  4.259221  0  0  0.317955  0.46324  0  4.23979  0
C  C60  1  0.66356643  0.70293184  0.84032260  1  0  0.153707  0  3.69272  0  0  0.118253  0  3.947742  0  0  0.127197  0  3.965709  0  0  0.052908  0.11253  0  3.93535  0
C  C61  1  0.33645939  0.79708683  0.34031016  1  0  0.154127  0  3.692672  0  0  0.118789  0  3.947642  0  0  0.127736  0  3.965598  0  0  0.053269  0.113062  0  3.935257  0
C  C62  1  0.33651545  0.29704114  0.15962311  1  0  0.153822  0  3.692247  0  0  0.118621  0  3.94697  0  0  0.127599  0  3.964948  0  0  0.053093  0.11288  0  3.934551  0
C  C63  1  0.66350615  0.20298246  0.65961334  1  0  0.153559  0  3.692342  0  0  0.118415  0  3.946896  0  0  0.127398  0  3.964863  0  0  0.052888  0.112678  0  3.934466  0
C  C64  1  0.71229343  0.74680710  0.90757588  1  0  -0.118791  0  3.708998  0  0  -0.130437  0  3.958575  0  0  -0.138636  0  3.980283  0  0  -0.082978  -0.125181  0  3.943956  0
C  C65  1  0.28774170  0.75319862  0.40756173  1  0  -0.118891  0  3.708769  0  0  -0.130515  0  3.958389  0  0  -0.13871  0  3.980091  0  0  -0.083128  -0.12526  0  3.94378  0
C  C66  1  0.28780599  0.25316514  0.09237525  1  0  -0.11906  0  3.710414  0  0  -0.130712  0  3.96012  0  0  -0.138929  0  3.981754  0  0  -0.082991  -0.125438  0  3.945535  0
C  C67  1  0.71221286  0.24684235  0.59236557  1  0  -0.118999  0  3.71006  0  0  -0.13071  0  3.959705  0  0  -0.138928  0  3.981338  0  0  -0.083038  -0.125436  0  3.945115  0
C  C68  1  0.74540662  0.68039443  0.96458558  1  0  -0.020024  0  3.673433  0  0  -0.046289  0  3.922964  0  0  -0.042239  0  3.939806  0  0  -0.058481  -0.048672  0  3.911436  0
C  C69  1  0.25460293  0.81960132  0.46457704  1  0  -0.02038  0  3.673263  0  0  -0.046602  0  3.922937  0  0  -0.042572  0  3.939797  0  0  -0.058609  -0.048981  0  3.911389  0
C  C70  1  0.25460674  0.31961135  0.03538991  1  0  -0.020206  0  3.674189  0  0  -0.046563  0  3.923747  0  0  -0.042471  0  3.940571  0  0  -0.058788  -0.048959  0  3.912182  0
C  C71  1  0.74540948  0.18039503  0.53537895  1  0  -0.020016  0  3.673688  0  0  -0.046304  0  3.923268  0  0  -0.042206  0  3.94007  0  0  -0.058582  -0.048707  0  3.911718  0
C  C72  1  0.72435642  0.57063564  0.95493281  1  0  -0.01789  0  3.738325  0  0  -0.005411  0  3.967984  0  0  -0.009448  0  3.99261  0  0  0.000957  -0.002915  0  3.951454  0
C  C73  1  0.27564717  0.92936789  0.45492293  1  0  -0.017602  0  3.738358  0  0  -0.005503  0  3.968349  0  0  -0.009543  0  3.992987  0  0  0.000888  -0.00299  0  3.951795  0
C  C74  1  0.27562910  0.42937634  0.04503673  1  0  -0.018098  0  3.739181  0  0  -0.005329  0  3.968578  0  0  -0.009379  0  3.993203  0  0  0.000955  -0.002807  0  3.952031  0
C  C75  1  0.72437903  0.07063086  0.54502657  1  0  -0.017457  0  3.739046  0  0  -0.004996  0  3.968782  0  0  -0.009046  0  3.993407  0  0  0.001155  -0.002481  0  3.952232  0
C  C76  1  0.66868469  0.53188368  0.88540081  1  0  0.207496  0  3.76503  0  0  0.20207  0  4.004999  0  0  0.208768  0  4.027606  0  0  0.11318  0.197627  0  3.989611  0
C  C77  1  0.33130059  0.96812412  0.38539535  1  0  0.207437  0  3.765404  0  0  0.202091  0  4.005395  0  0  0.208786  0  4.028001  0  0  0.113324  0.197643  0  3.990006  0
C  C78  1  0.33132282  0.46814487  0.11455302  1  0  0.207993  0  3.765603  0  0  0.202331  0  4.00549  0  0  0.209057  0  4.028097  0  0  0.113104  0.19786  0  3.990096  0
C  C79  1  0.66869149  0.03187217  0.61454549  1  0  0.20746  0  3.766037  0  0  0.201879  0  4.005924  0  0  0.208606  0  4.028535  0  0  0.112924  0.197407  0  3.990528  0
C  C80  1  0.75900268  0.49647570  0.01186577  1  0  -0.021266  0  3.744574  0  0  -0.00724  0  3.969741  0  0  -0.010474  0  3.994867  0  0  -0.00317  -0.005188  0  3.952863  0
C  C81  1  0.24100411  0.00353053  0.51186217  1  0  -0.021896  0  3.745276  0  0  -0.007402  0  3.969966  0  0  -0.010634  0  3.995085  0  0  -0.003363  -0.005359  0  3.953094  0
C  C82  1  0.24094904  0.50353697  0.98811081  1  0  -0.021265  0  3.745075  0  0  -0.007318  0  3.970386  0  0  -0.01055  0  3.995525  0  0  -0.003165  -0.005293  0  3.953537  0
C  C83  1  0.75906538  0.99646756  0.48810682  1  0  -0.021465  0  3.745163  0  0  -0.007392  0  3.970455  0  0  -0.010621  0  3.995595  0  0  -0.003092  -0.005347  0  3.953571  0
C  C84  1  0.82454858  0.52694778  0.08102843  1  0  -0.052558  0  3.710217  0  0  -0.077999  0  3.963265  0  0  -0.076955  0  3.983377  0  0  -0.072629  -0.078408  0  3.949517  0
C  C85  1  0.17545700  0.97304974  0.58102127  1  0  -0.052806  0  3.710675  0  0  -0.07831  0  3.963719  0  0  -0.077264  0  3.983822  0  0  -0.072817  -0.078723  0  3.949978  0
C  C86  1  0.17538545  0.47305070  0.91895464  1  0  -0.052661  0  3.710559  0  0  -0.078085  0  3.963846  0  0  -0.07706  0  3.983959  0  0  -0.072778  -0.078472  0  3.950079  0
C  C87  1  0.82462047  0.02694681  0.41895043  1  0  -0.052637  0  3.710262  0  0  -0.078103  0  3.96354  0  0  -0.077084  0  3.983662  0  0  -0.07275  -0.078493  0  3.949769  0
C  C88  1  0.85863021  0.45005975  0.13100104  1  0  -0.118425  0  3.748003  0  0  -0.132418  0  4.001191  0  0  -0.138868  0  4.024527  0  0  -0.093993  -0.128175  0  3.985361  0
C  C89  1  0.14138200  0.04993694  0.63100250  1  0  -0.118424  0  3.748632  0  0  -0.132405  0  4.001879  0  0  -0.13886  0  4.025207  0  0  -0.094047  -0.12816  0  3.986047  0
C  C90  1  0.14130670  0.54991358  0.86897337  1  0  -0.117509  0  3.747619  0  0  -0.131611  0  4.000712  0  0  -0.13799  0  4.024045  0  0  -0.09342  -0.127388  0  3.984894  0
C  C91  1  0.85869737  0.95007847  0.36897624  1  0  -0.117437  0  3.747462  0  0  -0.131499  0  4.000535  0  0  -0.137893  0  4.02385  0  0  -0.093416  -0.127277  0  3.984722  0
C  C92  1  0.82517633  0.34363985  0.11213699  1  0  0.132671  0  3.754939  0  0  0.106825  0  4.019362  0  0  0.112836  0  4.036604  0  0  0.040662  0.10302  0  4.00742  0
C  C93  1  0.17483124  0.15635044  0.61214143  1  0  0.132612  0  3.75562  0  0  0.106765  0  4.020064  0  0  0.11277  0  4.037313  0  0  0.040528  0.102963  0  4.008116  0
C  C94  1  0.17477925  0.65633040  0.88783038  1  0  0.13273  0  3.755279  0  0  0.107033  0  4.019657  0  0  0.113041  0  4.036874  0  0  0.04066  0.10321  0  4.007755  0
C  C95  1  0.82522740  0.84366098  0.38783352  1  0  0.133106  0  3.754977  0  0  0.107406  0  4.019321  0  0  0.113415  0  4.036548  0  0  0.040882  0.103582  0  4.007419  0
C  C96  1  0.73142319  0.38656821  0.99778590  1  0  0.187662  0  3.803155  0  0  0.189064  0  4.047555  0  0  0.193885  0  4.068811  0  0  0.107137  0.185815  0  4.033101  0
C  C97  1  0.26857917  0.11343680  0.49778112  1  0  0.188117  0  3.803034  0  0  0.189452  0  4.047313  0  0  0.194281  0  4.068557  0  0  0.107287  0.1862  0  4.032867  0
C  C98  1  0.26855053  0.61344767  0.00219014  1  0  0.18785  0  3.801958  0  0  0.189022  0  4.046774  0  0  0.193832  0  4.068013  0  0  0.107252  0.185788  0  4.032334  0
C  C99  1  0.73145741  0.88655726  0.50219004  1  0  0.187707  0  3.802294  0  0  0.188897  0  4.047081  0  0  0.193696  0  4.06833  0  0  0.107226  0.185665  0  4.032631  0
C  C100  1  0.66804090  0.35171138  0.92814235  1  0  -0.101111  0  3.706823  0  0  -0.123965  0  3.959587  0  0  -0.126017  0  3.979571  0  0  -0.078431  -0.122411  0  3.945868  0
C  C101  1  0.33195765  0.14830737  0.42814251  1  0  -0.101367  0  3.706593  0  0  -0.124257  0  3.959358  0  0  -0.126318  0  3.979337  0  0  -0.078372  -0.122698  0  3.94565  0
C  C102  1  0.33195551  0.64834150  0.07182881  1  0  -0.100236  0  3.703785  0  0  -0.123074  0  3.956503  0  0  -0.125064  0  3.976425  0  0  -0.077889  -0.121566  0  3.942835  0
C  C103  1  0.66805861  0.85167327  0.57182811  1  0  -0.100204  0  3.704123  0  0  -0.123099  0  3.956908  0  0  -0.12508  0  3.97683  0  0  -0.077909  -0.1216  0  3.943239  0
C  C104  1  0.63842925  0.42133046  0.87390958  1  0  -0.13842  0  3.735973  0  0  -0.160726  0  3.992832  0  0  -0.165484  0  4.015288  0  0  -0.089853  -0.15739  0  3.97745  0
C  C105  1  0.36156570  0.07867776  0.37390195  1  0  -0.138239  0  3.735451  0  0  -0.160461  0  3.992293  0  0  -0.165211  0  4.014735  0  0  -0.089742  -0.157134  0  3.97693  0
C  C106  1  0.36159374  0.57869028  0.12605888  1  0  -0.139537  0  3.735639  0  0  -0.161836  0  3.992709  0  0  -0.166642  0  4.015175  0  0  -0.089931  -0.158462  0  3.977318  0
C  C107  1  0.63841249  0.92132871  0.62606000  1  0  -0.139134  0  3.735623  0  0  -0.161432  0  3.992656  0  0  -0.166239  0  4.015127  0  0  -0.089782  -0.158054  0  3.977264  0
N  N108  1  0.82367299  0.44242261  0.71892436  1  0  -0.582323  0  2.875382  0  0  -0.531584  0  3.169058  0  0  -0.553684  0  3.171896  0  0  -0.362131  -0.516506  0  3.167153  0
N  N109  1  0.17634155  0.05755966  0.21892327  1  0  -0.582258  0  2.875448  0  0  -0.531436  0  3.168914  0  0  -0.553543  0  3.171772  0  0  -0.362201  -0.516362  0  3.167005  0
N  N110  1  0.17626442  0.55762303  0.28105493  1  0  -0.583131  0  2.875878  0  0  -0.532422  0  3.170037  0  0  -0.554542  0  3.172826  0  0  -0.362377  -0.517346  0  3.168177  0
N  N111  1  0.82377139  0.94237177  0.78105493  1  0  -0.582966  0  2.875984  0  0  -0.532261  0  3.170194  0  0  -0.554373  0  3.172968  0  0  -0.362284  -0.517187  0  3.168342  0
N  N112  1  0.11740173  0.36078445  0.72792019  1  0  -0.4503  0  3.28271  0  0  -0.393314  0  3.542351  0  0  -0.417737  0  3.546893  0  0  -0.294894  -0.376311  0  3.538646  0
N  N113  1  0.88265213  0.13925221  0.22792871  1  0  -0.450405  0  3.283003  0  0  -0.393347  0  3.542588  0  0  -0.417786  0  3.547166  0  0  -0.294969  -0.376347  0  3.538875  0
N  N114  1  0.88234138  0.63906729  0.27212841  1  0  -0.450869  0  3.282421  0  0  -0.393139  0  3.541552  0  0  -0.417542  0  3.545995  0  0  -0.294603  -0.376117  0  3.537834  0
N  N115  1  0.11773851  0.86097473  0.77213560  1  0  -0.450283  0  3.283448  0  0  -0.39246  0  3.54245  0  0  -0.416887  0  3.546927  0  0  -0.294363  -0.375435  0  3.538726  0
N  N116  1  0.42553685  0.43896064  0.70361509  1  0  -0.633631  0  2.900083  0  0  -0.572788  0  3.185419  0  0  -0.595774  0  3.186043  0  0  -0.377965  -0.557093  0  3.185008  0
N  N117  1  0.57448765  0.06106636  0.20367391  1  0  -0.633099  0  2.90034  0  0  -0.572302  0  3.185656  0  0  -0.595274  0  3.186279  0  0  -0.377996  -0.5566  0  3.185206  0
N  N118  1  0.57431809  0.56092522  0.29666745  1  0  -0.634394  0  2.902464  0  0  -0.573214  0  3.187924  0  0  -0.596288  0  3.188502  0  0  -0.378014  -0.557484  0  3.187569  0
N  N119  1  0.42574563  0.93910511  0.79672288  1  0  -0.634399  0  2.901772  0  0  -0.573154  0  3.187244  0  0  -0.596237  0  3.187815  0  0  -0.377872  -0.557405  0  3.186863  0
N  N120  1  0.83924037  0.66119999  0.68218726  1  0  -0.600975  0  2.879548  0  0  -0.549853  0  3.175985  0  0  -0.572859  0  3.178311  0  0  -0.376701  -0.534156  0  3.174477  0
N  N121  1  0.16073293  0.83873592  0.18222215  1  0  -0.600627  0  2.879818  0  0  -0.549504  0  3.176211  0  0  -0.572525  0  3.178562  0  0  -0.376539  -0.533808  0  3.174697  0
N  N122  1  0.16097790  0.33909166  0.31793769  1  0  -0.601284  0  2.8803  0  0  -0.550058  0  3.176832  0  0  -0.57308  0  3.179134  0  0  -0.376666  -0.534335  0  3.175312  0
N  N123  1  0.83897852  0.16084148  0.81797916  1  0  -0.60128  0  2.880452  0  0  -0.550061  0  3.17704  0  0  -0.573069  0  3.179282  0  0  -0.376286  -0.534359  0  3.175584  0
N  N124  1  0.14651416  0.69656457  0.63144472  1  0  -0.457984  0  3.268141  0  0  -0.400858  0  3.524898  0  0  -0.424486  0  3.527267  0  0  -0.2993  -0.384188  0  3.522537  0
N  N125  1  0.85348633  0.80343792  0.13142987  1  0  -0.457795  0  3.268444  0  0  -0.400835  0  3.525283  0  0  -0.424458  0  3.527661  0  0  -0.299424  -0.384128  0  3.522878  0
N  N126  1  0.85360415  0.30342031  0.36851020  1  0  -0.45773  0  3.269148  0  0  -0.400746  0  3.526084  0  0  -0.424372  0  3.528463  0  0  -0.299463  -0.384069  0  3.523707  0
N  N127  1  0.14637567  0.19658548  0.86849201  1  0  -0.457104  0  3.270413  0  0  -0.40035  0  3.52747  0  0  -0.423994  0  3.529861  0  0  -0.299351  -0.383665  0  3.525087  0
N  N128  1  0.44123797  0.66475513  0.68800602  1  0  -0.608676  0  2.85948  0  0  -0.558648  0  3.151515  0  0  -0.581142  0  3.15422  0  0  -0.377359  -0.54326  0  3.149716  0
N  N129  1  0.55881416  0.83519676  0.18806019  1  0  -0.60855  0  2.860522  0  0  -0.558543  0  3.152518  0  0  -0.581036  0  3.155239  0  0  -0.377281  -0.543162  0  3.150713  0
N  N130  1  0.55867634  0.33545153  0.31220666  1  0  -0.609172  0  2.859205  0  0  -0.559026  0  3.151048  0  0  -0.581538  0  3.153784  0  0  -0.377596  -0.543623  0  3.149229  0
N  N131  1  0.44136166  0.16449754  0.81227217  1  0  -0.609093  0  2.859205  0  0  -0.55886  0  3.15094  0  0  -0.581382  0  3.153693  0  0  -0.377497  -0.543445  0  3.149101  0
N  N132  1  0.64413400  0.59927511  0.82896729  1  0  -0.395306  0  3.275555  0  0  -0.315017  0  3.545562  0  0  -0.336208  0  3.562369  0  0  -0.325101  -0.300643  0  3.533836  0
N  N133  1  0.35586753  0.90074421  0.32895459  1  0  -0.395339  0  3.274815  0  0  -0.315136  0  3.544784  0  0  -0.336303  0  3.561573  0  0  -0.325037  -0.300775  0  3.533064  0
N  N134  1  0.35590418  0.40070795  0.17096759  1  0  -0.395487  0  3.277285  0  0  -0.314619  0  3.547097  0  0  -0.335857  0  3.563869  0  0  -0.325509  -0.300221  0  3.535399  0
N  N135  1  0.64410057  0.09931016  0.67095809  1  0  -0.395629  0  3.277833  0  0  -0.314568  0  3.547475  0  0  -0.335806  0  3.564205  0  0  -0.325693  -0.300159  0  3.535781  0
N  N136  1  0.76302397  0.31151353  0.04791355  1  0  -0.351804  0  3.023853  0  0  -0.323289  0  3.28711  0  0  -0.333684  0  3.300772  0  0  -0.32802  -0.316155  0  3.277682  0
N  N137  1  0.23697740  0.18848031  0.54792020  1  0  -0.351753  0  3.023645  0  0  -0.323249  0  3.28691  0  0  -0.333637  0  3.300567  0  0  -0.327975  -0.316123  0  3.277488  0
N  N138  1  0.23692043  0.68848026  0.95205003  1  0  -0.351504  0  3.023218  0  0  -0.32289  0  3.286257  0  0  -0.333262  0  3.299915  0  0  -0.32777  -0.315772  0  3.276838  0
N  N139  1  0.76308277  0.81151933  0.45205691  1  0  -0.351634  0  3.023146  0  0  -0.323041  0  3.286245  0  0  -0.333416  0  3.299907  0  0  -0.327878  -0.315919  0  3.276826  0
O  O140  1  0.60104782  0.49267492  0.56759131  1  0  -0.805288  0  1.781925  0  0  -0.763756  0  1.929982  0  0  -0.780261  0  1.90366  0  0  -0.591644  -0.751971  0  1.947396  0
O  O141  1  0.39856339  0.00698389  0.06788347  1  0  -0.804436  0  1.783229  0  0  -0.763031  0  1.931836  0  0  -0.779537  0  1.904773  0  0  -0.591653  -0.751215  0  1.949295  0
O  O142  1  0.40032089  0.50843821  0.43351759  1  0  -0.80623  0  1.779354  0  0  -0.764732  0  1.926407  0  0  -0.781163  0  1.90115  0  0  -0.590953  -0.753005  0  1.943859  0
O  O143  1  0.59917399  0.99116841  0.93384276  1  0  -0.805662  0  1.779938  0  0  -0.764099  0  1.926267  0  0  -0.780522  0  1.90142  0  0  -0.59079  -0.752398  0  1.943688  0
