# generated using pymatgen
data_LaH13C21(N3O10)2
_symmetry_space_group_name_H-M   'P 1'
_cell_length_a   9.49382866
_cell_length_b   12.08746145
_cell_length_c   14.11700000
_cell_angle_alpha   114.50599801
_cell_angle_beta   102.34282144
_cell_angle_gamma   97.41230654
_symmetry_Int_Tables_number   1
_chemical_formula_structural   LaH13C21(N3O10)2
_chemical_formula_sum   'La2 H26 C42 N12 O40'
_cell_volume   1396.16353985
_cell_formula_units_Z   2
loop_
 _symmetry_equiv_pos_site_id
 _symmetry_equiv_pos_as_xyz
  1  'x, y, z'
loop_
 _atom_site_type_symbol
 _atom_site_label
 _atom_site_symmetry_multiplicity
 _atom_site_fract_x
 _atom_site_fract_y
 _atom_site_fract_z
 _atom_site_occupancy
 _atom_site_hle17_bader_spin_density
 _atom_site_hle17_ddec_charge
 _atom_site_hle17_ddec_spin_density
 _atom_site_hle17_ddec_sum_bond_order
 _atom_site_hle17_magmom
 _atom_site_hse06_10hf_bader_spin_density
 _atom_site_hse06_10hf_ddec_charge
 _atom_site_hse06_10hf_ddec_spin_density
 _atom_site_hse06_10hf_ddec_sum_bond_order
 _atom_site_hse06_10hf_magmom
 _atom_site_hse06_bader_spin_density
 _atom_site_hse06_ddec_charge
 _atom_site_hse06_ddec_spin_density
 _atom_site_hse06_ddec_sum_bond_order
 _atom_site_hse06_magmom
 _atom_site_pbe_bader_charge
 _atom_site_pbe_bader_spin_density
 _atom_site_pbe_cm5_charge
 _atom_site_pbe_ddec_charge
 _atom_site_pbe_ddec_spin_density
 _atom_site_pbe_ddec_sum_bond_order
 _atom_site_pbe_magmom
La  La0  1  0.73074645  0.03558609  0.50834601  1  0  2.170941  0  1.778496  0  0  2.040416  0  2.318163  0  0  2.144329  0  2.209777  0  2.288898  0  1.409991  1.960459  0  2.397749  0
La  La1  1  0.26925330  0.96441242  0.49165456  1  0  2.170894  0  1.778596  0  0  2.040362  0  2.318252  0  0  2.144279  0  2.209863  0  2.28891  0  1.409985  1.960403  0  2.397843  0
H  H2  1  0.22942457  0.21939444  0.42671051  1  0  0.135664  0  0.960176  0  0  0.135153  0  1.035811  0  0  0.140041  0  1.031167  0  0.180963  0  0.125018  0.131428  0  1.039463  0
H  H3  1  0.77057303  0.78060782  0.57328966  1  0  0.135676  0  0.960202  0  0  0.135153  0  1.035854  0  0  0.140038  0  1.031216  0  0.180963  0  0.125033  0.131409  0  1.039493  0
H  H4  1  0.27913811  0.52866844  0.34724309  1  0  0.154854  0  0.912642  0  0  0.157358  0  0.977105  0  0  0.162873  0  0.971275  0  0.174614  0  0.13452  0.153019  0  0.981902  0
H  H5  1  0.72086300  0.47133477  0.65275651  1  0  0.154838  0  0.912687  0  0  0.157307  0  0.977171  0  0  0.162826  0  0.971339  0  0.17467  0  0.134514  0.152956  0  0.981953  0
H  H6  1  0.63797513  0.34623016  0.37389662  1  0  0.143594  0  0.923207  0  0  0.144796  0  0.991996  0  0  0.150273  0  0.98594  0  0.175989  0  0.125461  0.140844  0  0.996242  0
H  H7  1  0.36202165  0.65376930  0.62610244  1  0  0.143594  0  0.92317  0  0  0.144819  0  0.991956  0  0  0.150295  0  0.985902  0  0.175937  0  0.125479  0.140867  0  0.996201  0
H  H8  1  0.15446295  0.67798787  0.11183913  1  0  0.136714  0  0.924254  0  0  0.138687  0  0.993475  0  0  0.143569  0  0.988102  0  0.170822  0  0.1249  0.135397  0  0.996786  0
H  H9  1  0.84553950  0.32201252  0.88816462  1  0  0.136696  0  0.924184  0  0  0.138667  0  0.993416  0  0  0.143546  0  0.988046  0  0.170853  0  0.124883  0.135376  0  0.996728  0
H  H10  1  0.35254901  0.52917014  0.85118414  1  0  0.142102  0  0.959984  0  0  0.139128  0  1.038585  0  0  0.143959  0  1.033643  0  0.203092  0  0.121649  0.135699  0  1.042098  0
H  H11  1  0.64745289  0.47082838  0.14881744  1  0  0.142154  0  0.959882  0  0  0.139118  0  1.038548  0  0  0.143949  0  1.033608  0  0.20309  0  0.121653  0.135691  0  1.042058  0
H  H12  1  0.63063474  0.77324454  0.18112425  1  0  0.131859  0  0.93469  0  0  0.136943  0  0.999783  0  0  0.14153  0  0.995457  0  0.179252  0  0.12373  0.133431  0  1.003179  0
H  H13  1  0.36936581  0.22675304  0.81887681  1  0  0.131846  0  0.934613  0  0  0.136896  0  0.999743  0  0  0.141506  0  0.995394  0  0.179278  0  0.123726  0.133386  0  1.003141  0
H  H14  1  0.24874297  0.88442717  0.72991417  1  0  0.144081  0  0.933045  0  0  0.144609  0  1.004662  0  0  0.149736  0  0.999385  0  0.193161  0  0.1289  0.14075  0  1.008716  0
H  H15  1  0.75125462  0.11557135  0.27008538  1  0  0.144041  0  0.933012  0  0  0.144595  0  1.004609  0  0  0.149722  0  0.999331  0  0.193243  0  0.128887  0.140734  0  1.008687  0
H  H16  1  0.27135884  0.04261835  0.07108838  1  0  0.147898  0  0.924408  0  0  0.151753  0  0.98876  0  0  0.157176  0  0.983121  0  0.177344  0  0.12819  0.14781  0  0.992893  0
H  H17  1  0.72864199  0.95738016  0.92890952  1  0  0.147921  0  0.924444  0  0  0.151777  0  0.988796  0  0  0.157201  0  0.983154  0  0.17733  0  0.12819  0.147831  0  0.992933  0
H  H18  1  0.96741999  0.12865965  0.85092399  1  0  0.139799  0  0.919697  0  0  0.145893  0  0.98093  0  0  0.150641  0  0.975905  0  0.172243  0  0.128785  0.142417  0  0.984528  0
H  H19  1  0.03258057  0.87134167  0.14907628  1  0  0.139793  0  0.919753  0  0  0.145886  0  0.980977  0  0  0.150635  0  0.975951  0  0.172347  0  0.128782  0.142411  0  0.984573  0
H  H20  1  0.71497539  0.74676409  0.37677172  1  0  0.416991  0  0.867731  0  0  0.38341  0  0.94548  0  0  0.394348  0  0.929264  0  0.621525  0  0.303539  0.375439  0  0.95733  0
H  H21  1  0.28502408  0.25323349  0.62322706  1  0  0.416986  0  0.867749  0  0  0.383398  0  0.9455  0  0  0.394336  0  0.929282  0  0.621537  0  0.303542  0.375428  0  0.957349  0
H  H22  1  0.96402569  0.32354482  0.67223979  1  0  0.440459  0  0.843222  0  0  0.410446  0  0.903897  0  0  0.42115  0  0.888027  0  0.666237  0  0.313884  0.402652  0  0.915519  0
H  H23  1  0.03597433  0.67645463  0.32775973  1  0  0.440521  0  0.843131  0  0  0.410472  0  0.903857  0  0  0.421175  0  0.88799  0  0.666231  0  0.31389  0.402679  0  0.915485  0
H  H24  1  0.89156494  0.79348982  0.41888141  1  0  0.43969  0  0.853082  0  0  0.410048  0  0.914247  0  0  0.421388  0  0.897708  0  0.669582  0  0.303562  0.401447  0  0.926778  0
H  H25  1  0.10843480  0.20650869  0.58112057  1  0  0.439693  0  0.853075  0  0  0.410044  0  0.91425  0  0  0.421385  0  0.897711  0  0.669569  0  0.303568  0.401444  0  0.926783  0
H  H26  1  0.92256560  0.29861073  0.55035041  1  0  0.44517  0  0.812107  0  0  0.418594  0  0.881818  0  0  0.427378  0  0.869954  0  0.637207  0  0.326277  0.412138  0  0.889079  0
H  H27  1  0.07743496  0.70139060  0.44965057  1  0  0.445195  0  0.812112  0  0  0.418634  0  0.88181  0  0  0.427421  0  0.869914  0  0.637218  0  0.326288  0.412177  0  0.889071  0
C  C28  1  0.51096987  0.18180623  0.43251785  1  0  0.687098  0  3.891778  0  0  0.640163  0  4.182192  0  0  0.676682  0  4.176279  0  1.611837  0  0.228922  0.614785  0  4.185294  0
C  C29  1  0.48902881  0.81819603  0.56748461  1  0  0.687045  0  3.891839  0  0  0.640092  0  4.182267  0  0  0.676608  0  4.176358  0  1.612198  0  0.228849  0.614713  0  4.18535  0
C  C30  1  0.44024650  0.27156106  0.40177272  1  0  -0.041986  0  3.683475  0  0  -0.015046  0  3.916048  0  0  -0.026042  0  3.938056  0  0.033839  0  -0.00173  -0.008407  0  3.901704  0
C  C31  1  0.55975191  0.72844027  0.59822866  1  0  -0.042097  0  3.683585  0  0  -0.015084  0  3.916129  0  0  -0.026083  0  3.938139  0  0.033987  0  -0.001718  -0.008449  0  3.901713  0
C  C32  1  0.29578467  0.28047728  0.40500087  1  0  -0.049039  0  3.604513  0  0  -0.093053  0  3.863295  0  0  -0.087795  0  3.8777  0  -0.049774  0  -0.049749  -0.096174  0  3.853885  0
C  C33  1  0.70421239  0.71952311  0.59499714  1  0  -0.049067  0  3.604493  0  0  -0.093098  0  3.863294  0  0  -0.087842  0  3.877694  0  -0.049869  0  -0.049772  -0.096429  0  3.854765  0
C  C34  1  0.24091431  0.37312697  0.38549299  1  0  0.084113  0  3.679686  0  0  0.073654  0  3.940247  0  0  0.069875  0  3.961545  0  0.256274  0  0.080927  0.076273  0  3.925579  0
C  C35  1  0.75908437  0.62687529  0.61450734  1  0  0.084197  0  3.679432  0  0  0.073768  0  3.940025  0  0  0.070009  0  3.961315  0  0.256224  0  0.080953  0.072031  0  3.922993  0
C  C36  1  0.32342524  0.45658287  0.36161925  1  0  -0.087364  0  3.635291  0  0  -0.130819  0  3.900631  0  0  -0.125656  0  3.913582  0  0.062126  0  -0.052842  -0.133902  0  3.891987  0
C  C37  1  0.67657317  0.54341846  0.63837929  1  0  -0.08737  0  3.635233  0  0  -0.13075  0  3.900528  0  0  -0.125599  0  3.913479  0  0.062171  0  -0.052825  -0.134061  0  3.892816  0
C  C38  1  0.46595406  0.44356865  0.35750498  1  0  0.070486  0  3.698671  0  0  0.06861  0  3.957678  0  0  0.062247  0  3.981813  0  0.226229  0  0.084868  0.072297  0  3.94134  0
C  C39  1  0.53404543  0.55643268  0.64249372  1  0  0.070501  0  3.698642  0  0  0.068614  0  3.957681  0  0  0.062258  0  3.981809  0  0.226508  0  0.08486  0.072296  0  3.941273  0
C  C40  1  0.52556612  0.35278885  0.37655582  1  0  -0.051193  0  3.632951  0  0  -0.094058  0  3.889537  0  0  -0.088746  0  3.905099  0  0.010037  0  -0.049981  -0.096698  0  3.878399  0
C  C41  1  0.47443121  0.64721248  0.62344469  1  0  -0.051089  0  3.632957  0  0  -0.094032  0  3.889607  0  0  -0.088719  0  3.905168  0  0.009957  0  -0.050005  -0.096673  0  3.878418  0
C  C42  1  0.41725928  0.82207273  0.27799585  1  0  0.704623  0  3.879384  0  0  0.658761  0  4.171397  0  0  0.695631  0  4.163732  0  1.63766  0  0.236585  0.633227  0  4.175677  0
C  C43  1  0.58274182  0.17792672  0.72200525  1  0  0.704622  0  3.879284  0  0  0.658721  0  4.171344  0  0  0.69559  0  4.163675  0  1.637614  0  0.236587  0.633189  0  4.175622  0
C  C44  1  0.39478563  0.73631088  0.15899495  1  0  -0.030385  0  3.663967  0  0  -0.004572  0  3.896982  0  0  -0.013648  0  3.915911  0  0.010186  0  0.001495  0.000701  0  3.884616  0
C  C45  1  0.60521493  0.26369045  0.84100462  1  0  -0.030391  0  3.664014  0  0  -0.004516  0  3.896977  0  0  -0.013585  0  3.915893  0  0.010168  0  0.001527  0.000757  0  3.884612  0
C  C46  1  0.25343935  0.67145544  0.08480515  1  0  -0.032814  0  3.590654  0  0  -0.077901  0  3.850634  0  0  -0.071597  0  3.863676  0  0.063262  0  -0.045179  -0.081351  0  3.841389  0
C  C47  1  0.74655986  0.32854495  0.91519530  1  0  -0.032762  0  3.590518  0  0  -0.077876  0  3.850507  0  0  -0.07157  0  3.863547  0  0.063255  0  -0.045149  -0.081324  0  3.841259  0
C  C48  1  0.24202093  0.59727398  0.97552137  1  0  0.090414  0  3.664023  0  0  0.076633  0  3.92042  0  0  0.071583  0  3.942453  0  0.19022  0  0.083424  0.079732  0  3.905492  0
C  C49  1  0.75797855  0.40272360  0.02447954  1  0  0.090369  0  3.663966  0  0  0.076629  0  3.920421  0  0  0.071572  0  3.942461  0  0.190198  0  0.083408  0.079728  0  3.905493  0
C  C50  1  0.36543216  0.58593647  0.93708531  1  0  -0.104962  0  3.667506  0  0  -0.152929  0  3.9453  0  0  -0.14875  0  3.960415  0  0.00305  0  -0.064296  -0.155232  0  3.935045  0
C  C51  1  0.63456840  0.41406111  0.06291575  1  0  -0.10494  0  3.667373  0  0  -0.152858  0  3.945222  0  0  -0.148677  0  3.960338  0  0.003051  0  -0.064267  -0.155163  0  3.934968  0
C  C52  1  0.50398896  0.64949218  0.01362847  1  0  0.072569  0  3.731378  0  0  0.059152  0  3.992511  0  0  0.053935  0  4.014614  0  0.165641  0  0.075351  0.062044  0  3.97782  0
C  C53  1  0.49601106  0.35050728  0.98637105  1  0  0.072487  0  3.731377  0  0  0.059026  0  3.992577  0  0  0.053802  0  4.014689  0  0.165652  0  0.075309  0.061917  0  3.977889  0
C  C54  1  0.52081344  0.72368770  0.12328284  1  0  -0.049721  0  3.635331  0  0  -0.093811  0  3.893536  0  0  -0.088376  0  3.907444  0  0.058185  0  -0.053355  -0.0968  0  3.884267  0
C  C55  1  0.47918765  0.27631175  0.87671613  1  0  -0.049611  0  3.635225  0  0  -0.093678  0  3.893457  0  0  -0.088264  0  3.907351  0  0.058174  0  -0.053329  -0.096672  0  3.884193  0
C  C56  1  0.04167163  0.99898198  0.66927283  1  0  0.707154  0  3.88952  0  0  0.659943  0  4.17891  0  0  0.696997  0  4.171627  0  1.641886  0  0.241108  0.634149  0  4.183252  0
C  C57  1  0.95832569  0.00101559  0.33072635  1  0  0.707231  0  3.889379  0  0  0.65998  0  4.178839  0  0  0.697038  0  4.171549  0  1.641918  0  0.241102  0.634186  0  4.183203  0
C  C58  1  0.10394940  0.00791094  0.78009626  1  0  -0.044995  0  3.696942  0  0  -0.021186  0  3.933625  0  0  -0.03239  0  3.955221  0  0.041023  0  0.00137  -0.014187  0  3.919277  0
C  C59  1  0.89604927  0.99208758  0.21990415  1  0  -0.044988  0  3.696939  0  0  -0.021152  0  3.933599  0  0  -0.032358  0  3.955197  0  0.04097  0  0.001413  -0.014152  0  3.919268  0
C  C60  1  0.21090302  0.94325938  0.79710952  1  0  -0.039627  0  3.601498  0  0  -0.083899  0  3.858718  0  0  -0.077535  0  3.872102  0  -0.045191  0  -0.04282  -0.087654  0  3.849615  0
C  C61  1  0.78910078  0.05674195  0.20289050  1  0  -0.039554  0  3.60144  0  0  -0.083849  0  3.858657  0  0  -0.077483  0  3.872035  0  -0.04523  0  -0.042762  -0.087604  0  3.849586  0
C  C62  1  0.26622950  0.95516236  0.90137306  1  0  0.075019  0  3.693913  0  0  0.071136  0  3.956281  0  0  0.066017  0  3.977301  0  0.269714  0  0.080571  0.074174  0  3.942146  0
C  C63  1  0.73377295  0.04483803  0.09862573  1  0  0.075065  0  3.69394  0  0  0.071167  0  3.956343  0  0  0.066054  0  3.977353  0  0.269561  0  0.080558  0.074204  0  3.942209  0
C  C64  1  0.22440087  0.03300351  0.99005961  1  0  -0.102513  0  3.67049  0  0  -0.152213  0  3.945837  0  0  -0.146692  0  3.958961  0  0.026825  0  -0.065461  -0.155457  0  3.93707  0
C  C65  1  0.77560535  0.96699876  0.00994039  1  0  -0.102548  0  3.67052  0  0  -0.152229  0  3.945898  0  0  -0.14671  0  3.959024  0  0.024627  0  -0.065406  -0.155475  0  3.937138  0
C  C66  1  0.11628521  0.09413979  0.96938176  1  0  0.067433  0  3.708103  0  0  0.054086  0  3.968849  0  0  0.048077  0  3.991813  0  0.114795  0  0.074049  0.057564  0  3.953492  0
C  C67  1  0.88372020  0.90585966  0.03061854  1  0  0.067462  0  3.7081  0  0  0.054023  0  3.96895  0  0  0.048011  0  3.991916  0  0.117082  0  0.073973  0.057501  0  3.953593  0
C  C68  1  0.05333833  0.08134031  0.86563677  1  0  -0.036339  0  3.632315  0  0  -0.080213  0  3.890175  0  0  -0.073559  0  3.903299  0  0.105188  0  -0.047907  -0.083966  0  3.880924  0
C  C69  1  0.94666412  0.91866008  0.13436343  1  0  -0.03636  0  3.63234  0  0  -0.080196  0  3.890211  0  0  -0.073541  0  3.903334  0  0.105059  0  -0.047915  -0.083951  0  3.880965  0
N  N70  1  0.56089458  0.53282646  0.33833578  1  0  0.498953  0  3.906292  0  0  0.51958  0  4.212737  0  0  0.540693  0  4.222409  0  0.369613  0  0.055832  0.505546  0  4.206109  0
N  N71  1  0.43910625  0.46717205  0.66166282  1  0  0.498897  0  3.906447  0  0  0.519521  0  4.212916  0  0  0.540639  0  4.222584  0  0.369329  0  0.0558  0.505486  0  4.206283  0
N  N72  1  0.09009173  0.38506465  0.39216949  1  0  0.471312  0  3.943061  0  0  0.515782  0  4.22353  0  0  0.533487  0  4.234584  0  0.405354  0  0.063701  0.502609  0  4.216004  0
N  N73  1  0.90990803  0.61493762  0.60783029  1  0  0.471223  0  3.943215  0  0  0.515498  0  4.223952  0  0  0.533175  0  4.235008  0  0.405612  0  0.063677  0.517896  0  4.191835  0
N  N74  1  0.63800213  0.63957537  0.97793015  1  0  0.469825  0  3.949015  0  0  0.527394  0  4.201231  0  0  0.548084  0  4.211337  0  0.370973  0  0.054649  0.513491  0  4.194436  0
N  N75  1  0.36199681  0.36042408  0.02206993  1  0  0.469847  0  3.948946  0  0  0.527427  0  4.201165  0  0  0.548118  0  4.21127  0  0.370965  0  0.054703  0.513525  0  4.19437  0
N  N76  1  0.09499713  0.52511339  0.89607847  1  0  0.483185  0  3.922258  0  0  0.540543  0  4.170336  0  0  0.562111  0  4.178626  0  0.401123  0  0.066442  0.526215  0  4.164433  0
N  N77  1  0.90500235  0.47488418  0.10392031  1  0  0.483449  0  3.921996  0  0  0.540536  0  4.170385  0  0  0.562107  0  4.178673  0  0.40111  0  0.066498  0.526209  0  4.164483  0
N  N78  1  0.36936926  0.88005908  0.91921142  1  0  0.506229  0  3.900472  0  0  0.529797  0  4.204639  0  0  0.551486  0  4.213193  0  0.367875  0  0.056047  0.515323  0  4.198877  0
N  N79  1  0.63063184  0.11994037  0.08078755  1  0  0.506237  0  3.900605  0  0  0.529794  0  4.20478  0  0  0.551482  0  4.213334  0  0.367939  0  0.056017  0.515321  0  4.199017  0
N  N80  1  0.06255055  0.17114109  0.05943879  1  0  0.474841  0  3.952279  0  0  0.530474  0  4.20849  0  0  0.552095  0  4.216962  0  0.386822  0  0.056803  0.515909  0  4.203159  0
N  N81  1  0.93745270  0.82885836  0.94056332  1  0  0.474713  0  3.952691  0  0  0.530413  0  4.208851  0  0  0.552036  0  4.217321  0  0.386791  0  0.056774  0.515847  0  4.203516  0
O  O82  1  0.64709567  0.18840525  0.43821596  1  0  -0.65941  0  1.955994  0  0  -0.616215  0  2.199785  0  0  -0.647349  0  2.190173  0  -1.179379  0  -0.355807  -0.59394  0  2.206464  0
O  O83  1  0.35290193  0.81159702  0.56178421  1  0  -0.659358  0  1.95597  0  0  -0.616155  0  2.199775  0  0  -0.64729  0  2.190161  0  -1.179439  0  -0.355809  -0.593882  0  2.206452  0
O  O84  1  0.43323973  0.10614311  0.45386437  1  0  -0.736938  0  2.075522  0  0  -0.687687  0  2.34181  0  0  -0.725184  0  2.333863  0  -1.212092  0  -0.383006  -0.659547  0  2.345831  0
O  O85  1  0.56675841  0.89385728  0.54613522  1  0  -0.736902  0  2.075483  0  0  -0.687666  0  2.341816  0  0  -0.725161  0  2.333872  0  -1.212441  0  -0.382979  -0.659522  0  2.34583  0
O  O86  1  0.68507606  0.51661167  0.33047843  1  0  -0.338741  0  1.759463  0  0  -0.3212  0  1.971108  0  0  -0.332855  0  1.966323  0  -0.44558  0  -0.113668  -0.313779  0  1.974974  0
O  O87  1  0.31492368  0.48338310  0.66951939  1  0  -0.33874  0  1.759605  0  0  -0.321186  0  1.971246  0  0  -0.332833  0  1.966451  0  -0.445507  0  -0.113632  -0.313765  0  1.975107  0
O  O88  1  0.51406200  0.62258223  0.33375051  1  0  -0.35439  0  1.797827  0  0  -0.324789  0  2.009093  0  0  -0.339839  0  2.007415  0  -0.476639  0  -0.101684  -0.314828  0  2.010543  0
O  O89  1  0.48594260  0.37741816  0.66624859  1  0  -0.354346  0  1.797861  0  0  -0.324728  0  2.009103  0  0  -0.339806  0  2.007447  0  -0.476669  0  -0.101668  -0.314766  0  2.010553  0
O  O90  1  0.04786144  0.47394549  0.38304666  1  0  -0.333389  0  1.761066  0  0  -0.333211  0  1.966191  0  0  -0.343311  0  1.961245  0  -0.46656  0  -0.123527  -0.325385  0  1.969621  0
O  O91  1  0.95213751  0.52605772  0.61695404  1  0  -0.333421  0  1.761214  0  0  -0.333187  0  1.966409  0  0  -0.343271  0  1.961461  0  -0.466726  0  -0.12358  -0.330759  0  1.962184  0
O  O92  1  0.01466730  0.30518161  0.40678594  1  0  -0.333815  0  1.78112  0  0  -0.320817  0  1.985162  0  0  -0.332641  0  1.982044  0  -0.464345  0  -0.111861  -0.311854  0  1.987383  0
O  O93  1  0.98533002  0.69481972  0.59321315  1  0  -0.333728  0  1.781206  0  0  -0.32063  0  1.985327  0  0  -0.332443  0  1.982211  0  -0.464374  0  -0.111785  -0.317026  0  1.979881  0
O  O94  1  0.54724184  0.89251909  0.33099416  1  0  -0.709861  0  2.049094  0  0  -0.664402  0  2.307332  0  0  -0.699597  0  2.299284  0  -1.206671  0  -0.38306  -0.638392  0  2.31238  0
O  O95  1  0.45275953  0.10748130  0.66900660  1  0  -0.709864  0  2.049079  0  0  -0.664385  0  2.307314  0  0  -0.699583  0  2.29927  0  -1.206653  0  -0.383078  -0.638376  0  2.312359  0
O  O96  1  0.30762251  0.81792033  0.31517822  1  0  -0.678055  0  1.964203  0  0  -0.638228  0  2.213865  0  0  -0.670579  0  2.203126  0  -1.181903  0  -0.367339  -0.614709  0  2.221283  0
O  O97  1  0.69237804  0.18207724  0.68482143  1  0  -0.678064  0  1.964131  0  0  -0.638238  0  2.21382  0  0  -0.670585  0  2.203072  0  -1.181883  0  -0.367336  -0.614719  0  2.221239  0
O  O98  1  0.75851993  0.67186899  0.04925844  1  0  -0.34685  0  1.801434  0  0  -0.339225  0  2.000347  0  0  -0.353572  0  2.000251  0  -0.463692  0  -0.121872  -0.328999  0  2.000588  0
O  O99  1  0.24148037  0.32813515  0.95074280  1  0  -0.346853  0  1.801355  0  0  -0.339221  0  2.000258  0  0  -0.353567  0  2.000165  0  -0.463684  0  -0.121902  -0.328996  0  2.000501  0
O  O100  1  0.62394207  0.60019791  0.87934037  1  0  -0.33646  0  1.779977  0  0  -0.335476  0  1.981353  0  0  -0.348499  0  1.980517  0  -0.467902  0  -0.126479  -0.326378  0  1.98237  0
O  O101  1  0.37605795  0.39980154  0.12066057  1  0  -0.336501  0  1.780006  0  0  -0.335513  0  1.981374  0  0  -0.348536  0  1.980537  0  -0.467895  0  -0.126514  -0.326414  0  1.982392  0
O  O102  1  0.09455316  0.44479148  0.80497383  1  0  -0.360717  0  1.80448  0  0  -0.345859  0  1.994357  0  0  -0.360828  0  1.987961  0  -0.48664  0  -0.122555  -0.335997  0  1.999053  0
O  O103  1  0.90544902  0.55521172  0.19502450  1  0  -0.36102  0  1.804523  0  0  -0.345882  0  1.99434  0  0  -0.360849  0  1.987941  0  -0.486587  0  -0.122612  -0.336024  0  1.999051  0
O  O104  1  0.98255930  0.54649431  0.92327634  1  0  -0.312107  0  1.81594  0  0  -0.316868  0  2.02442  0  0  -0.328247  0  2.019738  0  -0.421989  0  -0.106993  -0.309462  0  2.028301  0
O  O105  1  0.01744126  0.45350327  0.07672330  1  0  -0.312158  0  1.815801  0  0  -0.316885  0  2.02441  0  0  -0.328262  0  2.019725  0  -0.421864  0  -0.107028  -0.309478  0  2.028294  0
O  O106  1  0.92616176  0.03896015  0.65445947  1  0  -0.677629  0  1.998711  0  0  -0.631637  0  2.250216  0  0  -0.665699  0  2.239955  0  -1.196757  0  -0.380287  -0.606851  0  2.257109  0
O  O107  1  0.07383583  0.96103836  0.34554008  1  0  -0.677663  0  1.998641  0  0  -0.631646  0  2.25016  0  0  -0.665714  0  2.2399  0  -1.196797  0  -0.380296  -0.606862  0  2.257057  0
O  O108  1  0.10879739  0.95264635  0.59935717  1  0  -0.683246  0  2.061146  0  0  -0.634783  0  2.327219  0  0  -0.669955  0  2.317317  0  -1.200704  0  -0.3883  -0.60882  0  2.333715  0
O  O109  1  0.89119992  0.04735122  0.40064130  1  0  -0.683324  0  2.061086  0  0  -0.634876  0  2.327208  0  0  -0.670048  0  2.317303  0  -1.200711  0  -0.388306  -0.608912  0  2.333729  0
O  O110  1  0.40534575  0.80920761  0.84040573  1  0  -0.342327  0  1.733244  0  0  -0.325385  0  1.937683  0  0  -0.338164  0  1.934854  0  -0.446316  0  -0.120441  -0.316532  0  1.939639  0
O  O111  1  0.59464941  0.19078997  0.15959031  1  0  -0.342335  0  1.733303  0  0  -0.325397  0  1.937736  0  0  -0.338181  0  1.934913  0  -0.446256  0  -0.120432  -0.316547  0  1.939697  0
O  O112  1  0.41405206  0.89146693  0.01296757  1  0  -0.365892  0  1.78429  0  0  -0.346956  0  1.996163  0  0  -0.362747  0  1.997817  0  -0.463233  0  -0.125456  -0.336278  0  1.995146  0
O  O113  1  0.58594688  0.10853252  0.98703180  1  0  -0.365943  0  1.78432  0  0  -0.346981  0  1.996188  0  0  -0.362773  0  1.997845  0  -0.463229  0  -0.125466  -0.3363  0  1.995172  0
O  O114  1  0.13102193  0.19318782  0.15313453  1  0  -0.345583  0  1.779  0  0  -0.339397  0  1.974957  0  0  -0.354022  0  1.974957  0  -0.467352  0  -0.126582  -0.329733  0  1.97521  0
O  O115  1  0.86898700  0.80681632  0.84686794  1  0  -0.34562  0  1.779211  0  0  -0.339389  0  1.975091  0  0  -0.354014  0  1.97509  0  -0.467254  0  -0.126606  -0.329726  0  1.975369  0
O  O116  1  0.94885456  0.20604825  0.03581239  1  0  -0.341771  0  1.816234  0  0  -0.341089  0  2.025935  0  0  -0.355098  0  2.024258  0  -0.460441  0  -0.121302  -0.331851  0  2.027415  0
O  O117  1  0.05114654  0.79395120  0.96419225  1  0  -0.341617  0  1.81637  0  0  -0.341031  0  2.026123  0  0  -0.35504  0  2.024449  0  -0.460541  0  -0.121244  -0.33179  0  2.0276  0
O  O118  1  0.79790040  0.81911879  0.42686849  1  0  -0.879829  0  1.887532  0  0  -0.830512  0  2.088891  0  0  -0.855026  0  2.055147  0  -1.283654  0  -0.615667  -0.812096  0  2.113519  0
O  O119  1  0.20210070  0.18088066  0.57313190  1  0  -0.879819  0  1.887534  0  0  -0.8305  0  2.088903  0  0  -0.855013  0  2.055155  0  -1.283659  0  -0.615673  -0.812085  0  2.113532  0
O  O120  1  0.94070600  0.25730618  0.59683082  1  0  -0.845112  0  1.87838  0  0  -0.789469  0  2.059066  0  0  -0.813358  0  2.029784  0  -1.253942  0  -0.571332  -0.771657  0  2.079133  0
O  O121  1  0.05929402  0.74269327  0.40316941  1  0  -0.845151  0  1.878318  0  0  -0.789561  0  2.059015  0  0  -0.813449  0  2.029712  0  -1.253941  0  -0.571344  -0.771747  0  2.079086  0
