# generated using pymatgen
data_HgH6(C5N6)2
_symmetry_space_group_name_H-M   'P 1'
_cell_length_a   8.94882484
_cell_length_b   9.96833323
_cell_length_c   15.57900000
_cell_angle_alpha   90.00000000
_cell_angle_beta   91.86755402
_cell_angle_gamma   90.00000000
_symmetry_Int_Tables_number   1
_chemical_formula_structural   HgH6(C5N6)2
_chemical_formula_sum   'Hg4 H24 C40 N48'
_cell_volume   1388.98446146
_cell_formula_units_Z   4
loop_
 _symmetry_equiv_pos_site_id
 _symmetry_equiv_pos_as_xyz
  1  'x, y, z'
loop_
 _atom_site_type_symbol
 _atom_site_label
 _atom_site_symmetry_multiplicity
 _atom_site_fract_x
 _atom_site_fract_y
 _atom_site_fract_z
 _atom_site_occupancy
 _atom_site_hle17_bader_spin_density
 _atom_site_hle17_ddec_charge
 _atom_site_hle17_ddec_spin_density
 _atom_site_hle17_ddec_sum_bond_order
 _atom_site_hle17_magmom
 _atom_site_hse06_10hf_bader_spin_density
 _atom_site_hse06_10hf_ddec_charge
 _atom_site_hse06_10hf_ddec_spin_density
 _atom_site_hse06_10hf_ddec_sum_bond_order
 _atom_site_hse06_10hf_magmom
 _atom_site_hse06_bader_spin_density
 _atom_site_hse06_ddec_charge
 _atom_site_hse06_ddec_spin_density
 _atom_site_hse06_ddec_sum_bond_order
 _atom_site_hse06_magmom
 _atom_site_pbe_bader_charge
 _atom_site_pbe_bader_spin_density
 _atom_site_pbe_cm5_charge
 _atom_site_pbe_ddec_charge
 _atom_site_pbe_ddec_spin_density
 _atom_site_pbe_ddec_sum_bond_order
 _atom_site_pbe_magmom
Hg  Hg0  1  0.53036360  0.88018727  0.11982814  1  0  0.778519  0  1.99466  0  0  0.552669  0  2.474888  0  0  0.610139  0  2.439527  0  1.00264  0  0.69584  0.512332  0  2.498167  0
Hg  Hg1  1  0.46963511  0.38018693  0.38017216  1  0  0.778481  0  1.994726  0  0  0.552644  0  2.474923  0  0  0.610113  0  2.439564  0  1.002673  0  0.695832  0.512305  0  2.498203  0
Hg  Hg2  1  0.46963735  0.11981241  0.88017156  1  0  0.778547  0  1.994657  0  0  0.552686  0  2.474883  0  0  0.610154  0  2.439528  0  1.00263  0  0.695826  0.512348  0  2.498164  0
Hg  Hg3  1  0.53036137  0.61981174  0.61982810  1  0  0.778507  0  1.994687  0  0  0.552664  0  2.474893  0  0  0.610136  0  2.43953  0  1.002681  0  0.695839  0.512326  0  2.498174  0
H  H4  1  0.10818339  0.77221134  0.03755954  1  0  0.087218  0  0.939605  0  0  0.092545  0  1.005455  0  0  0.094834  0  1.005415  0  0.110202  0  0.1133  0.090882  0  1.00556  0
H  H5  1  0.89181644  0.27221201  0.46244142  1  0  0.087198  0  0.939563  0  0  0.092524  0  1.005407  0  0  0.094809  0  1.005379  0  0.110169  0  0.113286  0.090864  0  1.005511  0
H  H6  1  0.89181756  0.22778934  0.96244144  1  0  0.087212  0  0.939608  0  0  0.092532  0  1.005459  0  0  0.094818  0  1.00543  0  0.110176  0  0.113275  0.09087  0  1.00556  0
H  H7  1  0.10818004  0.72778968  0.53755819  1  0  0.087264  0  0.93955  0  0  0.092581  0  1.005396  0  0  0.094867  0  1.00537  0  0.11019  0  0.113292  0.090919  0  1.005498  0
H  H8  1  0.04153366  0.64646715  0.28829274  1  0  0.090729  0  0.931713  0  0  0.09465  0  0.996628  0  0  0.098083  0  0.994256  0  0.102405  0  0.11503  0.092133  0  0.998445  0
H  H9  1  0.95846394  0.14647083  0.21170753  1  0  0.090712  0  0.931698  0  0  0.094661  0  0.996614  0  0  0.098085  0  0.994244  0  0.102424  0  0.115029  0.092143  0  0.998429  0
H  H10  1  0.95846506  0.35353052  0.71170691  1  0  0.090727  0  0.931687  0  0  0.094654  0  0.99661  0  0  0.098092  0  0.994229  0  0.102412  0  0.115043  0.092138  0  0.998426  0
H  H11  1  0.04153254  0.85353086  0.78829337  1  0  0.090728  0  0.931613  0  0  0.094644  0  0.996544  0  0  0.098083  0  0.994158  0  0.102422  0  0.115022  0.092128  0  0.998361  0
H  H12  1  0.78336136  0.74966695  0.28152292  1  0  0.091989  0  0.959362  0  0  0.088478  0  1.040744  0  0  0.092123  0  1.03719  0  0.115007  0  0.115348  0.085719  0  1.043615  0
H  H13  1  0.21663736  0.24966862  0.21847866  1  0  0.092022  0  0.959434  0  0  0.088459  0  1.040859  0  0  0.092103  0  1.037306  0  0.115046  0  0.115343  0.085701  0  1.043728  0
H  H14  1  0.21663624  0.25032971  0.71847671  1  0  0.091945  0  0.959396  0  0  0.08846  0  1.040763  0  0  0.092104  0  1.037209  0  0.115017  0  0.115344  0.085702  0  1.043631  0
H  H15  1  0.78336248  0.75033106  0.78152102  1  0  0.092001  0  0.959433  0  0  0.088491  0  1.040808  0  0  0.092135  0  1.037255  0  0.115056  0  0.115365  0.085735  0  1.043675  0
H  H16  1  0.21428161  0.40060760  0.03782862  1  0  0.096423  0  0.922893  0  0  0.102128  0  0.986163  0  0  0.105501  0  0.984169  0  0.11808  0  0.117938  0.099935  0  0.987299  0
H  H17  1  0.78572270  0.90060693  0.46217243  1  0  0.09644  0  0.922886  0  0  0.102148  0  0.986151  0  0  0.10552  0  0.984159  0  0.118059  0  0.117963  0.099955  0  0.987288  0
H  H18  1  0.78572493  0.59939208  0.96217119  1  0  0.09642  0  0.922821  0  0  0.102106  0  0.986115  0  0  0.105477  0  0.984127  0  0.118061  0  0.117945  0.099914  0  0.987252  0
H  H19  1  0.21428272  0.09939174  0.53782864  1  0  0.096439  0  0.922825  0  0  0.102124  0  0.986114  0  0  0.105497  0  0.984122  0  0.118085  0  0.117944  0.099931  0  0.98725  0
H  H20  1  0.21416197  0.60457750  0.80494429  1  0  0.089876  0  0.931346  0  0  0.093069  0  0.999128  0  0  0.096138  0  0.99758  0  0.116765  0  0.115789  0.090819  0  1.000413  0
H  H21  1  0.78583898  0.10457817  0.69505605  1  0  0.089897  0  0.931292  0  0  0.093065  0  0.999107  0  0  0.096135  0  0.99756  0  0.116746  0  0.115781  0.090815  0  1.000392  0
H  H22  1  0.78583898  0.39542217  0.19505605  1  0  0.089885  0  0.931331  0  0  0.093076  0  0.99912  0  0  0.096145  0  0.997571  0  0.116764  0  0.11578  0.090825  0  1.000405  0
H  H23  1  0.21415974  0.89542151  0.30494297  1  0  0.089885  0  0.931324  0  0  0.093054  0  0.999151  0  0  0.096123  0  0.997602  0  0.116714  0  0.115775  0.090804  0  1.000436  0
H  H24  1  0.37736281  0.78502091  0.87297273  1  0  0.082175  0  0.966567  0  0  0.081918  0  1.044005  0  0  0.085052  0  1.041465  0  0.129754  0  0.111063  0.079627  0  1.045859  0
H  H25  1  0.62263702  0.28501957  0.62702630  1  0  0.082202  0  0.966668  0  0  0.081963  0  1.044089  0  0  0.085097  0  1.041547  0  0.129768  0  0.111067  0.079671  0  1.045943  0
H  H26  1  0.62263702  0.21498077  0.12702630  1  0  0.082183  0  0.966612  0  0  0.081917  0  1.044075  0  0  0.085055  0  1.041531  0  0.129775  0  0.111045  0.079626  0  1.04593  0
H  H27  1  0.37736170  0.71497710  0.37297335  1  0  0.082208  0  0.966599  0  0  0.081956  0  1.044023  0  0  0.08509  0  1.041484  0  0.129737  0  0.111063  0.079665  0  1.045878  0
C  C28  1  0.82705734  0.88158369  0.01036901  1  0  0.231048  0  3.818491  0  0  0.205484  0  4.088847  0  0  0.215508  0  4.105331  0  0.922701  0  0.21232  0.198937  0  4.077217  0
C  C29  1  0.17294137  0.38158636  0.48963192  1  0  0.231108  0  3.818421  0  0  0.205533  0  4.088808  0  0  0.215522  0  4.105334  0  0.922523  0  0.212372  0.198989  0  4.077173  0
C  C30  1  0.17294137  0.11841699  0.98963000  1  0  0.231128  0  3.818259  0  0  0.205544  0  4.088634  0  0  0.215575  0  4.105107  0  0.922422  0  0.21236  0.198997  0  4.077004  0
C  C31  1  0.82705622  0.61841532  0.51036963  1  0  0.231169  0  3.818393  0  0  0.20549  0  4.088846  0  0  0.215568  0  4.105254  0  0.922433  0  0.212346  0.198946  0  4.077214  0
C  C32  1  0.89132673  0.81824612  0.08755646  1  0  0.123628  0  3.78766  0  0  0.124111  0  4.030839  0  0  0.127308  0  4.04958  0  0.537901  0  0.127866  0.121727  0  4.018296  0
C  C33  1  0.10867422  0.31825080  0.41244452  1  0  0.123566  0  3.787661  0  0  0.124018  0  4.030843  0  0  0.127231  0  4.049592  0  0.537881  0  0.127815  0.121632  0  4.0183  0
C  C34  1  0.10867310  0.18175155  0.91244386  1  0  0.123606  0  3.787681  0  0  0.124102  0  4.030804  0  0  0.127299  0  4.049543  0  0.537897  0  0.127846  0.121716  0  4.018263  0
C  C35  1  0.89132449  0.68175089  0.58755513  1  0  0.12353  0  3.787799  0  0  0.124114  0  4.030846  0  0  0.127302  0  4.049576  0  0.537886  0  0.127816  0.121726  0  4.018302  0
C  C36  1  0.03603392  0.76474269  0.09245964  1  0  0.066053  0  3.677025  0  0  0.032553  0  3.943931  0  0  0.034191  0  3.95968  0  0.576889  0  0.055618  0.031369  0  3.933557  0
C  C37  1  0.96396479  0.26474637  0.40754130  1  0  0.066083  0  3.677037  0  0  0.032616  0  3.943899  0  0  0.034249  0  3.959646  0  0.577391  0  0.055658  0.031431  0  3.933524  0
C  C38  1  0.96396591  0.23525799  0.90754132  1  0  0.066048  0  3.677094  0  0  0.032555  0  3.943968  0  0  0.034192  0  3.959712  0  0.576886  0  0.055642  0.031372  0  3.933595  0
C  C39  1  0.03603169  0.73525732  0.59245960  1  0  0.065921  0  3.676985  0  0  0.032429  0  3.943831  0  0  0.03406  0  3.959582  0  0.576939  0  0.055611  0.031248  0  3.933458  0
C  C40  1  0.00005702  0.69740546  0.23022701  1  0  0.07577  0  3.678447  0  0  0.053386  0  3.940062  0  0  0.055216  0  3.955219  0  0.487494  0  0.054653  0.052155  0  3.929963  0
C  C41  1  0.99993946  0.19740813  0.26977453  1  0  0.07587  0  3.678498  0  0  0.053402  0  3.94017  0  0  0.055246  0  3.955334  0  0.487082  0  0.054659  0.052175  0  3.930068  0
C  C42  1  0.99994169  0.30259221  0.76977328  1  0  0.075838  0  3.678444  0  0  0.053424  0  3.940112  0  0  0.055253  0  3.955273  0  0.487392  0  0.054662  0.052194  0  3.930013  0
C  C43  1  0.00005590  0.80259255  0.73022507  1  0  0.075754  0  3.678327  0  0  0.053364  0  3.939969  0  0  0.055194  0  3.955129  0  0.487552  0  0.054665  0.052134  0  3.929871  0
C  C44  1  0.85658863  0.75326836  0.22710002  1  0  0.10025  0  3.669895  0  0  0.068303  0  3.931877  0  0  0.07206  0  3.948383  0  0.583305  0  0.058987  0.065634  0  3.92101  0
C  C45  1  0.14340896  0.25327103  0.27289961  1  0  0.100111  0  3.670023  0  0  0.068217  0  3.932001  0  0  0.071972  0  3.948509  0  0.583429  0  0.058926  0.065548  0  3.92113  0
C  C46  1  0.14341008  0.24672931  0.77289963  1  0  0.100221  0  3.669959  0  0  0.068228  0  3.931969  0  0  0.071981  0  3.948481  0  0.583337  0  0.058918  0.065559  0  3.921099  0
C  C47  1  0.85658752  0.74672865  0.72710064  1  0  0.100261  0  3.669836  0  0  0.068296  0  3.931819  0  0  0.072051  0  3.948327  0  0.583268  0  0.058967  0.065625  0  3.920952  0
C  C48  1  0.39680810  0.57569604  0.12671437  1  0  0.232434  0  3.834409  0  0  0.198944  0  4.117156  0  0  0.209249  0  4.13322  0  0.91133  0  0.216242  0.192062  0  4.10615  0
C  C49  1  0.60319285  0.07569570  0.37328533  1  0  0.232582  0  3.834255  0  0  0.199004  0  4.117079  0  0  0.209309  0  4.133142  0  0.91121  0  0.216287  0.192123  0  4.106073  0
C  C50  1  0.60319285  0.42430464  0.87328597  1  0  0.232628  0  3.834181  0  0  0.199046  0  4.116994  0  0  0.209351  0  4.133058  0  0.911171  0  0.216317  0.192164  0  4.105988  0
C  C51  1  0.39680922  0.92430297  0.62671375  1  0  0.232429  0  3.834445  0  0  0.198926  0  4.117144  0  0  0.209227  0  4.13321  0  0.911331  0  0.216243  0.192043  0  4.106138  0
C  C52  1  0.34366787  0.58450494  0.03748222  1  0  0.119846  0  3.798119  0  0  0.124191  0  4.044966  0  0  0.126604  0  4.064156  0  0.557687  0  0.126456  0.122242  0  4.032216  0
C  C53  1  0.65633196  0.08450259  0.46251745  1  0  0.119772  0  3.7982  0  0  0.124216  0  4.044939  0  0  0.126631  0  4.064123  0  0.557637  0  0.126435  0.122266  0  4.032192  0
C  C54  1  0.65633196  0.41549775  0.96251681  1  0  0.119707  0  3.798174  0  0  0.124161  0  4.04489  0  0  0.126578  0  4.064073  0  0.557638  0  0.126416  0.122213  0  4.032141  0
C  C55  1  0.34367011  0.91549708  0.53748227  1  0  0.119764  0  3.798295  0  0  0.124212  0  4.044964  0  0  0.126632  0  4.064152  0  0.557655  0  0.126447  0.122262  0  4.032215  0
C  C56  1  0.25065430  0.48597292  0.99983822  1  0  0.057044  0  3.651386  0  0  0.027332  0  3.909549  0  0  0.028828  0  3.925019  0  0.51642  0  0.054656  0.026232  0  3.899015  0
C  C57  1  0.74934553  0.98597426  0.50016146  1  0  0.057017  0  3.651418  0  0  0.02728  0  3.909564  0  0  0.028775  0  3.925032  0  0.516429  0  0.054619  0.026178  0  3.899033  0
C  C58  1  0.74934777  0.51402475  0.00016086  1  0  0.057116  0  3.65131  0  0  0.027401  0  3.909437  0  0  0.028895  0  3.924905  0  0.516521  0  0.0547  0.026299  0  3.898905  0
C  C59  1  0.25065430  0.01402441  0.49983629  1  0  0.057007  0  3.651649  0  0  0.027301  0  3.909755  0  0  0.028792  0  3.925227  0  0.516467  0  0.054608  0.0262  0  3.899223  0
C  C60  1  0.24933052  0.59964689  0.87266663  1  0  0.068947  0  3.679959  0  0  0.045989  0  3.938699  0  0  0.047547  0  3.955953  0  0.534036  0  0.048793  0.044873  0  3.927079  0
C  C61  1  0.75067043  0.09964755  0.62733435  1  0  0.068998  0  3.679887  0  0  0.046062  0  3.938637  0  0  0.047621  0  3.955885  0  0.533929  0  0.048811  0.044947  0  3.927018  0
C  C62  1  0.75067043  0.40035178  0.12733306  1  0  0.068921  0  3.680007  0  0  0.045967  0  3.938752  0  0  0.047524  0  3.956009  0  0.534033  0  0.048798  0.044851  0  3.927135  0
C  C63  1  0.24933052  0.90035212  0.37266343  1  0  0.068944  0  3.679918  0  0  0.045996  0  3.938669  0  0  0.047554  0  3.955923  0  0.533907  0  0.048779  0.044885  0  3.927038  0
C  C64  1  0.33974236  0.69957433  0.91030110  1  0  0.087514  0  3.70073  0  0  0.062331  0  3.961956  0  0  0.064925  0  3.978806  0  0.466902  0  0.050072  0.060584  0  3.950454  0
C  C65  1  0.66025859  0.19957399  0.58969989  1  0  0.087451  0  3.700941  0  0  0.062239  0  3.962176  0  0  0.064834  0  3.979024  0  0.466963  0  0.050063  0.060492  0  3.950674  0
C  C66  1  0.66025859  0.30042635  0.08969924  1  0  0.087505  0  3.700874  0  0  0.062308  0  3.962106  0  0  0.064898  0  3.978959  0  0.466875  0  0.050067  0.06056  0  3.950604  0
C  C67  1  0.33974125  0.80042469  0.41030043  1  0  0.08748  0  3.700917  0  0  0.062292  0  3.962151  0  0  0.064887  0  3.979001  0  0.466981  0  0.050104  0.060545  0  3.95065  0
N  N68  1  0.68736481  0.93155092  0.00708836  1  0  -0.271486  0  3.177168  0  0  -0.211473  0  3.455236  0  0  -0.229182  0  3.474921  0  -0.670424  0  -0.213753  -0.199302  0  3.441054  0
N  N69  1  0.31263390  0.43155058  0.49291322  1  0  -0.271597  0  3.177071  0  0  -0.211593  0  3.455157  0  0  -0.229292  0  3.47485  0  -0.670213  0  -0.213814  -0.199424  0  3.440976  0
N  N70  1  0.31263726  0.06845076  0.99291264  1  0  -0.271564  0  3.176955  0  0  -0.211556  0  3.455048  0  0  -0.229268  0  3.474732  0  -0.67019  0  -0.213792  -0.199385  0  3.440867  0
N  N71  1  0.68736257  0.56844709  0.50708768  1  0  -0.271474  0  3.177009  0  0  -0.211441  0  3.45511  0  0  -0.229167  0  3.474778  0  -0.670211  0  -0.213757  -0.199272  0  3.440928  0
N  N72  1  0.66837793  0.98100753  0.92773942  1  0  -0.07792  0  3.200595  0  0  -0.023522  0  3.498042  0  0  -0.034985  0  3.518245  0  -0.169767  0  -0.091711  -0.015698  0  3.483926  0
N  N73  1  0.33162190  0.48100619  0.57226154  1  0  -0.077874  0  3.200504  0  0  -0.02347  0  3.497951  0  0  -0.034932  0  3.51815  0  -0.169784  0  -0.091724  -0.015646  0  3.483834  0
N  N74  1  0.33162302  0.01899214  0.07226092  1  0  -0.077889  0  3.20047  0  0  -0.023489  0  3.49791  0  0  -0.034951  0  3.518114  0  -0.169794  0  -0.091699  -0.015666  0  3.483794  0
N  N75  1  0.66837458  0.51899248  0.42773871  1  0  -0.077925  0  3.200579  0  0  -0.02353  0  3.498015  0  0  -0.034994  0  3.518222  0  -0.16987  0  -0.091701  -0.015707  0  3.483898  0
N  N76  1  0.79147623  0.96273668  0.88412877  1  0  -0.075206  0  2.938145  0  0  -0.074835  0  3.240844  0  0  -0.072657  0  3.25406  0  -0.10028  0  -0.088324  -0.076027  0  3.231859  0
N  N77  1  0.20852360  0.46273634  0.61587283  1  0  -0.075202  0  2.938027  0  0  -0.074843  0  3.240745  0  0  -0.072665  0  3.253957  0  -0.100335  0  -0.08832  -0.076035  0  3.231759  0
N  N78  1  0.20852472  0.03726300  0.11587156  1  0  -0.075193  0  2.937986  0  0  -0.074821  0  3.240675  0  0  -0.072645  0  3.25389  0  -0.100275  0  -0.088307  -0.076013  0  3.23169  0
N  N79  1  0.79147288  0.53726334  0.38412807  1  0  -0.075164  0  2.938115  0  0  -0.074791  0  3.240793  0  0  -0.072614  0  3.254012  0  -0.100267  0  -0.0883  -0.075982  0  3.231808  0
N  N80  1  0.89305637  0.89957065  0.93464000  1  0  -0.28992  0  2.912458  0  0  -0.271613  0  3.202736  0  0  -0.281756  0  3.214679  0  -0.627235  0  -0.213833  -0.264782  0  3.194511  0
N  N81  1  0.10694235  0.39957232  0.56536094  1  0  -0.289889  0  2.91233  0  0  -0.271574  0  3.202604  0  0  -0.281706  0  3.214556  0  -0.627109  0  -0.213799  -0.264746  0  3.194378  0
N  N82  1  0.10694347  0.10042903  0.06535968  1  0  -0.289957  0  2.912347  0  0  -0.271644  0  3.202621  0  0  -0.281789  0  3.214559  0  -0.627186  0  -0.213854  -0.264814  0  3.194395  0
N  N83  1  0.89305525  0.60042836  0.43463997  1  0  -0.290021  0  2.912407  0  0  -0.271688  0  3.202714  0  0  -0.281847  0  3.214637  0  -0.627139  0  -0.213873  -0.264859  0  3.194488  0
N  N84  1  0.09035482  0.70441666  0.16339179  1  0  -0.253462  0  3.072327  0  0  -0.226378  0  3.349719  0  0  -0.23294  0  3.364897  0  -1.171904  0  -0.301974  -0.221776  0  3.339474  0
N  N85  1  0.90964389  0.20442134  0.33661108  1  0  -0.253508  0  3.072522  0  0  -0.226413  0  3.349932  0  0  -0.232974  0  3.365105  0  -1.172216  0  -0.301977  -0.22181  0  3.339686  0
N  N86  1  0.90964501  0.29558201  0.83660917  1  0  -0.253506  0  3.072442  0  0  -0.226416  0  3.349837  0  0  -0.232978  0  3.365016  0  -1.171796  0  -0.301984  -0.221814  0  3.339591  0
N  N87  1  0.09035259  0.79558235  0.66339110  1  0  -0.253384  0  3.072392  0  0  -0.226315  0  3.349793  0  0  -0.232876  0  3.364971  0  -1.171914  0  -0.301979  -0.221714  0  3.339547  0
N  N88  1  0.80344393  0.81325431  0.15587409  1  0  -0.283915  0  3.184168  0  0  -0.226304  0  3.44164  0  0  -0.241656  0  3.460482  0  -1.188158  0  -0.292109  -0.215759  0  3.428793  0
N  N89  1  0.19655590  0.31325598  0.34412687  1  0  -0.283789  0  3.184113  0  0  -0.226117  0  3.441487  0  0  -0.241472  0  3.46033  0  -1.188195  0  -0.292024  -0.215572  0  3.428641  0
N  N90  1  0.19655590  0.18674536  0.84412559  1  0  -0.28386  0  3.184158  0  0  -0.226188  0  3.441559  0  0  -0.241541  0  3.460402  0  -1.188184  0  -0.292031  -0.215642  0  3.42871  0
N  N91  1  0.80344170  0.68674370  0.65587276  1  0  -0.283876  0  3.18417  0  0  -0.226252  0  3.441559  0  0  -0.241609  0  3.460406  0  -1.18824  0  -0.292057  -0.215705  0  3.428712  0
N  N92  1  0.46934553  0.67597760  0.16880657  1  0  -0.252779  0  3.246899  0  0  -0.177474  0  3.539914  0  0  -0.198319  0  3.558335  0  -0.664354  0  -0.204726  -0.162594  0  3.526474  0
N  N93  1  0.53065765  0.17597726  0.33119381  1  0  -0.252813  0  3.246951  0  0  -0.177504  0  3.540003  0  0  -0.198348  0  3.558425  0  -0.66435  0  -0.20477  -0.162623  0  3.526561  0
N  N94  1  0.53065654  0.32402408  0.83119315  1  0  -0.252929  0  3.246857  0  0  -0.177606  0  3.539914  0  0  -0.198449  0  3.558333  0  -0.664288  0  -0.204814  -0.162728  0  3.52648  0
N  N95  1  0.46934441  0.82402241  0.66880655  1  0  -0.252783  0  3.246907  0  0  -0.177489  0  3.539923  0  0  -0.198333  0  3.558344  0  -0.664358  0  -0.204742  -0.162609  0  3.526485  0
N  N96  1  0.50027999  0.63338874  0.24842603  1  0  -0.068237  0  2.937117  0  0  -0.073139  0  3.222327  0  0  -0.069865  0  3.238052  0  -0.081994  0  -0.085414  -0.075255  0  3.21183  0
N  N97  1  0.49972096  0.13338739  0.25157495  1  0  -0.068262  0  2.93719  0  0  -0.073142  0  3.222373  0  0  -0.06987  0  3.2381  0  -0.081939  0  -0.085392  -0.075257  0  3.211876  0
N  N98  1  0.49971872  0.36661294  0.75157426  1  0  -0.068217  0  2.936973  0  0  -0.073125  0  3.222181  0  0  -0.069851  0  3.237904  0  -0.081977  0  -0.085413  -0.075239  0  3.211683  0
N  N99  1  0.50027999  0.86661228  0.74842603  1  0  -0.068205  0  2.93712  0  0  -0.073102  0  3.222323  0  0  -0.069829  0  3.238049  0  -0.081995  0  -0.085398  -0.075217  0  3.211826  0
N  N100  1  0.44710622  0.50995787  0.25307990  1  0  -0.087772  0  3.209039  0  0  -0.026534  0  3.513923  0  0  -0.038791  0  3.532082  0  -0.170609  0  -0.090644  -0.017563  0  3.501242  0
N  N101  1  0.55289473  0.00995653  0.24692043  1  0  -0.087742  0  3.209012  0  0  -0.026499  0  3.513883  0  0  -0.038756  0  3.532044  0  -0.170637  0  -0.090627  -0.017529  0  3.501203  0
N  N102  1  0.55289361  0.49004381  0.74692041  1  0  -0.087764  0  3.208893  0  0  -0.026511  0  3.513759  0  0  -0.038767  0  3.531917  0  -0.170648  0  -0.090609  -0.017541  0  3.501079  0
N  N103  1  0.44710510  0.99004214  0.75307988  1  0  -0.087803  0  3.209088  0  0  -0.026565  0  3.513981  0  0  -0.038821  0  3.532141  0  -0.170618  0  -0.090648  -0.017594  0  3.5013  0
N  N104  1  0.38170424  0.46993012  0.17873344  1  0  -0.264596  0  2.900474  0  0  -0.253487  0  3.179391  0  0  -0.261243  0  3.193719  0  -0.610634  0  -0.206878  -0.248435  0  3.169973  0
N  N105  1  0.61830007  0.96992945  0.32126567  1  0  -0.264645  0  2.900327  0  0  -0.253517  0  3.179273  0  0  -0.261277  0  3.193608  0  -0.610531  0  -0.206905  -0.248466  0  3.169856  0
N  N106  1  0.61829895  0.53007056  0.82126565  1  0  -0.264606  0  2.900329  0  0  -0.253488  0  3.179277  0  0  -0.261246  0  3.193611  0  -0.610513  0  -0.206891  -0.248437  0  3.169861  0
N  N107  1  0.38170536  0.03006922  0.67873346  1  0  -0.264566  0  2.900453  0  0  -0.253463  0  3.179372  0  0  -0.26122  0  3.193704  0  -0.610604  0  -0.206864  -0.248412  0  3.169954  0
N  N108  1  0.20350463  0.49335530  0.91766603  1  0  -0.246884  0  3.065617  0  0  -0.214551  0  3.333141  0  0  -0.221881  0  3.351335  0  -1.168588  0  -0.299679  -0.20934  0  3.320745  0
N  N109  1  0.79649632  0.99335664  0.58233367  1  0  -0.246919  0  3.065525  0  0  -0.214587  0  3.33304  0  0  -0.221916  0  3.351234  0  -1.168558  0  -0.299677  -0.209375  0  3.320644  0
N  N110  1  0.79649743  0.50664338  0.08233240  1  0  -0.246894  0  3.065548  0  0  -0.214565  0  3.333068  0  0  -0.221895  0  3.351262  0  -1.168672  0  -0.299688  -0.209354  0  3.320671  0
N  N111  1  0.20350463  0.00664404  0.41766667  1  0  -0.246836  0  3.065772  0  0  -0.214513  0  3.333283  0  0  -0.221842  0  3.351478  0  -1.168552  0  -0.299619  -0.209302  0  3.32089  0
N  N112  1  0.38671650  0.69250594  0.99254895  1  0  -0.307276  0  3.088914  0  0  -0.268764  0  3.355508  0  0  -0.280022  0  3.371897  0  -1.165562  0  -0.300921  -0.260727  0  3.34396  0
N  N113  1  0.61328445  0.19250560  0.50745075  1  0  -0.307267  0  3.088928  0  0  -0.268781  0  3.355506  0  0  -0.280037  0  3.371892  0  -1.165493  0  -0.300916  -0.260743  0  3.343958  0
N  N114  1  0.61328445  0.30749373  0.00745075  1  0  -0.307262  0  3.088863  0  0  -0.268768  0  3.355408  0  0  -0.280026  0  3.371798  0  -1.1655  0  -0.300912  -0.260731  0  3.34386  0
N  N115  1  0.38671538  0.80749207  0.49254829  1  0  -0.307261  0  3.08901  0  0  -0.26879  0  3.355584  0  0  -0.280051  0  3.371974  0  -1.165526  0  -0.300944  -0.260753  0  3.344036  0
