# generated using pymatgen
data_Cu3H10C14S2I3N4
_symmetry_space_group_name_H-M   'P 1'
_cell_length_a   8.21794260
_cell_length_b   10.72173506
_cell_length_c   21.86991422
_cell_angle_alpha   89.99921647
_cell_angle_beta   90.00006335
_cell_angle_gamma   90.00000462
_symmetry_Int_Tables_number   1
_chemical_formula_structural   Cu3H10C14S2I3N4
_chemical_formula_sum   'Cu12 H40 C56 S8 I12 N16'
_cell_volume   1926.97133707
_cell_formula_units_Z   4
loop_
 _symmetry_equiv_pos_site_id
 _symmetry_equiv_pos_as_xyz
  1  'x, y, z'
loop_
 _atom_site_type_symbol
 _atom_site_label
 _atom_site_symmetry_multiplicity
 _atom_site_fract_x
 _atom_site_fract_y
 _atom_site_fract_z
 _atom_site_occupancy
 _atom_site_hle17_bader_spin_density
 _atom_site_hle17_ddec_charge
 _atom_site_hle17_ddec_spin_density
 _atom_site_hle17_ddec_sum_bond_order
 _atom_site_hle17_magmom
 _atom_site_hse06_10hf_bader_spin_density
 _atom_site_hse06_10hf_ddec_charge
 _atom_site_hse06_10hf_ddec_spin_density
 _atom_site_hse06_10hf_ddec_sum_bond_order
 _atom_site_hse06_10hf_magmom
 _atom_site_hse06_bader_spin_density
 _atom_site_hse06_ddec_charge
 _atom_site_hse06_ddec_spin_density
 _atom_site_hse06_ddec_sum_bond_order
 _atom_site_hse06_magmom
 _atom_site_pbe_bader_spin_density
 _atom_site_pbe_cm5_charge
 _atom_site_pbe_ddec_charge
 _atom_site_pbe_ddec_spin_density
 _atom_site_pbe_ddec_sum_bond_order
 _atom_site_pbe_magmom
Cu  Cu0  1  0.14591779  0.56930354  0.31928518  1  0  0.288463  0  2.214913  0  0  0.19891  0  2.701815  0  0  0.200786  0  2.653619  0  0  0.363305  0.201489  0  2.731304  0
Cu  Cu1  1  0.35407260  0.06931034  0.68071353  1  0  0.288504  0  2.214705  0  0  0.198941  0  2.701598  0  0  0.20079  0  2.653462  0  0  0.363296  0.20152  0  2.731089  0
Cu  Cu2  1  0.64593081  0.93069013  0.18071427  1  0  0.288478  0  2.214851  0  0  0.198928  0  2.701753  0  0  0.200781  0  2.653607  0  0  0.36329  0.2015  0  2.731247  0
Cu  Cu3  1  0.85407266  0.43069488  0.81928866  1  0  0.288497  0  2.214838  0  0  0.198925  0  2.701748  0  0  0.200786  0  2.653599  0  0  0.363281  0.201507  0  2.731266  0
Cu  Cu4  1  0.85407367  0.43069497  0.68071381  1  0  0.288534  0  2.214789  0  0  0.198994  0  2.701684  0  0  0.200833  0  2.653566  0  0  0.363331  0.201583  0  2.731193  0
Cu  Cu5  1  0.64593102  0.93069377  0.31929140  1  0  0.288494  0  2.214785  0  0  0.198914  0  2.701683  0  0  0.200792  0  2.65351  0  0  0.363257  0.201494  0  2.731193  0
Cu  Cu6  1  0.35408011  0.06930838  0.81928884  1  0  0.288542  0  2.21467  0  0  0.198945  0  2.701581  0  0  0.200805  0  2.653444  0  0  0.363296  0.201529  0  2.73108  0
Cu  Cu7  1  0.14592123  0.56930456  0.18071308  1  0  0.288541  0  2.214764  0  0  0.198983  0  2.701658  0  0  0.20083  0  2.653535  0  0  0.363313  0.201575  0  2.731164  0
Cu  Cu8  1  0.40116770  0.57933089  0.25000235  1  0  0.213249  0  2.170872  0  0  0.157082  0  2.639884  0  0  0.182204  0  2.576173  0  0  0.130036  0.140801  0  2.68248  0
Cu  Cu9  1  0.09883486  0.07933384  0.75000361  1  0  0.213217  0  2.170906  0  0  0.157032  0  2.639935  0  0  0.182166  0  2.576229  0  0  0.130019  0.140732  0  2.682581  0
Cu  Cu10  1  0.90117363  0.92067772  0.25000086  1  0  0.213136  0  2.171017  0  0  0.156953  0  2.640033  0  0  0.182081  0  2.576337  0  0  0.130028  0.140663  0  2.682648  0
Cu  Cu11  1  0.59883470  0.42067694  0.75000122  1  0  0.213141  0  2.171023  0  0  0.156936  0  2.640068  0  0  0.182078  0  2.576368  0  0  0.130001  0.140634  0  2.68271  0
H  H12  1  0.09438676  0.79359266  0.39452706  1  0  0.076387  0  0.96598  0  0  0.081905  0  1.034948  0  0  0.084835  0  1.03254  0  0  0.09818  0.079923  0  1.036406  0
H  H13  1  0.40558782  0.29359880  0.60546971  1  0  0.076306  0  0.965941  0  0  0.081834  0  1.034954  0  0  0.084761  0  1.032556  0  0  0.098146  0.079879  0  1.036386  0
H  H14  1  0.59440077  0.70640007  0.10547511  1  0  0.076301  0  0.966022  0  0  0.081838  0  1.034994  0  0  0.084748  0  1.032634  0  0  0.098131  0.07988  0  1.036421  0
H  H15  1  0.90559539  0.20640269  0.89453250  1  0  0.07633  0  0.966011  0  0  0.081874  0  1.034978  0  0  0.084806  0  1.032565  0  0  0.098186  0.079922  0  1.036416  0
H  H16  1  0.90558766  0.20640864  0.60547010  1  0  0.076372  0  0.965981  0  0  0.081889  0  1.034994  0  0  0.08483  0  1.03256  0  0  0.09818  0.079935  0  1.036429  0
H  H17  1  0.59439511  0.70640904  0.39453065  1  0  0.076443  0  0.965984  0  0  0.081965  0  1.034965  0  0  0.084909  0  1.032525  0  0  0.098207  0.079994  0  1.036433  0
H  H18  1  0.40561137  0.29359751  0.89452937  1  0  0.0764  0  0.965974  0  0  0.081915  0  1.03496  0  0  0.084858  0  1.032522  0  0  0.098174  0.079952  0  1.036412  0
H  H19  1  0.09439849  0.79359302  0.10546969  1  0  0.076358  0  0.965997  0  0  0.081875  0  1.034985  0  0  0.084817  0  1.03255  0  0  0.098175  0.079898  0  1.036442  0
H  H20  1  0.95610745  0.84986300  0.49230933  1  0  0.099918  0  0.957276  0  0  0.110309  0  1.019205  0  0  0.113883  0  1.017406  0  0  0.098419  0.107645  0  1.020768  0
H  H21  1  0.54387533  0.34987279  0.50768773  1  0  0.099999  0  0.957098  0  0  0.110341  0  1.019081  0  0  0.113915  0  1.017282  0  0  0.098387  0.107716  0  1.020595  0
H  H22  1  0.45612635  0.65013163  0.00769253  1  0  0.099969  0  0.957239  0  0  0.110317  0  1.019192  0  0  0.113896  0  1.017386  0  0  0.098413  0.107652  0  1.020761  0
H  H23  1  0.04388959  0.15012866  0.99231205  1  0  0.099997  0  0.95705  0  0  0.110358  0  1.019027  0  0  0.113932  0  1.017229  0  0  0.098406  0.107719  0  1.020559  0
H  H24  1  0.04387305  0.15013830  0.50768920  1  0  0.099974  0  0.957162  0  0  0.110354  0  1.019099  0  0  0.113927  0  1.017301  0  0  0.098435  0.107688  0  1.02067  0
H  H25  1  0.45611369  0.65013411  0.49231126  1  0  0.099965  0  0.957166  0  0  0.110347  0  1.019113  0  0  0.113921  0  1.017313  0  0  0.09839  0.107692  0  1.020659  0
H  H26  1  0.54388822  0.34986594  0.99231149  1  0  0.099914  0  0.957181  0  0  0.110323  0  1.019102  0  0  0.113898  0  1.017301  0  0  0.098392  0.10767  0  1.020656  0
H  H27  1  0.95611038  0.84987358  0.00769014  1  0  0.099933  0  0.957129  0  0  0.110307  0  1.019088  0  0  0.113881  0  1.01729  0  0  0.098394  0.107658  0  1.020629  0
H  H28  1  0.77444648  0.68937986  0.54281254  1  0  0.079837  0  1.001204  0  0  0.082429  0  1.080223  0  0  0.085779  0  1.077363  0  0  0.086615  0.080282  0  1.081927  0
H  H29  1  0.72555576  0.18939762  0.45718513  1  0  0.079839  0  1.001084  0  0  0.082393  0  1.080097  0  0  0.085744  0  1.077234  0  0  0.086582  0.080243  0  1.081815  0
H  H30  1  0.27445213  0.81060902  0.95718814  1  0  0.079873  0  1.001208  0  0  0.08246  0  1.080197  0  0  0.085813  0  1.077334  0  0  0.086623  0.080307  0  1.081906  0
H  H31  1  0.22556869  0.31060399  0.04281446  1  0  0.079834  0  1.001019  0  0  0.082344  0  1.08012  0  0  0.085693  0  1.077262  0  0  0.086582  0.0802  0  1.081825  0
H  H32  1  0.22555349  0.31061119  0.45718600  1  0  0.079846  0  1.001142  0  0  0.082436  0  1.080158  0  0  0.085791  0  1.077292  0  0  0.086618  0.080285  0  1.081865  0
H  H33  1  0.27443082  0.81060368  0.54281432  1  0  0.079797  0  1.001049  0  0  0.082302  0  1.080179  0  0  0.085651  0  1.07732  0  0  0.086564  0.08016  0  1.081882  0
H  H34  1  0.72555028  0.18938109  0.04281679  1  0  0.079752  0  1.00125  0  0  0.082349  0  1.080243  0  0  0.0857  0  1.077382  0  0  0.086583  0.080197  0  1.08195  0
H  H35  1  0.77443980  0.68939825  0.95718499  1  0  0.079835  0  1.001068  0  0  0.082404  0  1.080059  0  0  0.085753  0  1.077199  0  0  0.086581  0.080253  0  1.081769  0
H  H36  1  0.73969805  0.48283751  0.49177735  1  0  0.107928  0  0.958614  0  0  0.117788  0  1.021994  0  0  0.121227  0  1.02091  0  0  0.099838  0.115164  0  1.022994  0
H  H37  1  0.76031029  0.98285244  0.50822432  1  0  0.107847  0  0.958654  0  0  0.117777  0  1.021965  0  0  0.12123  0  1.02086  0  0  0.099808  0.115132  0  1.022993  0
H  H38  1  0.23969748  0.01714917  0.00822590  1  0  0.107765  0  0.958659  0  0  0.117699  0  1.021988  0  0  0.12115  0  1.020885  0  0  0.099774  0.115049  0  1.023018  0
H  H39  1  0.26031846  0.51715043  0.99177361  1  0  0.107785  0  0.958541  0  0  0.117691  0  1.021907  0  0  0.12113  0  1.020823  0  0  0.099777  0.115058  0  1.022913  0
H  H40  1  0.26030923  0.51715540  0.50822439  1  0  0.107814  0  0.958479  0  0  0.117742  0  1.021823  0  0  0.121183  0  1.020733  0  0  0.099798  0.115091  0  1.022851  0
H  H41  1  0.23966534  0.01714980  0.49177421  1  0  0.10793  0  0.958554  0  0  0.11789  0  1.021837  0  0  0.12133  0  1.020751  0  0  0.09987  0.115279  0  1.022826  0
H  H42  1  0.76030615  0.98284187  0.99177812  1  0  0.108004  0  0.958505  0  0  0.117845  0  1.021911  0  0  0.121285  0  1.020824  0  0  0.09982  0.115221  0  1.022913  0
H  H43  1  0.73968637  0.48285181  0.00822218  1  0  0.10789  0  0.958531  0  0  0.117807  0  1.021873  0  0  0.12125  0  1.020781  0  0  0.099804  0.115161  0  1.022905  0
H  H44  1  0.66663812  0.26264347  0.30819435  1  0  0.117788  0  0.960339  0  0  0.122778  0  1.027272  0  0  0.126522  0  1.024555  0  0  0.099564  0.12003  0  1.029538  0
H  H45  1  0.83334587  0.76264108  0.69180557  1  0  0.117749  0  0.960402  0  0  0.122743  0  1.027345  0  0  0.126495  0  1.024604  0  0  0.099561  0.11999  0  1.029609  0
H  H46  1  0.16666001  0.23736373  0.19180201  1  0  0.117715  0  0.960183  0  0  0.122694  0  1.027154  0  0  0.126445  0  1.024416  0  0  0.099515  0.119942  0  1.029418  0
H  H47  1  0.33335472  0.73736365  0.80819559  1  0  0.117827  0  0.960008  0  0  0.122766  0  1.027007  0  0  0.126514  0  1.024282  0  0  0.099562  0.120015  0  1.029271  0
H  H48  1  0.33335212  0.73736437  0.69180144  1  0  0.117735  0  0.960062  0  0  0.122695  0  1.027065  0  0  0.126453  0  1.024313  0  0  0.099532  0.119943  0  1.02933  0
H  H49  1  0.16665896  0.23736768  0.30819342  1  0  0.117711  0  0.960165  0  0  0.122651  0  1.027185  0  0  0.126396  0  1.024465  0  0  0.099519  0.119897  0  1.029446  0
H  H50  1  0.83334848  0.76263198  0.80819423  1  0  0.117726  0  0.960258  0  0  0.122703  0  1.027218  0  0  0.126458  0  1.024469  0  0  0.09955  0.119954  0  1.029484  0
H  H51  1  0.66664768  0.26263579  0.19180432  1  0  0.117763  0  0.960227  0  0  0.122756  0  1.027159  0  0  0.126504  0  1.02443  0  0  0.09957  0.120005  0  1.029422  0
C  C52  1  0.01738698  0.72679623  0.41847981  1  0  0.138668  0  3.680568  0  0  0.113124  0  3.926917  0  0  0.120652  0  3.941908  0  0  0.039158  0.107225  0  3.91893  0
C  C53  1  0.48261071  0.22680025  0.58151512  1  0  0.138759  0  3.680825  0  0  0.113165  0  3.927192  0  0  0.120695  0  3.942179  0  0  0.039183  0.107238  0  3.919204  0
C  C54  1  0.51739727  0.77320022  0.08152050  1  0  0.13882  0  3.680486  0  0  0.113225  0  3.926869  0  0  0.120754  0  3.941848  0  0  0.039225  0.107306  0  3.918852  0
C  C55  1  0.98261227  0.27319192  0.91848393  1  0  0.138804  0  3.680545  0  0  0.113208  0  3.926904  0  0  0.120741  0  3.94189  0  0  0.039193  0.107272  0  3.918931  0
C  C56  1  0.98259960  0.27319948  0.58151598  1  0  0.138749  0  3.680393  0  0  0.113137  0  3.926787  0  0  0.120673  0  3.941773  0  0  0.039153  0.107212  0  3.918803  0
C  C57  1  0.51738926  0.77319173  0.41848341  1  0  0.138751  0  3.680367  0  0  0.113138  0  3.926741  0  0  0.120672  0  3.941732  0  0  0.039165  0.107215  0  3.918759  0
C  C58  1  0.48261365  0.22680295  0.91847986  1  0  0.138648  0  3.680523  0  0  0.113072  0  3.926875  0  0  0.120604  0  3.941867  0  0  0.039185  0.107144  0  3.918889  0
C  C59  1  0.01738648  0.72680099  0.08151598  1  0  0.138754  0  3.680741  0  0  0.113195  0  3.927066  0  0  0.120727  0  3.942054  0  0  0.0392  0.107279  0  3.919077  0
C  C60  1  0.93780357  0.75784553  0.47242295  1  0  -0.124035  0  3.738675  0  0  -0.138437  0  3.987484  0  0  -0.145074  0  4.007458  0  0  -0.092825  -0.133519  0  3.975084  0
C  C61  1  0.56218408  0.25784636  0.52757381  1  0  -0.124266  0  3.738946  0  0  -0.13863  0  3.987737  0  0  -0.14527  0  4.007713  0  0  -0.092874  -0.133738  0  3.975319  0
C  C62  1  0.43782010  0.74215097  0.02757799  1  0  -0.124151  0  3.738585  0  0  -0.138521  0  3.987382  0  0  -0.145158  0  4.007349  0  0  -0.092855  -0.133609  0  3.974997  0
C  C63  1  0.06219220  0.24215416  0.97242461  1  0  -0.124247  0  3.739075  0  0  -0.138626  0  3.987863  0  0  -0.145267  0  4.007842  0  0  -0.092907  -0.133724  0  3.97546  0
C  C64  1  0.06218302  0.24216138  0.52757421  1  0  -0.124171  0  3.738834  0  0  -0.138575  0  3.987644  0  0  -0.145217  0  4.007622  0  0  -0.092834  -0.133655  0  3.975254  0
C  C65  1  0.43780007  0.74215774  0.47242473  1  0  -0.124252  0  3.73912  0  0  -0.138639  0  3.987896  0  0  -0.145283  0  4.007877  0  0  -0.092904  -0.133721  0  3.975488  0
C  C66  1  0.56218839  0.25784474  0.97242420  1  0  -0.124087  0  3.738618  0  0  -0.138521  0  3.987444  0  0  -0.145164  0  4.007426  0  0  -0.092841  -0.133607  0  3.975043  0
C  C67  1  0.93780777  0.75784342  0.02757667  1  0  -0.124215  0  3.739225  0  0  -0.138625  0  3.988017  0  0  -0.145266  0  4.007996  0  0  -0.092937  -0.13371  0  3.975598  0
C  C68  1  0.83800612  0.66923260  0.50021528  1  0  -0.010912  0  3.762168  0  0  -0.027472  0  4.011372  0  0  -0.023133  0  4.029031  0  0  -0.078715  -0.030779  0  3.999153  0
C  C69  1  0.66199612  0.16924170  0.49978572  1  0  -0.010676  0  3.762  0  0  -0.027195  0  4.011257  0  0  -0.022856  0  4.028919  0  0  -0.078532  -0.030509  0  3.999064  0
C  C70  1  0.33802284  0.83076281  0.99978679  1  0  -0.010712  0  3.762019  0  0  -0.027253  0  4.01123  0  0  -0.02292  0  4.028896  0  0  -0.078579  -0.030557  0  3.999007  0
C  C71  1  0.16200284  0.33074964  0.00021202  1  0  -0.010641  0  3.761902  0  0  -0.027142  0  4.011139  0  0  -0.0228  0  4.028797  0  0  -0.078542  -0.030453  0  3.99893  0
C  C72  1  0.16199020  0.33076497  0.49978782  1  0  -0.010653  0  3.762121  0  0  -0.027192  0  4.011301  0  0  -0.022855  0  4.02896  0  0  -0.078605  -0.030495  0  3.999069  0
C  C73  1  0.33799655  0.83075308  0.50021373  1  0  -0.010581  0  3.762001  0  0  -0.027098  0  4.011243  0  0  -0.022755  0  4.0289  0  0  -0.078551  -0.030416  0  3.999046  0
C  C74  1  0.66199295  0.16923663  0.00021494  1  0  -0.010635  0  3.762008  0  0  -0.027199  0  4.011267  0  0  -0.022857  0  4.028926  0  0  -0.078596  -0.030502  0  3.999044  0
C  C75  1  0.83800930  0.66924513  0.99978514  1  0  -0.010685  0  3.762015  0  0  -0.027192  0  4.011265  0  0  -0.022848  0  4.028919  0  0  -0.078529  -0.030501  0  3.999052  0
C  C76  1  0.81912909  0.55358847  0.47217989  1  0  -0.151445  0  3.720328  0  0  -0.168719  0  3.964718  0  0  -0.17643  0  3.985948  0  0  -0.091892  -0.162352  0  3.949842  0
C  C77  1  0.68087680  0.05359771  0.52782051  1  0  -0.151411  0  3.720472  0  0  -0.168773  0  3.96474  0  0  -0.176493  0  3.985963  0  0  -0.091919  -0.162389  0  3.94989  0
C  C78  1  0.31913103  0.94640148  0.02781917  1  0  -0.151375  0  3.720283  0  0  -0.168741  0  3.964628  0  0  -0.176457  0  3.985854  0  0  -0.091905  -0.162358  0  3.94976  0
C  C79  1  0.18087397  0.44640003  0.97217613  1  0  -0.151451  0  3.72032  0  0  -0.168796  0  3.964646  0  0  -0.176507  0  3.985874  0  0  -0.091883  -0.162427  0  3.949773  0
C  C80  1  0.18086845  0.44640351  0.52782368  1  0  -0.151506  0  3.720358  0  0  -0.168871  0  3.964694  0  0  -0.176582  0  3.985923  0  0  -0.091931  -0.162484  0  3.949825  0
C  C81  1  0.31911344  0.94640080  0.47217757  1  0  -0.151699  0  3.720389  0  0  -0.169084  0  3.964729  0  0  -0.176795  0  3.98595  0  0  -0.091984  -0.162734  0  3.949865  0
C  C82  1  0.68087868  0.05359050  0.97218073  1  0  -0.151595  0  3.720243  0  0  -0.168898  0  3.964575  0  0  -0.17661  0  3.985799  0  0  -0.091927  -0.162534  0  3.949699  0
C  C83  1  0.81911869  0.55360035  0.02782012  1  0  -0.151526  0  3.720313  0  0  -0.168912  0  3.96463  0  0  -0.176624  0  3.985848  0  0  -0.091917  -0.162535  0  3.949787  0
C  C84  1  0.90628343  0.52860540  0.41863428  1  0  0.196125  0  3.738566  0  0  0.199238  0  3.997697  0  0  0.207438  0  4.016615  0  0  0.114284  0.193251  0  3.985762  0
C  C85  1  0.59371273  0.02860659  0.58136353  1  0  0.19583  0  3.739062  0  0  0.19905  0  3.998018  0  0  0.207251  0  4.016936  0  0  0.11419  0.193071  0  3.986069  0
C  C86  1  0.40629161  0.97139202  0.08136299  1  0  0.195932  0  3.738789  0  0  0.199077  0  3.997871  0  0  0.207277  0  4.01679  0  0  0.114216  0.193098  0  3.985902  0
C  C87  1  0.09371948  0.47139487  0.91863581  1  0  0.196104  0  3.739029  0  0  0.199305  0  3.998002  0  0  0.207507  0  4.016917  0  0  0.114301  0.193329  0  3.986042  0
C  C88  1  0.09370924  0.47140150  0.58136242  1  0  0.19607  0  3.738926  0  0  0.199252  0  3.997896  0  0  0.207456  0  4.016807  0  0  0.11423  0.193275  0  3.985945  0
C  C89  1  0.40627264  0.97139565  0.41863820  1  0  0.196094  0  3.738939  0  0  0.199255  0  3.997942  0  0  0.20746  0  4.016855  0  0  0.114251  0.193278  0  3.986001  0
C  C90  1  0.59371566  0.02860649  0.91863738  1  0  0.196017  0  3.738919  0  0  0.199233  0  3.997823  0  0  0.207439  0  4.016735  0  0  0.114265  0.193254  0  3.985876  0
C  C91  1  0.90628658  0.52860364  0.08135861  1  0  0.196012  0  3.738938  0  0  0.199265  0  3.997831  0  0  0.207471  0  4.016738  0  0  0.114231  0.193285  0  3.985892  0
C  C92  1  0.87593747  0.38471603  0.31133803  1  0  0.170008  0  3.735902  0  0  0.167658  0  4.004823  0  0  0.174915  0  4.017795  0  0  0.11684  0.162728  0  3.997269  0
C  C93  1  0.62405870  0.88471837  0.68866200  1  0  0.169956  0  3.73599  0  0  0.167739  0  4.004727  0  0  0.175  0  4.017695  0  0  0.116831  0.162803  0  3.997174  0
C  C94  1  0.37595083  0.11528653  0.18865933  1  0  0.169955  0  3.7363  0  0  0.167804  0  4.004919  0  0  0.175081  0  4.017877  0  0  0.11681  0.162868  0  3.997355  0
C  C95  1  0.12406633  0.61528448  0.81133816  1  0  0.170003  0  3.735873  0  0  0.167813  0  4.004514  0  0  0.175081  0  4.017481  0  0  0.116867  0.162874  0  3.996964  0
C  C96  1  0.12406250  0.61528528  0.68865958  1  0  0.169982  0  3.735715  0  0  0.167851  0  4.004353  0  0  0.175122  0  4.017319  0  0  0.116891  0.162908  0  3.99681  0
C  C97  1  0.37594614  0.11528759  0.31133882  1  0  0.169763  0  3.736057  0  0  0.167644  0  4.004625  0  0  0.174915  0  4.017586  0  0  0.116773  0.162712  0  3.997054  0
C  C98  1  0.62406496  0.88471011  0.81133875  1  0  0.170021  0  3.735752  0  0  0.167812  0  4.00447  0  0  0.175078  0  4.017434  0  0  0.116876  0.162881  0  3.99691  0
C  C99  1  0.87593972  0.38470657  0.18865991  1  0  0.169954  0  3.735947  0  0  0.167764  0  4.004642  0  0  0.175038  0  4.017604  0  0  0.116803  0.162841  0  3.997067  0
C  C100  1  0.75576501  0.31413645  0.28160927  1  0  -0.071614  0  3.680507  0  0  -0.093451  0  3.932692  0  0  -0.0908  0  3.943473  0  0  -0.075228  -0.096112  0  3.92637  0
C  C101  1  0.74423115  0.81413983  0.71838985  1  0  -0.071505  0  3.68048  0  0  -0.093388  0  3.93264  0  0  -0.090738  0  3.943429  0  0  -0.075219  -0.096036  0  3.926307  0
C  C102  1  0.25578698  0.18585584  0.21839170  1  0  -0.071608  0  3.680989  0  0  -0.093479  0  3.933096  0  0  -0.090839  0  3.943889  0  0  -0.075285  -0.096128  0  3.926753  0
C  C103  1  0.24422288  0.68585184  0.78160076  1  0  -0.071649  0  3.681213  0  0  -0.093432  0  3.933294  0  0  -0.090795  0  3.944091  0  0  -0.075225  -0.096079  0  3.926959  0
C  C104  1  0.24422157  0.68585087  0.71839658  1  0  -0.07157  0  3.68128  0  0  -0.093433  0  3.933369  0  0  -0.090794  0  3.944172  0  0  -0.075268  -0.096078  0  3.927035  0
C  C105  1  0.25578829  0.18586241  0.28160411  1  0  -0.071398  0  3.680687  0  0  -0.09322  0  3.932775  0  0  -0.090578  0  3.943567  0  0  -0.075157  -0.095861  0  3.926424  0
C  C106  1  0.74422760  0.81413894  0.78161049  1  0  -0.071503  0  3.680445  0  0  -0.093328  0  3.932566  0  0  -0.090682  0  3.943357  0  0  -0.075206  -0.09598  0  3.926237  0
C  C107  1  0.75577222  0.31414107  0.21839000  1  0  -0.071529  0  3.680583  0  0  -0.093366  0  3.932672  0  0  -0.090724  0  3.943457  0  0  -0.075244  -0.096017  0  3.926336  0
S  S108  1  0.89225189  0.37295654  0.39132330  1  0  -0.016251  0  2.498546  0  0  -0.022111  0  2.844399  0  0  -0.024141  0  2.843743  0  0  0.046301  -0.021956  0  2.846718  0
S  S109  1  0.60775279  0.87297047  0.60867498  1  0  -0.016095  0  2.49874  0  0  -0.022019  0  2.844478  0  0  -0.024051  0  2.843821  0  0  0.046378  -0.021863  0  2.846788  0
S  S110  1  0.39225893  0.12703576  0.10867544  1  0  -0.016084  0  2.498637  0  0  -0.022012  0  2.844399  0  0  -0.024046  0  2.843739  0  0  0.046398  -0.021866  0  2.846713  0
S  S111  1  0.10774728  0.62703144  0.89132426  1  0  -0.016114  0  2.498739  0  0  -0.022079  0  2.844496  0  0  -0.024111  0  2.843836  0  0  0.046365  -0.021925  0  2.846805  0
S  S112  1  0.10774321  0.62703451  0.60867432  1  0  -0.016067  0  2.498637  0  0  -0.022009  0  2.844359  0  0  -0.024042  0  2.843698  0  0  0.046408  -0.021856  0  2.846674  0
S  S113  1  0.39225083  0.12704296  0.39132493  1  0  -0.016024  0  2.498512  0  0  -0.021997  0  2.844276  0  0  -0.024031  0  2.843615  0  0  0.046378  -0.021849  0  2.846587  0
S  S114  1  0.60775078  0.87296275  0.89132675  1  0  -0.016133  0  2.498551  0  0  -0.022079  0  2.844288  0  0  -0.024112  0  2.843628  0  0  0.046401  -0.021925  0  2.8466  0
S  S115  1  0.89225025  0.37296333  0.10867290  1  0  -0.016098  0  2.49852  0  0  -0.022061  0  2.84426  0  0  -0.024093  0  2.843597  0  0  0.046386  -0.021904  0  2.846564  0
I  I116  1  0.41464568  0.46588228  0.35551343  1  0  -0.406314  0  1.524734  0  0  -0.361012  0  1.949868  0  0  -0.38618  0  1.919785  0  0  -0.200829  -0.342348  0  1.969227  0
I  I117  1  0.08534472  0.96588960  0.64449226  1  0  -0.406307  0  1.524694  0  0  -0.361014  0  1.949869  0  0  -0.386183  0  1.919797  0  0  -0.200831  -0.342348  0  1.969245  0
I  I118  1  0.91465129  0.03412868  0.14448944  1  0  -0.406238  0  1.524751  0  0  -0.360926  0  1.949869  0  0  -0.386088  0  1.919786  0  0  -0.200787  -0.342259  0  1.969233  0
I  I119  1  0.58535095  0.53412537  0.85551200  1  0  -0.406265  0  1.524764  0  0  -0.360949  0  1.94989  0  0  -0.386119  0  1.919816  0  0  -0.200802  -0.34228  0  1.96927  0
I  I120  1  0.58535186  0.53412835  0.64448876  1  0  -0.406299  0  1.524728  0  0  -0.360979  0  1.949843  0  0  -0.38614  0  1.919764  0  0  -0.200814  -0.342314  0  1.969221  0
I  I121  1  0.91465282  0.03412663  0.35551221  1  0  -0.406238  0  1.524755  0  0  -0.360919  0  1.949874  0  0  -0.386088  0  1.919798  0  0  -0.20079  -0.342254  0  1.96924  0
I  I122  1  0.08535234  0.96588009  0.85551367  1  0  -0.406272  0  1.524635  0  0  -0.360946  0  1.949747  0  0  -0.386113  0  1.919672  0  0  -0.200805  -0.342279  0  1.969126  0
I  I123  1  0.41465510  0.46588153  0.14449248  1  0  -0.406288  0  1.524674  0  0  -0.361005  0  1.949841  0  0  -0.386163  0  1.919768  0  0  -0.200819  -0.342343  0  1.969208  0
I  I124  1  0.67598345  0.72513287  0.25000192  1  0  -0.300964  0  1.838529  0  0  -0.251678  0  2.327734  0  0  -0.267143  0  2.28188  0  0  -0.163444  -0.241377  0  2.357277  0
I  I125  1  0.82401758  0.22513211  0.75000328  1  0  -0.300974  0  1.838531  0  0  -0.251683  0  2.327747  0  0  -0.26715  0  2.2819  0  0  -0.163443  -0.24138  0  2.357311  0
I  I126  1  0.17598117  0.77486920  0.25000074  1  0  -0.300965  0  1.838529  0  0  -0.251687  0  2.327739  0  0  -0.267156  0  2.281887  0  0  -0.163457  -0.241391  0  2.357279  0
I  I127  1  0.32402018  0.27487497  0.74999981  1  0  -0.300956  0  1.838439  0  0  -0.251674  0  2.327685  0  0  -0.267144  0  2.281839  0  0  -0.16344  -0.241366  0  2.357238  0
N  N128  1  0.00643651  0.61284768  0.39270276  1  0  -0.294822  0  3.337542  0  0  -0.229816  0  3.618107  0  0  -0.241631  0  3.626952  0  0  -0.35589  -0.223154  0  3.613407  0
N  N129  1  0.49356240  0.11285284  0.60729383  1  0  -0.294727  0  3.337425  0  0  -0.229707  0  3.6179  0  0  -0.24152  0  3.62674  0  0  -0.355845  -0.223047  0  3.613211  0
N  N130  1  0.50644445  0.88714970  0.10729389  1  0  -0.294788  0  3.337489  0  0  -0.229758  0  3.618004  0  0  -0.241567  0  3.626842  0  0  -0.355871  -0.223078  0  3.61327  0
N  N131  1  0.99356388  0.38715145  0.89270476  1  0  -0.294952  0  3.337243  0  0  -0.229935  0  3.617775  0  0  -0.241752  0  3.626618  0  0  -0.355941  -0.22327  0  3.613087  0
N  N132  1  0.99355737  0.38715549  0.60729486  1  0  -0.294926  0  3.337297  0  0  -0.229855  0  3.61775  0  0  -0.241671  0  3.626591  0  0  -0.355895  -0.223204  0  3.61308  0
N  N133  1  0.50642906  0.88715779  0.39270653  1  0  -0.294973  0  3.33732  0  0  -0.229889  0  3.617775  0  0  -0.241714  0  3.626626  0  0  -0.355864  -0.22323  0  3.61309  0
N  N134  1  0.49357012  0.11285067  0.89270556  1  0  -0.294885  0  3.337603  0  0  -0.229816  0  3.618019  0  0  -0.241638  0  3.626869  0  0  -0.355916  -0.223159  0  3.613333  0
N  N135  1  0.00643244  0.61284612  0.10729423  1  0  -0.294886  0  3.337411  0  0  -0.229877  0  3.617886  0  0  -0.241693  0  3.626723  0  0  -0.355885  -0.223229  0  3.613215  0
N  N136  1  0.98849115  0.45054816  0.28082972  1  0  -0.155853  0  3.27864  0  0  -0.105792  0  3.570605  0  0  -0.106144  0  3.571301  0  0  -0.250438  -0.1072  0  3.571138  0
N  N137  1  0.51151598  0.95055523  0.71916896  1  0  -0.155944  0  3.2786  0  0  -0.105941  0  3.570537  0  0  -0.106297  0  3.571231  0  0  -0.250493  -0.107348  0  3.571067  0
N  N138  1  0.48849972  0.04944042  0.21916952  1  0  -0.156002  0  3.278569  0  0  -0.106057  0  3.570574  0  0  -0.106422  0  3.571266  0  0  -0.250457  -0.107456  0  3.57109  0
N  N139  1  0.01151135  0.54944295  0.78082887  1  0  -0.155923  0  3.278458  0  0  -0.105922  0  3.570422  0  0  -0.106284  0  3.571123  0  0  -0.250473  -0.107326  0  3.570958  0
N  N140  1  0.01150883  0.54943916  0.71916927  1  0  -0.155979  0  3.278481  0  0  -0.106106  0  3.570565  0  0  -0.106466  0  3.571261  0  0  -0.2505  -0.107508  0  3.571102  0
N  N141  1  0.48849860  0.04944608  0.28083186  1  0  -0.155771  0  3.278401  0  0  -0.105824  0  3.570353  0  0  -0.106187  0  3.571051  0  0  -0.250338  -0.107232  0  3.57088  0
N  N142  1  0.51151607  0.95055716  0.78083130  1  0  -0.156034  0  3.278334  0  0  -0.106063  0  3.570319  0  0  -0.106421  0  3.571011  0  0  -0.250505  -0.107467  0  3.570845  0
N  N143  1  0.98849227  0.45054996  0.21916692  1  0  -0.156017  0  3.27853  0  0  -0.106053  0  3.57051  0  0  -0.10642  0  3.571207  0  0  -0.250426  -0.107464  0  3.571047  0
