# generated using pymatgen
data_CoH15C15N2O5
_symmetry_space_group_name_H-M   'P 1'
_cell_length_a   8.15344273
_cell_length_b   14.52938175
_cell_length_c   15.67718633
_cell_angle_alpha   89.99872698
_cell_angle_beta   103.34879145
_cell_angle_gamma   89.99871319
_symmetry_Int_Tables_number   1
_chemical_formula_structural   CoH15C15N2O5
_chemical_formula_sum   'Co4 H60 C60 N8 O20'
_cell_volume   1807.01334740
_cell_formula_units_Z   4
loop_
 _symmetry_equiv_pos_site_id
 _symmetry_equiv_pos_as_xyz
  1  'x, y, z'
loop_
 _atom_site_type_symbol
 _atom_site_label
 _atom_site_symmetry_multiplicity
 _atom_site_fract_x
 _atom_site_fract_y
 _atom_site_fract_z
 _atom_site_occupancy
 _atom_site_pbe_bader_charge
 _atom_site_pbe_bader_spin_density
 _atom_site_pbe_cm5_charge
 _atom_site_pbe_ddec_charge
 _atom_site_pbe_ddec_spin_density
 _atom_site_pbe_ddec_sum_bond_order
 _atom_site_pbe_magmom
Co  Co0  1  0.16543566  0.91338354  0.61179914  1  1.2913  2.595164  0.675061  0.899058  2.825976  2.51375  2.577
Co  Co1  1  0.33455430  0.41338522  0.38820018  1  1.290933  2.595177  0.674847  0.898729  2.82594  2.513574  2.577
Co  Co2  1  0.83456004  0.08664210  0.38821952  1  1.291227  2.595154  0.674951  0.898572  2.825822  2.513994  2.577
Co  Co3  1  0.66545242  0.58660876  0.61178725  1  1.291042  2.595045  0.675158  0.898906  2.825925  2.514887  2.576
H  H4  1  0.40884676  0.83512343  0.71958343  1  0.594124  0.000356  0.306576  0.385125  9.8e-05  0.905635  0.0
H  H5  1  0.09102747  0.33515416  0.28039752  1  0.595692  0.000352  0.306607  0.385157  9.6e-05  0.905833  0.0
H  H6  1  0.59110217  0.16490634  0.28041634  1  0.593964  0.00035  0.306567  0.385223  9.4e-05  0.905458  0.0
H  H7  1  0.90898800  0.66483844  0.71958328  1  0.595345  0.000351  0.306515  0.385072  9.6e-05  0.905724  0.0
H  H8  1  0.50413736  0.88717327  0.65822143  1  0.638699  4.6e-05  0.283155  0.374815  6.4e-05  0.974346  0.0
H  H9  1  0.99581518  0.38724219  0.34175869  1  0.638963  4.6e-05  0.283147  0.374578  6.4e-05  0.97461  0.0
H  H10  1  0.49577465  0.11282346  0.34173700  1  0.638362  4.6e-05  0.283125  0.374873  6.5e-05  0.974338  0.0
H  H11  1  0.00420294  0.61274559  0.65823518  1  0.638719  4.6e-05  0.283248  0.374689  6.4e-05  0.974491  0.0
H  H12  1  0.39249782  0.69112605  0.34411788  1  0.086082  -0.000304  0.107216  0.110894  -0.000487  1.007363  0.0
H  H13  1  0.10743562  0.19114273  0.65587492  1  0.083017  -0.000311  0.10714  0.1109  -0.000487  1.007632  0.0
H  H14  1  0.60757731  0.30890579  0.65591203  1  0.085298  -0.000305  0.107132  0.110728  -0.000487  1.007551  0.0
H  H15  1  0.89247660  0.80886777  0.34410459  1  0.085708  -0.000305  0.107168  0.110956  -0.000488  1.007389  0.0
H  H16  1  0.27783421  0.95813701  0.43666793  1  0.124966  0.001718  0.123297  0.110962  0.000437  1.013333  0.001
H  H17  1  0.22207907  0.45815242  0.56332336  1  0.124781  0.001719  0.123279  0.11065  0.000438  1.013627  0.001
H  H18  1  0.72221183  0.04188450  0.56334836  1  0.125624  0.001718  0.123272  0.11103  0.000437  1.013162  0.001
H  H19  1  0.77791910  0.54184707  0.43668985  1  0.12476  0.001719  0.123181  0.110611  0.000437  1.013712  0.001
H  H20  1  0.32908979  0.94508833  0.29174451  1  0.026862  3.3e-05  0.093351  0.095167  -7.3e-05  1.003543  0.0
H  H21  1  0.17085187  0.44509607  0.70824719  1  0.026748  3.4e-05  0.093348  0.095085  -7.3e-05  1.003795  0.0
H  H22  1  0.67092839  0.05492699  0.70825574  1  0.027392  3.3e-05  0.093356  0.095104  -7.3e-05  1.00374  0.0
H  H23  1  0.82911724  0.55489034  0.29175559  1  0.026513  3.3e-05  0.093305  0.095107  -7.3e-05  1.003675  0.0
H  H24  1  0.52818359  0.89602124  0.32744948  1  0.102732  0.000239  0.098478  0.114066  1e-05  1.018572  0.0
H  H25  1  0.97176119  0.39604810  0.67255635  1  0.102187  0.00024  0.098545  0.114049  1.1e-05  1.01832  0.0
H  H26  1  0.47183075  0.10400440  0.67254459  1  0.102266  0.00024  0.098511  0.114065  1.1e-05  1.018513  0.0
H  H27  1  0.02821418  0.60395070  0.32744334  1  0.102222  0.00024  0.098509  0.114156  1e-05  1.018246  0.0
H  H28  1  0.44255126  0.75997041  0.22638539  1  0.038324  -3.1e-05  0.079688  0.100142  -2.5e-05  1.038284  0.0
H  H29  1  0.05742783  0.25998213  0.77361964  1  0.038468  -3e-05  0.079719  0.10021  -2.5e-05  1.038265  0.0
H  H30  1  0.55746071  0.24004628  0.77362306  1  0.03823  -3e-05  0.079616  0.100153  -2.5e-05  1.038311  0.0
H  H31  1  0.94254626  0.74001185  0.22637798  1  0.03865  -3e-05  0.079709  0.100243  -2.5e-05  1.038079  0.0
H  H32  1  0.40552452  0.86482165  0.16748080  1  0.00715  0.000192  0.082392  0.106494  8.9e-05  1.013985  0.0
H  H33  1  0.09445414  0.36481428  0.83252138  1  0.006943  0.000192  0.082377  0.106577  8.9e-05  1.014064  0.0
H  H34  1  0.59448237  0.13518266  0.83252323  1  0.0071  0.000192  0.082401  0.106614  8.9e-05  1.013999  0.0
H  H35  1  0.90551609  0.63515836  0.16746814  1  0.006682  0.000193  0.082443  0.106678  8.9e-05  1.013877  0.0
H  H36  1  0.23432172  0.80431122  0.19394437  1  0.006662  -1e-05  0.079518  0.104383  -3.9e-05  1.020763  0.0
H  H37  1  0.26563601  0.30431956  0.80604257  1  0.006794  -1e-05  0.079682  0.104594  -3.9e-05  1.020741  0.0
H  H38  1  0.76571044  0.19569928  0.80606774  1  0.006828  -1e-05  0.079549  0.10454  -4e-05  1.020781  0.0
H  H39  1  0.73430524  0.69567167  0.19394418  1  0.006332  -1.1e-05  0.079557  0.104538  -4e-05  1.020754  0.0
H  H40  1  0.87675938  0.88754699  0.69387775  1  0.153253  0.001477  0.118042  0.093353  0.000409  1.038151  0.001
H  H41  1  0.62326390  0.38756293  0.30612791  1  0.153318  0.001478  0.117977  0.093226  0.00041  1.038116  0.001
H  H42  1  0.12322104  0.11243874  0.30612318  1  0.153343  0.001475  0.118043  0.093383  0.000409  1.03823  0.001
H  H43  1  0.37679805  0.61242348  0.69384177  1  0.153643  0.001479  0.118007  0.093403  0.00041  1.038203  0.001
H  H44  1  0.78894020  0.92835010  0.83067264  1  0.08731  0.001323  0.108709  0.119147  0.000682  0.992057  0.0
H  H45  1  0.71106198  0.42835103  0.16932267  1  0.087171  0.001322  0.108697  0.119253  0.000681  0.992002  0.0
H  H46  1  0.21099980  0.07165007  0.16931524  1  0.087687  0.001321  0.108608  0.119059  0.000681  0.991823  0.0
H  H47  1  0.28899117  0.57164570  0.83064788  1  0.088258  0.001322  0.108592  0.118843  0.000682  0.992017  0.0
H  H48  1  0.23643466  0.09720517  0.90138052  1  0.06084  0.001037  0.103594  0.109845  0.000522  0.999935  0.0
H  H49  1  0.26353611  0.59720427  0.09858480  1  0.060258  0.001037  0.103499  0.109843  0.000521  0.999653  0.0
H  H50  1  0.76350448  0.90279088  0.09864744  1  0.060737  0.001036  0.103522  0.109812  0.000521  1.000044  0.0
H  H51  1  0.73650303  0.40277939  0.90137072  1  0.060563  0.001038  0.103458  0.109695  0.000522  0.999864  0.0
H  H52  1  0.30796202  0.04602528  0.76153944  1  0.115893  0.001394  0.119228  0.092669  0.000155  1.014171  0.001
H  H53  1  0.19201532  0.54604669  0.23843856  1  0.115801  0.001395  0.119171  0.092599  0.000156  1.014222  0.001
H  H54  1  0.69199852  0.95398246  0.23848721  1  0.11563  0.001393  0.119163  0.092618  0.000155  1.014418  0.001
H  H55  1  0.80802640  0.45394522  0.76152237  1  0.116313  0.001395  0.119192  0.092556  0.000156  1.01454  0.001
H  H56  1  0.82761032  0.04167263  0.95691507  1  0.012831  -0.000271  0.09652  0.095884  -0.000207  0.981769  0.0
H  H57  1  0.67236634  0.54166870  0.04305462  1  0.013016  -0.00027  0.096523  0.095924  -0.000206  0.981874  0.0
H  H58  1  0.17231473  0.95830621  0.04308891  1  0.013696  -0.000271  0.096407  0.095799  -0.000206  0.98198  0.0
H  H59  1  0.32765639  0.45831221  0.95689642  1  0.01343  -0.000271  0.09652  0.09596  -0.000207  0.981732  0.0
H  H60  1  0.01787429  0.10457124  0.98990292  1  0.04111  -5.6e-05  0.096172  0.097062  -3.2e-05  0.976469  0.0
H  H61  1  0.48209234  0.60457042  0.01006495  1  0.041356  -5.6e-05  0.096271  0.097126  -3.2e-05  0.97662  0.0
H  H62  1  0.98203446  0.89541379  0.01010808  1  0.041341  -5.6e-05  0.096189  0.097055  -3.2e-05  0.976628  0.0
H  H63  1  0.51794554  0.39540842  0.98989106  1  0.041022  -5.6e-05  0.096177  0.097143  -3.2e-05  0.976627  0.0
C  C64  1  0.23763424  0.75283505  0.51850810  1  0.50199  -0.00456  0.105068  0.057405  -0.005666  3.966883  -0.003
C  C65  1  0.26236562  0.25284366  0.48152249  1  0.502843  -0.004549  0.104914  0.057093  -0.005654  3.968009  -0.003
C  C66  1  0.76241683  0.24717958  0.48150750  1  0.502359  -0.004562  0.105019  0.057069  -0.005668  3.96776  -0.003
C  C67  1  0.73764156  0.74714206  0.51851092  1  0.501894  -0.004575  0.104899  0.0571  -0.005682  3.967032  -0.003
C  C68  1  0.29945417  0.69560786  0.46138671  1  0.0164  0.009711  -0.000626  -0.062724  0.004662  3.946113  0.007
C  C69  1  0.20054481  0.19561725  0.53863602  1  0.015304  0.009705  -0.000796  -0.062972  0.004659  3.947396  0.007
C  C70  1  0.70061086  0.30441090  0.53864010  1  0.01445  0.009716  -0.000515  -0.06265  0.004663  3.946279  0.007
C  C71  1  0.79945471  0.80436985  0.46138628  1  0.016439  0.009722  -0.000583  -0.062668  0.004667  3.94607  0.007
C  C72  1  0.34664351  0.73572094  0.38953534  1  -0.087309  -0.010036  -0.071122  -0.122701  -0.010923  3.904534  -0.006
C  C73  1  0.15330408  0.23573539  0.61046777  1  -0.084514  -0.010015  -0.07102  -0.122669  -0.010908  3.904681  -0.006
C  C74  1  0.65342668  0.26429506  0.61050419  1  -0.084842  -0.010045  -0.071153  -0.122554  -0.010932  3.904379  -0.006
C  C75  1  0.84663464  0.76426066  0.38951805  1  -0.086938  -0.01006  -0.071115  -0.122889  -0.010949  3.904224  -0.006
C  C76  1  0.33860478  0.83099497  0.37766085  1  0.00521  0.005307  0.003752  0.096584  0.002526  3.926561  0.004
C  C77  1  0.16133165  0.33101454  0.62234919  1  0.005015  0.005307  0.003639  0.096541  0.002527  3.926818  0.004
C  C78  1  0.66145392  0.16901828  0.62236203  1  0.002244  0.005313  0.003738  0.096585  0.002528  3.926686  0.004
C  C79  1  0.83861739  0.66898219  0.37766144  1  0.005429  0.005317  0.003784  0.096654  0.002531  3.925988  0.004
C  C80  1  0.28329821  0.88327689  0.44087724  1  0.526735  -0.007916  0.053434  0.05463  -0.008327  3.865535  -0.005
C  C81  1  0.21664310  0.38328559  0.55913676  1  0.527496  -0.007896  0.053579  0.055317  -0.008304  3.865178  -0.005
C  C82  1  0.71676546  0.11674186  0.55913921  1  0.527968  -0.007921  0.053655  0.054655  -0.00833  3.865139  -0.005
C  C83  1  0.78333507  0.61670495  0.44089133  1  0.527193  -0.007936  0.053807  0.055334  -0.008345  3.864758  -0.005
C  C84  1  0.16248355  0.71770032  0.59133045  1  1.577329  0.000729  0.206945  0.535576  9.4e-05  4.225386  0.0
C  C85  1  0.33751039  0.21772144  0.40868103  1  1.576699  0.000739  0.206939  0.535906  9.9e-05  4.224741  0.0
C  C86  1  0.83750939  0.28233427  0.40866365  1  1.579187  0.000731  0.206842  0.535551  9.7e-05  4.225265  0.0
C  C87  1  0.66249674  0.78226704  0.59134663  1  1.57725  0.000744  0.207062  0.536134  0.000104  4.225456  0.0
C  C88  1  0.32653945  0.59403128  0.47562411  1  1.611483  0.013674  0.229815  0.608022  0.009747  4.160232  0.011
C  C89  1  0.17343588  0.09404616  0.52440241  1  1.61131  0.013663  0.22963  0.60787  0.00974  4.161  0.011
C  C90  1  0.67351267  0.40598266  0.52436993  1  1.611801  0.013666  0.229829  0.608039  0.009745  4.160384  0.011
C  C91  1  0.82654869  0.90594644  0.47563599  1  1.611422  0.013685  0.229813  0.608257  0.009758  4.160775  0.011
C  C92  1  0.39379833  0.87841254  0.30372528  1  -0.015574  0.000897  -0.165335  -0.157831  0.000473  3.954544  0.001
C  C93  1  0.10615068  0.37842551  0.69627760  1  -0.015231  0.000898  -0.165197  -0.157427  0.000473  3.954895  0.001
C  C94  1  0.60621874  0.12160347  0.69628951  1  -0.015492  0.000898  -0.165407  -0.157661  0.000474  3.954003  0.001
C  C95  1  0.89381464  0.62156847  0.30372410  1  -0.014705  0.000898  -0.165394  -0.157843  0.000473  3.954283  0.001
C  C96  1  0.36742062  0.82356556  0.21846972  1  -0.067116  0.000329  -0.2463  -0.346827  0.000164  3.986665  0.0
C  C97  1  0.13254119  0.32357753  0.78152177  1  -0.066916  0.000329  -0.246583  -0.347411  0.000164  3.987386  0.0
C  C98  1  0.63260151  0.17645251  0.78154759  1  -0.067319  0.000329  -0.246239  -0.347186  0.000164  3.986485  0.0
C  C99  1  0.86741009  0.67641370  0.21846106  1  -0.066542  0.00033  -0.246431  -0.347368  0.000165  3.986622  0.0
C  C100  1  0.95502928  0.93184373  0.74273984  1  0.540312  -0.009866  0.048311  0.104579  -0.010513  3.928556  -0.006
C  C101  1  0.54498406  0.43186183  0.25725672  1  0.540918  -0.009849  0.048445  0.104858  -0.010492  3.928598  -0.006
C  C102  1  0.04494114  0.06814681  0.25726820  1  0.539537  -0.00985  0.048149  0.104225  -0.010497  3.928916  -0.006
C  C103  1  0.45507410  0.56812733  0.74271252  1  0.539807  -0.009861  0.048001  0.103929  -0.010508  3.929354  -0.006
C  C104  1  0.90668171  0.95573814  0.81919577  1  -0.102138  0.005651  -0.088406  -0.192574  0.002494  3.95627  0.005
C  C105  1  0.59332155  0.45574716  0.18079720  1  -0.101844  0.005646  -0.088523  -0.193009  0.002493  3.956266  0.005
C  C106  1  0.09326976  0.04425171  0.18080622  1  -0.101691  0.005647  -0.088208  -0.192241  0.002492  3.955996  0.005
C  C107  1  0.40673535  0.54423925  0.81917061  1  -0.102638  0.005651  -0.088111  -0.191976  0.002494  3.955918  0.005
C  C108  1  0.00774411  0.01537957  0.87933513  1  -0.051244  -0.01584  0.002668  0.152807  -0.016759  3.98052  -0.01
C  C109  1  0.49224872  0.51538560  0.12064914  1  -0.050068  -0.015815  0.002863  0.153183  -0.016736  3.980013  -0.01
C  C110  1  0.99219854  0.98461716  0.12066645  1  -0.050198  -0.015817  0.002939  0.152932  -0.016737  3.980535  -0.01
C  C111  1  0.50780324  0.48460356  0.87932957  1  -0.050926  -0.015841  0.002975  0.153039  -0.016763  3.980418  -0.01
C  C112  1  0.15385916  0.04938381  0.85772911  1  -0.1112  0.005995  -0.095558  -0.208249  0.002621  3.98851  0.005
C  C113  1  0.34612555  0.54938770  0.14224841  1  -0.110442  0.005989  -0.095381  -0.20818  0.002619  3.987989  0.005
C  C114  1  0.84609626  0.95060949  0.14228929  1  -0.111959  0.005989  -0.095548  -0.208383  0.002618  3.988774  0.005
C  C115  1  0.65391111  0.45059320  0.85771065  1  -0.111459  0.005994  -0.095587  -0.208263  0.00262  3.988726  0.005
C  C116  1  0.19458563  0.02184856  0.78011283  1  0.543862  -0.011247  0.044638  0.094014  -0.012298  3.964316  -0.007
C  C117  1  0.30541066  0.52186211  0.21987300  1  0.543907  -0.011231  0.044628  0.094026  -0.01228  3.964636  -0.007
C  C118  1  0.80538240  0.97814955  0.21990769  1  0.544262  -0.011229  0.044655  0.094112  -0.012279  3.964384  -0.007
C  C119  1  0.69462858  0.47812430  0.78009274  1  0.545676  -0.011242  0.044638  0.094079  -0.012294  3.964724  -0.007
C  C120  1  0.96517732  0.03737485  0.96528400  1  -0.000936  -0.001064  -0.152555  -0.195418  -0.00151  3.952315  0.0
C  C121  1  0.53480090  0.53737285  0.03469298  1  -0.002807  -0.001069  -0.152713  -0.19553  -0.001511  3.952661  0.0
C  C122  1  0.03474639  0.96260811  0.03471153  1  0.01687  -0.001051  -0.152414  -0.1949  -0.00151  3.952489  0.0
C  C123  1  0.46523335  0.46260186  0.96527664  1  0.017876  -0.001049  -0.152538  -0.19536  -0.00151  3.952643  0.0
N  N124  1  0.23329000  0.84531676  0.50857131  1  -1.234604  0.049617  -0.326129  -0.272752  0.025839  3.650578  0.046
N  N125  1  0.26667355  0.34531957  0.49145502  1  -1.234559  0.049642  -0.32604  -0.272898  0.025851  3.65052  0.046
N  N126  1  0.76675467  0.15469993  0.49143334  1  -1.23417  0.049622  -0.326209  -0.272452  0.025843  3.651011  0.046
N  N127  1  0.73331357  0.65466133  0.50858624  1  -1.23536  0.049659  -0.326225  -0.272779  0.025861  3.650686  0.046
N  N128  1  0.09760347  0.96335171  0.72340638  1  -1.227216  0.047232  -0.326544  -0.233247  0.025165  3.555471  0.043
N  N129  1  0.40241278  0.46337657  0.27658543  1  -1.227461  0.04724  -0.326467  -0.23319  0.025167  3.555671  0.043
N  N130  1  0.90238602  0.03664089  0.27662049  1  -1.226746  0.047223  -0.326561  -0.233172  0.025154  3.555375  0.043
N  N131  1  0.59763023  0.53661191  0.72337947  1  -1.229488  0.047232  -0.326525  -0.233015  0.025162  3.555796  0.043
O  O132  1  0.13963704  0.77763695  0.64792978  1  -1.149354  0.082236  -0.329494  -0.578146  0.042513  2.300023  0.07
O  O133  1  0.36029454  0.27767153  0.35207441  1  -1.148564  0.082236  -0.329302  -0.578052  0.042511  2.300339  0.07
O  O134  1  0.86025998  0.22239695  0.35204029  1  -1.149531  0.082236  -0.329524  -0.578299  0.042511  2.299556  0.07
O  O135  1  0.63977301  0.72230937  0.64795206  1  -1.149209  0.082255  -0.32946  -0.578373  0.042523  2.300925  0.07
O  O136  1  0.12330008  0.63383119  0.59216801  1  -1.1535  0.012177  -0.29394  -0.497974  0.005955  2.202115  0.01
O  O137  1  0.37673467  0.13385184  0.40783788  1  -1.153093  0.01219  -0.294016  -0.498057  0.005962  2.20128  0.01
O  O138  1  0.87672059  0.36618413  0.40782935  1  -1.15419  0.012164  -0.293683  -0.497554  0.005949  2.202662  0.01
O  O139  1  0.62327627  0.86612356  0.59219342  1  -1.153043  0.012196  -0.294016  -0.498044  0.005964  2.202103  0.01
O  O140  1  0.42419595  0.56612223  0.54592401  1  -1.160687  0.084155  -0.302482  -0.565434  0.042947  2.473041  0.069
O  O141  1  0.07585241  0.06614072  0.45408488  1  -1.160517  0.084101  -0.302422  -0.565328  0.042917  2.47348  0.068
O  O142  1  0.57584234  0.43387657  0.45407223  1  -1.160564  0.084111  -0.302508  -0.565464  0.042925  2.473343  0.068
O  O143  1  0.92415104  0.93383812  0.54595256  1  -1.160781  0.084183  -0.302339  -0.565588  0.042963  2.473978  0.069
O  O144  1  0.25426550  0.54255680  0.41235736  1  -1.148768  0.081399  -0.295564  -0.524973  0.042488  2.346112  0.067
O  O145  1  0.24568499  0.04256926  0.58768836  1  -1.149037  0.081462  -0.295415  -0.524965  0.042515  2.345892  0.067
O  O146  1  0.74581151  0.45750876  0.58760771  1  -1.149435  0.08146  -0.295634  -0.525064  0.042521  2.346285  0.067
O  O147  1  0.75430497  0.95746464  0.41238512  1  -1.148502  0.081456  -0.295775  -0.52533  0.042515  2.345699  0.067
O  O148  1  0.42207767  0.89681102  0.69756371  1  -1.211752  0.059086  -0.57155  -0.753843  0.030758  2.099038  0.048
O  O149  1  0.07784726  0.39685172  0.30239322  1  -1.213573  0.05903  -0.571612  -0.753678  0.030725  2.099207  0.048
O  O150  1  0.57781922  0.10320498  0.30239422  1  -1.21123  0.059038  -0.571609  -0.754041  0.030729  2.098254  0.048
O  O151  1  0.92216570  0.60314226  0.69758729  1  -1.213003  0.059057  -0.571645  -0.753674  0.030738  2.099121  0.048
