# generated using pymatgen
data_GdH10C16(NO4)2
_symmetry_space_group_name_H-M   'P 1'
_cell_length_a   12.57286458
_cell_length_b   14.58057751
_cell_length_c   16.12084796
_cell_angle_alpha   116.88844665
_cell_angle_beta   97.63985104
_cell_angle_gamma   89.96213325
_symmetry_Int_Tables_number   1
_chemical_formula_structural   GdH10C16(NO4)2
_chemical_formula_sum   'Gd4 H40 C64 N8 O32'
_cell_volume   2606.45573028
_cell_formula_units_Z   4
loop_
 _symmetry_equiv_pos_site_id
 _symmetry_equiv_pos_as_xyz
  1  'x, y, z'
loop_
 _atom_site_type_symbol
 _atom_site_label
 _atom_site_symmetry_multiplicity
 _atom_site_fract_x
 _atom_site_fract_y
 _atom_site_fract_z
 _atom_site_occupancy
 _atom_site_pbe_bader_charge
 _atom_site_pbe_bader_spin_density
 _atom_site_pbe_cm5_charge
 _atom_site_pbe_ddec_charge
 _atom_site_pbe_ddec_spin_density
 _atom_site_pbe_ddec_sum_bond_order
 _atom_site_pbe_magmom
Gd  Gd0  1  0.46252537  0.39630243  0.36756940  1  2.169491  0.01145  1.476775  2.021681  0.02057  2.246612  0.014
Gd  Gd1  1  0.03735391  0.02858066  0.63251765  1  2.16675  0.011446  1.476925  2.021155  0.020604  2.246876  0.014
Gd  Gd2  1  0.53747594  0.60369251  0.63242678  1  2.169502  0.011451  1.476787  2.021744  0.020569  2.24659  0.014
Gd  Gd3  1  0.96263701  0.97142247  0.36747430  1  2.166699  0.011448  1.476821  2.021191  0.020596  2.246744  0.014
H  H4  1  0.91725780  0.10637199  0.93032751  1  0.077318  0.000507  0.11256  0.121097  0.000651  0.982092  0.0
H  H5  1  0.95807295  0.36646430  0.87696036  1  0.093875  4e-06  0.104167  0.106579  -1.4e-05  1.012582  0.0
H  H6  1  0.30920552  0.45725652  0.25155084  1  0.653278  -6e-06  0.333889  0.422094  -2e-06  0.86975  0.0
H  H7  1  0.23495546  0.44258893  0.31713966  1  0.632429  1.2e-05  0.345343  0.431439  1.3e-05  0.843385  0.0
H  H8  1  0.94499276  0.70157990  0.30848098  1  0.148563  5e-06  0.115633  0.135055  -1.8e-05  1.036989  0.0
H  H9  1  0.80807253  0.72528937  0.54928941  1  0.113089  0.000265  0.112883  0.124076  -0.000124  0.997671  0.0
H  H10  1  0.90169663  0.48383045  0.03310309  1  0.103872  5e-06  0.104597  0.107454  -4e-06  1.024684  0.0
H  H11  1  0.74052353  0.45088484  0.28462968  1  0.158677  0.000205  0.115429  0.121351  0.000575  1.024193  0.0
H  H12  1  0.86026391  0.22416664  0.08731072  1  0.095796  0.002321  0.107599  0.10618  0.004514  1.005476  0.0
H  H13  1  0.42101550  0.11900744  0.33526456  1  0.172868  0.142068  0.137753  0.124356  0.105932  0.950176  0.087
H  H14  1  0.58253618  0.17616958  0.06986641  1  0.091428  0.000505  0.11242  0.120879  0.000651  0.981645  0.0
H  H15  1  0.54238400  0.48969145  0.12308587  1  0.117457  4e-06  0.104221  0.106931  -1.4e-05  1.012867  0.0
H  H16  1  0.19117003  0.20534000  0.74836469  1  0.644046  -7e-06  0.334248  0.422443  -2e-06  0.869136  0.0
H  H17  1  0.26492648  0.12433968  0.68278086  1  0.634405  1.2e-05  0.345022  0.431226  1.3e-05  0.843503  0.0
H  H18  1  0.55415659  0.39237827  0.69104382  1  0.157391  5e-06  0.115736  0.135551  -1.8e-05  1.036669  0.0
H  H19  1  0.69162308  0.17560688  0.45043374  1  0.10919  0.000269  0.112856  0.124087  -0.00013  0.997649  0.0
H  H20  1  0.59876760  0.45061532  0.96688167  1  0.078881  6e-06  0.104915  0.107428  -4e-06  1.023788  0.0
H  H21  1  0.75875002  0.16540773  0.71498594  1  0.142926  0.000207  0.11567  0.121306  0.000581  1.024195  0.0
H  H22  1  0.63951496  0.13662854  0.91289767  1  0.12071  0.002337  0.106984  0.105877  0.00453  1.005548  0.0
H  H23  1  0.07863346  0.78355766  0.66497855  1  0.165591  0.142349  0.138126  0.124708  0.105966  0.949391  0.087
H  H24  1  0.08277943  0.89361430  0.06968267  1  0.077789  0.000508  0.112595  0.121021  0.000651  0.982039  0.0
H  H25  1  0.04193134  0.63351399  0.12302997  1  0.094059  4e-06  0.104136  0.106764  -1.4e-05  1.012513  0.0
H  H26  1  0.69078625  0.54274807  0.74845492  1  0.653548  -6e-06  0.333943  0.422188  -2e-06  0.869591  0.0
H  H27  1  0.76504038  0.55741620  0.68286745  1  0.632672  1.2e-05  0.345405  0.431491  1.3e-05  0.843261  0.0
H  H28  1  0.05499383  0.29841348  0.69150966  1  0.148521  5e-06  0.115665  0.135033  -1.8e-05  1.037008  0.0
H  H29  1  0.19191891  0.27470152  0.45069954  1  0.113987  0.000266  0.112875  0.124016  -0.000123  0.997786  0.0
H  H30  1  0.09832425  0.51615399  0.96688889  1  0.103807  6e-06  0.104649  0.107605  -4e-06  1.024724  0.0
H  H31  1  0.25947955  0.54909452  0.71535553  1  0.159006  0.000203  0.115453  0.121417  0.000571  1.024131  0.0
H  H32  1  0.13978852  0.77582631  0.91270471  1  0.096044  0.002326  0.1076  0.106177  0.004529  1.005491  0.0
H  H33  1  0.57899871  0.88098948  0.66473448  1  0.172618  0.142089  0.137745  0.124312  0.10594  0.950174  0.087
H  H34  1  0.41751486  0.82384913  0.93016247  1  0.089763  0.000504  0.112499  0.120922  0.00065  0.981703  0.0
H  H35  1  0.45757514  0.51029889  0.87689918  1  0.117632  4e-06  0.104178  0.106953  -1.4e-05  1.01284  0.0
H  H36  1  0.80881743  0.79466926  0.25162876  1  0.644226  -7e-06  0.334286  0.422596  -2e-06  0.868906  0.0
H  H37  1  0.73507739  0.87568480  0.31721947  1  0.634323  1.2e-05  0.34504  0.431342  1.3e-05  0.843357  0.0
H  H38  1  0.44583023  0.60760741  0.30895531  1  0.157663  5e-06  0.115742  0.135555  -1.9e-05  1.036701  0.0
H  H39  1  0.30837304  0.82439246  0.54956064  1  0.109077  0.000268  0.112844  0.124109  -0.000131  0.997564  0.0
H  H40  1  0.40118644  0.54938393  0.03310687  1  0.078564  6e-06  0.10493  0.107516  -4e-06  1.023764  0.0
H  H41  1  0.24123365  0.83458326  0.28500691  1  0.142847  0.000207  0.115672  0.12132  0.000581  1.024007  0.0
H  H42  1  0.36053839  0.86338588  0.08712616  1  0.120419  0.002336  0.107025  0.105918  0.004526  1.005633  0.0
H  H43  1  0.92133207  0.21652592  0.33508684  1  0.164854  0.142385  0.138076  0.124958  0.105956  0.949429  0.087
C  C44  1  0.69048326  0.54171430  0.46156003  1  1.613214  0.000311  0.23187  0.650308  0.000387  4.149842  0.0
C  C45  1  0.98114756  0.16180954  0.80595417  1  1.519081  5.7e-05  0.192666  0.575371  0.000135  4.214346  0.0
C  C46  1  0.94241933  0.23035527  0.89614508  1  -0.013008  9.8e-05  -0.008755  -0.015534  7.2e-05  3.935696  0.0
C  C47  1  0.91369201  0.18899328  0.95401290  1  0.016589  0.000161  -0.074846  -0.0782  0.000169  3.947014  0.0
C  C48  1  0.93673415  0.33653828  0.92398354  1  -0.001225  -1.7e-05  -0.079268  -0.078542  -9.4e-05  3.950334  0.0
C  C49  1  0.93740714  0.82824412  0.49556606  1  1.534064  0.000201  0.220964  0.63495  0.00038  4.16044  0.0
C  C50  1  0.88180949  0.72476518  0.43536890  1  -0.056374  0.000294  -0.016833  -0.035082  0.000223  3.999955  0.0
C  C51  1  0.89473557  0.66953296  0.34061568  1  -0.010351  5.5e-05  -0.071108  -0.163556  1.4e-05  3.889214  0.0
C  C52  1  0.81810668  0.68205441  0.47562398  1  -0.033944  0.000486  -0.068093  -0.091963  0.000531  3.902142  0.0
C  C53  1  0.76535145  0.58439162  0.42067071  1  -0.077142  5.4e-05  -0.013753  -0.030922  -5e-06  3.966137  0.0
C  C54  1  0.84679338  0.56930705  0.28743449  1  0.32146  3.6e-05  0.082684  0.158632  -1.9e-05  4.063797  0.0
C  C55  1  0.88075321  0.36000496  0.06947636  1  0.380704  1.3e-05  0.088553  0.167574  -0.000172  4.043679  0.0
C  C56  1  0.90591610  0.40138982  0.01005207  1  -0.060146  0.000101  -0.083793  -0.143136  6.3e-05  3.938471  0.0
C  C57  1  0.78028435  0.52746860  0.32694704  1  0.025148  4.4e-05  -0.061812  -0.126221  0.000112  3.868301  0.0
C  C58  1  0.88249002  0.25355280  0.04019750  1  -0.107006  0.000426  -0.075697  -0.132979  0.00045  3.951335  0.0
C  C59  1  0.35587224  0.12901012  0.28536806  1  0.901029  0.588173  0.106811  0.150644  0.643827  3.103596  0.302
C  C60  1  0.80925922  0.07960947  0.53825421  1  1.58748  0.00031  0.233172  0.65111  0.000389  4.150042  0.0
C  C61  1  0.51872362  0.35623835  0.19414335  1  1.529658  5.9e-05  0.192804  0.573809  0.000139  4.21573  0.0
C  C62  1  0.55754475  0.33440259  0.10393897  1  0.031621  9.8e-05  -0.008933  -0.015057  7.3e-05  3.93606  0.0
C  C63  1  0.58611901  0.23505308  0.04611531  1  -0.068963  0.000169  -0.074762  -0.078023  0.000171  3.947112  0.0
C  C64  1  0.56349714  0.41263898  0.07603790  1  -0.070092  -1.5e-05  -0.079852  -0.079935  -9.2e-05  3.953536  0.0
C  C65  1  0.56246715  0.33235537  0.50408386  1  1.541425  0.000214  0.221096  0.635698  0.000406  4.161082  0.0
C  C66  1  0.61770932  0.28886118  0.56428888  1  0.017695  0.0003  -0.017565  -0.036092  0.000235  4.001306  0.0
C  C67  1  0.60447296  0.32818654  0.65894845  1  -0.070579  5.5e-05  -0.071219  -0.164313  1.3e-05  3.888916  0.0
C  C68  1  0.68147521  0.20588707  0.52405788  1  -0.040442  0.000485  -0.067039  -0.090779  0.000532  3.899802  0.0
C  C69  1  0.73406606  0.16298516  0.57897941  1  -0.009547  5.3e-05  -0.013727  -0.030286  -6e-06  3.965253  0.0
C  C70  1  0.65242717  0.28112630  0.71216782  1  0.319226  3.7e-05  0.082482  0.159737  -1.9e-05  4.060186  0.0
C  C71  1  0.61922103  0.29031486  0.93050871  1  0.393957  1.2e-05  0.088687  0.166901  -0.000173  4.0437  0.0
C  C72  1  0.59433460  0.39124945  0.98993825  1  -0.012689  0.000101  -0.083283  -0.141531  6.3e-05  3.938843  0.0
C  C73  1  0.71903909  0.19976769  0.67268024  1  -0.02519  4.5e-05  -0.062517  -0.127715  0.000112  3.868362  0.0
C  C74  1  0.61735917  0.21322387  0.95991169  1  -0.095496  0.000434  -0.075238  -0.132884  0.000456  3.951724  0.0
C  C75  1  0.14396481  0.84335410  0.71456931  1  0.9086  0.588198  0.106839  0.150299  0.643818  3.100945  0.302
C  C76  1  0.30950999  0.45828037  0.53842347  1  1.61297  0.000311  0.23185  0.650317  0.000387  4.149842  0.0
C  C77  1  0.01885168  0.83817660  0.19403935  1  1.513376  5.8e-05  0.192606  0.575367  0.000136  4.214256  0.0
C  C78  1  0.05760389  0.76962981  0.10385837  1  -0.007509  9.7e-05  -0.008627  -0.015568  7.1e-05  3.935869  0.0
C  C79  1  0.08634095  0.81099303  0.04599341  1  0.016394  0.000161  -0.074791  -0.077791  0.000169  3.946903  0.0
C  C80  1  0.06328394  0.66344597  0.07601440  1  -0.002186  -1.5e-05  -0.079375  -0.078952  -9.2e-05  3.950447  0.0
C  C81  1  0.06258737  0.17175446  0.50442753  1  1.534259  0.0002  0.220682  0.634315  0.000379  4.160849  0.0
C  C82  1  0.11818606  0.27522580  0.56462172  1  -0.056708  0.000293  -0.016812  -0.034766  0.000222  3.999828  0.0
C  C83  1  0.10525609  0.33045443  0.65937363  1  -0.010424  5.7e-05  -0.071179  -0.163585  1.6e-05  3.888941  0.0
C  C84  1  0.18188457  0.31793828  0.52436369  1  -0.034488  0.00049  -0.068054  -0.091955  0.000536  3.902075  0.0
C  C85  1  0.23464278  0.41559946  0.57931228  1  -0.07763  4.9e-05  -0.013634  -0.030838  -1e-05  3.96631  0.0
C  C86  1  0.15320631  0.43068047  0.71255501  1  0.321736  3.2e-05  0.0828  0.158675  -2.3e-05  4.063823  0.0
C  C87  1  0.11928187  0.63998366  0.93052765  1  0.379361  1.4e-05  0.088572  0.167252  -0.000171  4.044384  0.0
C  C88  1  0.09410836  0.59859547  0.98994621  1  -0.059554  9.9e-05  -0.083784  -0.142998  6.1e-05  3.9386  0.0
C  C89  1  0.21971288  0.47251373  0.67303725  1  0.024879  5e-05  -0.06189  -0.126316  0.000119  3.868562  0.0
C  C90  1  0.11755409  0.74643546  0.95980931  1  -0.10761  0.000428  -0.075832  -0.133112  0.000453  3.951906  0.0
C  C91  1  0.64412759  0.87098392  0.71464107  1  0.901439  0.588168  0.10691  0.1507  0.64382  3.103403  0.302
C  C92  1  0.19073144  0.92038986  0.46174242  1  1.587559  0.00031  0.233046  0.651085  0.000388  4.15009  0.0
C  C93  1  0.48127013  0.64376511  0.80585513  1  1.529845  5.9e-05  0.192795  0.573865  0.000138  4.215581  0.0
C  C94  1  0.44246135  0.66560176  0.89606513  1  0.03147  9.9e-05  -0.00895  -0.015238  7.5e-05  3.936308  0.0
C  C95  1  0.41391533  0.76495732  0.95389663  1  -0.068034  0.000168  -0.074834  -0.077934  0.00017  3.947116  0.0
C  C96  1  0.43649186  0.58735941  0.92395701  1  -0.070201  -1.6e-05  -0.079736  -0.079816  -9.2e-05  3.953627  0.0
C  C97  1  0.43753563  0.66764710  0.49591680  1  1.541475  0.000214  0.221041  0.635608  0.000407  4.161163  0.0
C  C98  1  0.38229340  0.71114113  0.43571084  1  0.017702  0.000298  -0.017528  -0.036028  0.000233  4.001302  0.0
C  C99  1  0.39552208  0.67180769  0.34104928  1  -0.070812  5.6e-05  -0.071257  -0.164347  1.5e-05  3.889039  0.0
C  C100  1  0.31852486  0.79411665  0.47593937  1  -0.040739  0.000488  -0.067074  -0.090875  0.000535  3.899719  0.0
C  C101  1  0.26592296  0.83701030  0.42101333  1  -0.009279  5e-05  -0.013634  -0.030273  -9e-06  3.965248  0.0
C  C102  1  0.34756313  0.71886410  0.28782758  1  0.319686  3.5e-05  0.082429  0.159617  -2.2e-05  4.060046  0.0
C  C103  1  0.38078994  0.70968949  0.06949620  1  0.394194  1.3e-05  0.088677  0.166828  -0.000172  4.04379  0.0
C  C104  1  0.40565760  0.60874924  0.01005698  1  -0.012355  0.0001  -0.083291  -0.141634  6.2e-05  3.93898  0.0
C  C105  1  0.28094707  0.80022075  0.32731163  1  -0.025694  4.8e-05  -0.062412  -0.12748  0.000116  3.868046  0.0
C  C106  1  0.38267208  0.78678719  0.04010242  1  -0.094706  0.000434  -0.075312  -0.132951  0.000455  3.951773  0.0
C  C107  1  0.85594765  0.15676769  0.28553853  1  0.910133  0.588085  0.106707  0.149792  0.64383  3.101457  0.302
N  N108  1  0.87111854  0.51487199  0.19460739  1  -0.492238  7.5e-05  -0.150768  -0.136993  7.3e-05  3.256126  0.0
N  N109  1  0.85501998  0.41806224  0.16083160  1  -0.47058  0.000447  -0.14501  -0.130202  6.6e-05  3.300123  0.0
N  N110  1  0.62806682  0.31954665  0.80499910  1  -0.476511  7.5e-05  -0.15117  -0.138268  7.3e-05  3.255297  0.0
N  N111  1  0.64486045  0.25683850  0.83909853  1  -0.474862  0.000446  -0.144491  -0.129006  7.1e-05  3.300152  0.0
N  N112  1  0.12888915  0.48511858  0.80538447  1  -0.492308  7.6e-05  -0.150836  -0.136981  7.5e-05  3.256295  0.0
N  N113  1  0.14500846  0.58192450  0.83916738  1  -0.46943  0.000444  -0.144965  -0.13015  6.2e-05  3.300068  0.0
N  N114  1  0.37192021  0.68044267  0.19499441  1  -0.476811  7.6e-05  -0.151237  -0.138318  7.4e-05  3.255317  0.0
N  N115  1  0.35515162  0.74315842  0.16090434  1  -0.474567  0.000445  -0.144452  -0.128948  7e-05  3.30024  0.0
O  O116  1  0.64091298  0.45499514  0.40650811  1  -1.199053  0.000919  -0.402211  -0.650265  0.000565  2.312297  0.0
O  O117  1  0.68019295  0.59551665  0.54791690  1  -1.206404  0.001748  -0.396285  -0.673476  0.001132  2.272592  0.001
O  O118  1  0.98524694  0.06526718  0.78075761  1  -1.152565  0.001348  -0.391086  -0.627283  0.000855  2.150706  0.0
O  O119  1  0.01056455  0.20062739  0.75449828  1  -1.189758  0.00025  -0.384542  -0.644335  -0.000128  2.224202  0.0
O  O120  1  0.95967344  0.85918653  0.58366437  1  -1.148912  0.009367  -0.372622  -0.623053  0.009296  2.210233  0.004
O  O121  1  0.96277079  0.88475201  0.45805353  1  -1.216159  0.001306  -0.425627  -0.742503  0.000481  2.455891  0.001
O  O122  1  0.29276673  0.41376275  0.28033267  1  -1.237868  0.000124  -0.599239  -0.80146  -0.000504  2.017556  0.0
O  O123  1  0.34213069  0.20834458  0.28227094  1  -1.05592  0.236962  -0.169117  -0.232978  0.210042  2.441972  0.186
O  O124  1  0.85884769  0.04802579  0.59340490  1  -1.190538  0.000912  -0.402386  -0.64972  0.000554  2.310824  0.0
O  O125  1  0.81981826  0.04721895  0.45197443  1  -1.204194  0.001729  -0.397078  -0.674614  0.00112  2.274903  0.001
O  O126  1  0.51461099  0.28494435  0.21940191  1  -1.16522  0.001371  -0.391426  -0.626279  0.000871  2.151376  0.0
O  O127  1  0.48922439  0.44654059  0.24550354  1  -1.1884  0.00025  -0.383966  -0.643829  -0.000127  2.224389  0.0
O  O128  1  0.54039227  0.27533997  0.41595707  1  -1.16144  0.009418  -0.372251  -0.622933  0.009306  2.210097  0.004
O  O129  1  0.53721369  0.42643835  0.54162233  1  -1.218689  0.001314  -0.426206  -0.743823  0.000486  2.458927  0.001
O  O130  1  0.20721645  0.13295120  0.71981619  1  -1.230696  0.000121  -0.599502  -0.801638  -0.000507  2.017091  0.0
O  O131  1  0.15776547  0.92559966  0.71733186  1  -1.05666  0.236801  -0.169314  -0.232691  0.209825  2.441008  0.186
O  O132  1  0.35908571  0.54499410  0.59348003  1  -1.198865  0.000917  -0.402179  -0.650323  0.000561  2.31218  0.0
O  O133  1  0.31979596  0.40448205  0.45206520  1  -1.206324  0.001747  -0.396353  -0.673475  0.001129  2.272579  0.001
O  O134  1  0.01472923  0.93471564  0.21922391  1  -1.15218  0.001351  -0.391131  -0.62728  0.000861  2.150444  0.0
O  O135  1  0.98943303  0.79936385  0.24549878  1  -1.189066  0.000251  -0.384508  -0.644402  -0.000128  2.224254  0.0
O  O136  1  0.04032094  0.14080985  0.41632547  1  -1.14897  0.00937  -0.372445  -0.622854  0.009296  2.210243  0.004
O  O137  1  0.03721311  0.11524988  0.54194021  1  -1.216417  0.001305  -0.425599  -0.742206  0.00048  2.455886  0.001
O  O138  1  0.70722582  0.58623943  0.71967069  1  -1.238332  0.000124  -0.599339  -0.801593  -0.000504  2.017348  0.0
O  O139  1  0.65788060  0.79164454  0.71772566  1  -1.056099  0.236946  -0.169208  -0.232994  0.210046  2.441787  0.186
O  O140  1  0.14114222  0.95197967  0.40659787  1  -1.1906  0.000913  -0.402312  -0.649773  0.000554  2.310894  0.0
O  O141  1  0.18017557  0.95278175  0.54802283  1  -1.204214  0.001733  -0.397066  -0.674572  0.001125  2.274754  0.001
O  O142  1  0.48537528  0.71505884  0.78059238  1  -1.165382  0.001367  -0.391487  -0.626438  0.000864  2.151168  0.0
O  O143  1  0.51077250  0.55346717  0.75449773  1  -1.188317  0.000249  -0.383904  -0.643727  -0.000127  2.224396  0.0
O  O144  1  0.45961314  0.72465924  0.58404419  1  -1.161563  0.009417  -0.372248  -0.622878  0.0093  2.21005  0.004
O  O145  1  0.46278772  0.57356235  0.45838038  1  -1.218704  0.001314  -0.42616  -0.743777  0.000486  2.458906  0.001
O  O146  1  0.79277168  0.86705889  0.28016421  1  -1.230749  0.000121  -0.599518  -0.801868  -0.000506  2.016674  0.0
O  O147  1  0.84218492  0.07448458  0.28271171  1  -1.057397  0.236869  -0.169114  -0.23244  0.209803  2.441205  0.186
