# generated using pymatgen
data_Zn4H15C30NO13
_symmetry_space_group_name_H-M   'P 1'
_cell_length_a   10.82432402
_cell_length_b   10.91626811
_cell_length_c   17.96230691
_cell_angle_alpha   72.53278499
_cell_angle_beta   82.77399446
_cell_angle_gamma   82.29444911
_symmetry_Int_Tables_number   1
_chemical_formula_structural   Zn4H15C30NO13
_chemical_formula_sum   'Zn4 H15 C30 N1 O13'
_cell_volume   1998.06712918
_cell_formula_units_Z   1
loop_
 _symmetry_equiv_pos_site_id
 _symmetry_equiv_pos_as_xyz
  1  'x, y, z'
loop_
 _atom_site_type_symbol
 _atom_site_label
 _atom_site_symmetry_multiplicity
 _atom_site_fract_x
 _atom_site_fract_y
 _atom_site_fract_z
 _atom_site_occupancy
 _atom_site_pbe_bader_charge
 _atom_site_pbe_bader_spin_density
 _atom_site_pbe_cm5_charge
 _atom_site_pbe_ddec_charge
 _atom_site_pbe_ddec_spin_density
 _atom_site_pbe_ddec_sum_bond_order
 _atom_site_pbe_magmom
Zn  Zn0  1  0.58269149  0.56431215  0.56515369  1  1.309538  0  0.677096  0.960001  0  2.412558  0
Zn  Zn1  1  0.61586442  0.40432030  0.44015471  1  1.309196  0  0.670826  0.962474  0  2.358384  0
Zn  Zn2  1  0.41148964  0.64585831  0.42398168  1  1.315551  0  0.669173  0.965712  0  2.35012  0
Zn  Zn3  1  0.37567522  0.38321904  0.56873027  1  1.31808  0  0.675843  0.97217  0  2.347754  0
H  H4  1  0.42083803  0.16748551  0.07903499  1  0.074812  0  0.108046  0.110375  0  0.989751  0
H  H5  1  0.37696707  0.19510282  0.81453222  1  0.104992  0  0.116125  0.125989  0  0.979237  0
H  H6  1  0.47969631  0.30883473  0.14868293  1  0.065445  0  0.108641  0.11022  0  1.001174  0
H  H7  1  0.62245184  0.63703097  0.85640286  1  0.118722  0  0.107415  0.116981  0  1.021617  0
H  H8  1  0.65171980  0.00745590  0.62949818  1  0.036718  0  0.092378  0.126925  0  0.993053  0
H  H9  1  0.56485619  0.87098183  0.64993904  1  0.134397  0  0.100674  0.159286  0  1.018722  0
H  H10  1  0.69618457  0.88633912  0.58004869  1  0.092451  0  0.104634  0.154491  0  0.975499  0
H  H11  1  0.67529632  0.84285930  0.04501102  1  0.07313  0  0.104426  0.104258  0  0.993424  0
H  H12  1  0.41327964  0.03361000  0.45249548  1  0.065753  0  0.10891  0.136726  0  0.988096  0
H  H13  1  0.01850899  0.58373663  0.39246572  1  0.099009  0  0.117534  0.139821  0  0.97066  0
H  H14  1  0.99529682  0.41059287  0.56381012  1  0.151501  0  0.122832  0.144316  0  0.968388  0
H  H15  1  0.52036103  0.42576194  0.20388329  1  0.092077  0  0.10681  0.110629  0  1.015898  0
H  H16  1  0.63002358  0.79476260  0.19042169  1  0.077021  0  0.10915  0.114474  0  0.987428  0
H  H17  1  0.68288637  0.77732735  0.92492993  1  0.058824  0  0.10771  0.109998  0  0.984245  0
H  H18  1  0.37986603  0.12732256  0.96033862  1  0.075558  0  0.111234  0.112016  0  0.981089  0
C  C19  1  0.51686037  0.15818750  0.52717485  1  1.608165  0  0.234846  0.605806  0  4.156468  0
C  C20  1  0.60085815  0.61347242  0.91942920  1  -0.019018  0  -0.08906  -0.127499  0  4.007622  0
C  C21  1  0.63637798  0.69198805  0.95789935  1  -0.082447  0  -0.08628  -0.126476  0  4.009568  0
C  C22  1  0.48310887  0.83221134  0.49540470  1  1.525084  0  0.222001  0.66426  0  4.15631  0
C  C23  1  0.61340199  0.66504113  0.04064172  1  -0.046985  0  -0.004168  0.081264  0  4.027264  0
C  C24  1  0.56487616  0.54616223  0.08460284  1  -0.023165  0  9.6e-05  0.032314  0  3.946769  0
C  C25  1  0.63845334  0.75268984  0.07984990  1  0.053597  0  -0.088942  -0.135731  0  4.004463  0
C  C26  1  0.61496768  0.72611889  0.16001445  1  -0.066366  0  -0.084308  -0.096022  0  3.998464  0
C  C27  1  0.55156387  0.51712320  0.16711360  1  0.002434  0  -0.07639  -0.133049  0  3.932445  0
C  C28  1  0.47359529  0.96802149  0.49479871  1  0.001024  0  -0.108019  -0.319516  0  3.893367  0
C  C29  1  0.53302259  0.01461235  0.54062898  1  -0.018175  0  0.022538  0.134129  0  3.868657  0
C  C30  1  0.40568955  0.25812053  0.84469151  1  0.015273  0  -0.080841  -0.09712  0  4.004597  0
C  C31  1  0.04509298  0.52584534  0.45013507  1  0.071819  0  -0.08412  -0.198313  0  3.89454  0
C  C32  1  0.96376163  0.46187471  0.50616785  1  -0.166197  0  -0.06622  -0.146184  0  3.876817  0
C  C33  1  0.82732324  0.46762975  0.50064990  1  1.587887  0  0.228992  0.649109  0  4.161723  0
C  C34  1  0.17579964  0.52654280  0.46722209  1  1.561553  0  0.224266  0.648037  0  4.164472  0
C  C35  1  0.55134411  0.57391432  0.29111844  1  1.527378  0  0.225544  0.604637  0  4.156778  0
C  C36  1  0.44496380  0.41541730  0.71243514  1  1.545148  0  0.229333  0.602932  0  4.174792  0
C  C37  1  0.43904011  0.38059843  0.80001375  1  0.058725  0  -0.001257  -0.051572  0  3.925421  0
C  C38  1  0.57353528  0.60580255  0.20415844  1  -0.050178  0  -0.017392  -0.027257  0  3.992401  0
C  C39  1  0.40889715  0.22084646  0.92495818  1  -0.0779  0  -0.075938  -0.114123  0  3.975137  0
C  C40  1  0.61645548  0.94141758  0.60351478  1  -0.102537  0  -0.23437  -0.408034  0  3.931756  0
C  C41  1  0.47384280  0.46608224  0.83707240  1  0.034193  0  0.017901  0.007485  0  3.986786  0
C  C42  1  0.47667793  0.59843289  0.79202430  1  0.863249  0  0.180145  0.243984  0  4.055032  0
C  C43  1  0.48872732  0.42541781  0.91931235  1  0.044003  0  0.013132  0.007632  0  3.878108  0
C  C44  1  0.45027620  0.30152850  0.96332142  1  0.000519  0  -0.001778  0.081015  0  4.028067  0
C  C45  1  0.53802934  0.50195163  0.96011658  1  0.01592  0  -0.001797  0.03349  0  3.949524  0
C  C46  1  0.52879261  0.46268143  0.04346982  1  -0.041869  0  0.001743  0.037559  0  3.94666  0
C  C47  1  0.48467688  0.34101957  0.08496851  1  -0.002679  0  -0.083745  -0.114069  0  4.011234  0
C  C48  1  0.45087286  0.26186484  0.04642067  1  -0.032662  0  -0.089688  -0.138233  0  4.023641  0
N  N49  1  0.46784708  0.70806060  0.75721332  1  -1.138432  0  -0.30557  -0.360761  0  2.728711  0
O  O50  1  0.49422234  0.49712999  0.49992220  1  -1.236029  0  -0.575245  -1.037743  0  2.552051  0
O  O51  1  0.57666912  0.45584789  0.33023949  1  -1.166981  0  -0.319949  -0.549747  0  2.298495  0
O  O52  1  0.37249728  0.36417768  0.68220157  1  -1.164492  0  -0.308904  -0.534599  0  2.292847  0
O  O53  1  0.50879436  0.66653245  0.31994163  1  -1.172103  0  -0.314958  -0.54836  0  2.292004  0
O  O54  1  0.52721330  0.49015226  0.67592119  1  -1.1649  0  -0.302521  -0.534141  0  2.396338  0
O  O55  1  0.76029904  0.49597899  0.55808994  1  -1.165561  0  -0.315073  -0.545404  0  2.291908  0
O  O56  1  0.21029696  0.44897884  0.53164573  1  -1.183746  0  -0.318636  -0.557368  0  2.329583  0
O  O57  1  0.60687347  0.21756586  0.48535688  1  -1.165579  0  -0.312391  -0.540683  0  2.303988  0
O  O58  1  0.41283641  0.80638537  0.45071968  1  -1.160869  0  -0.325566  -0.561989  0  2.283235  0
O  O59  1  0.41862823  0.20581517  0.55946502  1  -1.16873  0  -0.308222  -0.536241  0  2.299079  0
O  O60  1  0.56028366  0.75102310  0.53891669  1  -1.160706  0  -0.311577  -0.545138  0  2.343336  0
O  O61  1  0.78878842  0.44424392  0.44259135  1  -1.155964  0  -0.311202  -0.539468  0  2.261513  0
O  O62  1  0.24163428  0.60649091  0.41588865  1  -1.154476  0  -0.315868  -0.545674  0  2.267348  0
