# generated using pymatgen
data_Ag2H8C13(O2F3)2
_symmetry_space_group_name_H-M   'P 1'
_cell_length_a   9.43151382
_cell_length_b   11.11954836
_cell_length_c   18.07472787
_cell_angle_alpha   83.61484571
_cell_angle_beta   74.79750617
_cell_angle_gamma   64.90655508
_symmetry_Int_Tables_number   1
_chemical_formula_structural   Ag2H8C13(O2F3)2
_chemical_formula_sum   'Ag8 H32 C52 O16 F24'
_cell_volume   1656.58850506
_cell_formula_units_Z   4
loop_
 _symmetry_equiv_pos_site_id
 _symmetry_equiv_pos_as_xyz
  1  'x, y, z'
loop_
 _atom_site_type_symbol
 _atom_site_label
 _atom_site_symmetry_multiplicity
 _atom_site_fract_x
 _atom_site_fract_y
 _atom_site_fract_z
 _atom_site_occupancy
 _atom_site_hle17_bader_spin_density
 _atom_site_hle17_ddec_charge
 _atom_site_hle17_ddec_spin_density
 _atom_site_hle17_ddec_sum_bond_order
 _atom_site_hle17_magmom
 _atom_site_hse06_10hf_bader_spin_density
 _atom_site_hse06_10hf_ddec_charge
 _atom_site_hse06_10hf_ddec_spin_density
 _atom_site_hse06_10hf_ddec_sum_bond_order
 _atom_site_hse06_10hf_magmom
 _atom_site_hse06_bader_spin_density
 _atom_site_hse06_ddec_charge
 _atom_site_hse06_ddec_spin_density
 _atom_site_hse06_ddec_sum_bond_order
 _atom_site_hse06_magmom
 _atom_site_pbe_bader_charge
 _atom_site_pbe_bader_spin_density
 _atom_site_pbe_cm5_charge
 _atom_site_pbe_ddec_charge
 _atom_site_pbe_ddec_spin_density
 _atom_site_pbe_ddec_sum_bond_order
 _atom_site_pbe_magmom
Ag  Ag0  1  0.43822572  0.52265948  0.21117567  1  0  0.564251  0  1.514182  0  0  0.471919  0  1.956458  0  0  0.494192  0  1.905811  0  0.634264  0  0.449243  0.456337  0  1.991413  0
Ag  Ag1  1  0.03922181  0.52266841  0.78895980  1  0  0.565188  0  1.511646  0  0  0.472623  0  1.954055  0  0  0.494944  0  1.903445  0  0.632765  0  0.449661  0.457151  0  1.98903  0
Ag  Ag2  1  0.39906635  0.02252520  0.28892773  1  0  0.564295  0  1.511495  0  0  0.471716  0  1.953476  0  0  0.494073  0  1.902811  0  0.632901  0  0.448646  0.456078  0  1.988445  0
Ag  Ag3  1  0.57854706  0.02272480  0.71095761  1  0  0.56463  0  1.511054  0  0  0.472299  0  1.952942  0  0  0.49466  0  1.902285  0  0.630972  0  0.448999  0.456775  0  1.987985  0
Ag  Ag4  1  0.58242075  0.74612696  0.26708833  1  0  0.624475  0  1.324766  0  0  0.500581  0  1.771407  0  0  0.535197  0  1.714083  0  0.643226  0  0.425993  0.475679  0  1.811701  0
Ag  Ag5  1  0.67150209  0.74625903  0.73275614  1  0  0.624235  0  1.32521  0  0  0.500417  0  1.771854  0  0  0.535025  0  1.714545  0  0.642339  0  0.42598  0.475682  0  1.81186  0
Ag  Ag6  1  0.59986062  0.24615753  0.23299045  1  0  0.624346  0  1.324046  0  0  0.50037  0  1.770312  0  0  0.534953  0  1.713101  0  0.642529  0  0.425955  0.475505  0  1.810505  0
Ag  Ag7  1  0.15432213  0.24612575  0.76710875  1  0  0.625484  0  1.324268  0  0  0.500745  0  1.771956  0  0  0.53534  0  1.714628  0  0.643498  0  0.426243  0.475998  0  1.811999  0
H  H8  1  0.67097230  0.27071350  0.07836602  1  0  0.104045  0  0.960661  0  0  0.114728  0  1.018791  0  0  0.117779  0  1.017065  0  0.064861  0  0.097432  0.112399  0  1.020333  0
H  H9  1  0.05762474  0.27083465  0.92143370  1  0  0.104661  0  0.960709  0  0  0.115617  0  1.018479  0  0  0.118679  0  1.016731  0  0.100673  0  0.097574  0.113274  0  1.020032  0
H  H10  1  0.49984812  0.77074251  0.42152086  1  0  0.104567  0  0.961344  0  0  0.115268  0  1.019441  0  0  0.118327  0  1.01771  0  0.101772  0  0.097445  0.112884  0  1.021062  0
H  H11  1  0.72948798  0.77079912  0.57842916  1  0  0.104422  0  0.960712  0  0  0.115395  0  1.018496  0  0  0.118439  0  1.016788  0  0.078038  0  0.097583  0.113052  0  1.02005  0
H  H12  1  0.92972548  0.26332228  0.08810209  1  0  0.102248  0  0.939514  0  0  0.110782  0  1.002006  0  0  0.114256  0  0.999737  0  0.095385  0  0.099184  0.108197  0  1.003826  0
H  H13  1  0.80604968  0.26378206  0.91174892  1  0  0.103509  0  0.936996  0  0  0.111643  0  1.000196  0  0  0.115112  0  0.997914  0  0.06433  0  0.099572  0.109127  0  1.001939  0
H  H14  1  0.76833401  0.76338009  0.41174344  1  0  0.102865  0  0.93939  0  0  0.111351  0  1.001834  0  0  0.114827  0  0.999572  0  0.078684  0  0.099484  0.108766  0  1.003622  0
H  H15  1  0.46838057  0.76337215  0.58814703  1  0  0.102672  0  0.939405  0  0  0.111334  0  1.001565  0  0  0.114804  0  0.999294  0  0.099233  0  0.09928  0.108813  0  1.00331  0
H  H16  1  0.73274765  0.68985617  0.09047296  1  0  0.10642  0  0.943773  0  0  0.118112  0  1.000342  0  0  0.121276  0  0.998768  0  0.094599  0  0.102907  0.115653  0  1.001899  0
H  H17  1  0.57698693  0.69031893  0.90956308  1  0  0.105823  0  0.944416  0  0  0.117878  0  1.000626  0  0  0.121089  0  0.998978  0  0.094398  0  0.102666  0.115461  0  1.002057  0
H  H18  1  0.57364517  0.18988475  0.40938420  1  0  0.106282  0  0.944363  0  0  0.117943  0  1.001073  0  0  0.121101  0  0.999511  0  0.091222  0  0.102739  0.115488  0  1.002627  0
H  H19  1  0.23640725  0.18988674  0.59056539  1  0  0.106168  0  0.945258  0  0  0.1179  0  1.001705  0  0  0.121088  0  1.00011  0  0.104043  0  0.102481  0.115481  0  1.003142  0
H  H20  1  0.47141935  0.69968630  0.08105387  1  0  0.10404  0  0.934664  0  0  0.116115  0  0.989296  0  0  0.11864  0  0.988536  0  0.064623  0  0.102668  0.114178  0  0.990048  0
H  H21  1  0.82861754  0.69982533  0.91903904  1  0  0.103914  0  0.935765  0  0  0.116349  0  0.989911  0  0  0.118872  0  0.989152  0  0.060934  0  0.102638  0.114471  0  0.990626  0
H  H22  1  0.30283165  0.19968708  0.41894297  1  0  0.104299  0  0.935553  0  0  0.116671  0  0.989765  0  0  0.119205  0  0.989012  0  0.082076  0  0.102583  0.114728  0  0.990504  0
H  H23  1  0.49740169  0.19977844  0.58097321  1  0  0.103525  0  0.936166  0  0  0.115903  0  0.990305  0  0  0.118411  0  0.98958  0  0.056245  0  0.102455  0.114037  0  0.990992  0
H  H24  1  0.38414619  0.41589840  0.05447340  1  0  0.084301  0  0.925463  0  0  0.104979  0  0.979279  0  0  0.105919  0  0.979722  0  0.035365  0  0.096103  0.104182  0  0.97911  0
H  H25  1  0.19948978  0.41580902  0.94555366  1  0  0.084389  0  0.925379  0  0  0.104776  0  0.979537  0  0  0.105757  0  0.979917  0  0.039797  0  0.095889  0.103962  0  0.979386  0
H  H26  1  0.18880509  0.91590159  0.44570694  1  0  0.083923  0  0.924794  0  0  0.104011  0  0.979528  0  0  0.104994  0  0.979929  0  0.051434  0  0.095695  0.103213  0  0.979356  0
H  H27  1  0.89525027  0.91605750  0.55417022  1  0  0.084727  0  0.924401  0  0  0.104853  0  0.979118  0  0  0.105785  0  0.979566  0  0.041937  0  0.096101  0.104067  0  0.978932  0
H  H28  1  0.32642661  0.58912286  0.04330741  1  0  0.091058  0  0.928803  0  0  0.105992  0  0.990104  0  0  0.107755  0  0.989405  0  0.07079  0  0.09326  0.104594  0  0.990758  0
H  H29  1  0.08395311  0.58898582  0.95692797  1  0  0.090543  0  0.929603  0  0  0.1054  0  0.99084  0  0  0.107142  0  0.990171  0  0.063275  0  0.093048  0.103985  0  0.991501  0
H  H30  1  0.11997329  0.08907895  0.45701031  1  0  0.090979  0  0.928642  0  0  0.105734  0  0.989947  0  0  0.107552  0  0.989189  0  0.063152  0  0.093375  0.104303  0  0.99065  0
H  H31  1  0.79087173  0.08920209  0.54284685  1  0  0.090738  0  0.928882  0  0  0.105432  0  0.990476  0  0  0.107208  0  0.989786  0  0.071126  0  0.093139  0.103997  0  0.99116  0
H  H32  1  0.03072569  0.54780333  0.08660349  1  0  0.097693  0  0.922445  0  0  0.113056  0  0.98189  0  0  0.114956  0  0.981045  0  0.069894  0  0.097282  0.111587  0  0.982623  0
H  H33  1  0.42060559  0.54826410  0.91353076  1  0  0.097732  0  0.922875  0  0  0.113234  0  0.981952  0  0  0.115132  0  0.981119  0  0.06136  0  0.097626  0.111735  0  0.982696  0
H  H34  1  0.86775386  0.04798980  0.41317419  1  0  0.097529  0  0.921919  0  0  0.113049  0  0.981326  0  0  0.114978  0  0.980447  0  0.079159  0  0.097455  0.111544  0  0.982095  0
H  H35  1  0.08432912  0.04789149  0.58670305  1  0  0.097396  0  0.922109  0  0  0.112935  0  0.981521  0  0  0.114881  0  0.980653  0  0.073045  0  0.097239  0.111402  0  0.98231  0
H  H36  1  0.10780499  0.37430677  0.07251030  1  0  0.082514  0  0.928406  0  0  0.097401  0  0.988857  0  0  0.09925  0  0.987764  0  0.036191  0  0.092216  0.095936  0  0.989787  0
H  H37  1  0.51726912  0.37473676  0.92750718  1  0  0.082079  0  0.928492  0  0  0.096299  0  0.989509  0  0  0.098094  0  0.988459  0  0.02077  0  0.092255  0.094905  0  0.990365  0
H  H38  1  0.93081009  0.87446885  0.42729497  1  0  0.081308  0  0.929117  0  0  0.096022  0  0.989803  0  0  0.097859  0  0.988691  0  0.048157  0  0.092078  0.094608  0  0.990666  0
H  H39  1  0.19488278  0.87438742  0.57259380  1  0  0.081613  0  0.929283  0  0  0.096392  0  0.98993  0  0  0.098252  0  0.988835  0  0.036058  0  0.091905  0.094943  0  0.990822  0
C  C40  1  0.55048626  0.48619990  0.07654442  1  0  0.053234  0  3.788044  0  0  0.080986  0  4.028132  0  0  0.080581  0  4.052113  0  -0.049056  0  -0.046333  0.08118  0  4.011744  0
C  C41  1  0.96276607  0.48627835  0.92352246  1  0  0.054382  0  3.788603  0  0  0.082009  0  4.028847  0  0  0.081614  0  4.052842  0  -0.038061  0  -0.045885  0.082212  0  4.012418  0
C  C42  1  0.37742738  0.98616536  0.42349386  1  0  0.055066  0  3.78992  0  0  0.083147  0  4.029478  0  0  0.082735  0  4.053509  0  -0.059709  0  -0.045363  0.083351  0  4.013056  0
C  C43  1  0.63638826  0.98625969  0.57642961  1  0  0.054925  0  3.787908  0  0  0.082833  0  4.028292  0  0  0.082439  0  4.052262  0  -0.041214  0  -0.045453  0.083029  0  4.011887  0
C  C44  1  0.67986675  0.36328598  0.08576378  1  0  -0.174587  0  3.806573  0  0  -0.180622  0  4.055699  0  0  -0.185618  0  4.077417  0  -0.088769  0  -0.110253  -0.177155  0  4.041218  0
C  C45  1  0.95614120  0.36348756  0.91415604  1  0  -0.177095  0  3.806561  0  0  -0.183442  0  4.056145  0  0  -0.188479  0  4.077822  0  -0.129638  0  -0.111235  -0.179973  0  4.041586  0
C  C46  1  0.51612070  0.86333485  0.41416103  1  0  -0.176664  0  3.8084  0  0  -0.182756  0  4.057366  0  0  -0.187793  0  4.079132  0  -0.078917  0  -0.110814  -0.17921  0  4.042831  0
C  C47  1  0.62058924  0.86337954  0.58577501  1  0  -0.177039  0  3.807401  0  0  -0.183413  0  4.056934  0  0  -0.188458  0  4.078651  0  -0.092012  0  -0.111425  -0.179933  0  4.042342  0
C  C48  1  0.82843476  0.35952830  0.08829333  1  0  -0.084793  0  3.700652  0  0  -0.111982  0  3.95585  0  0  -0.113613  0  3.977317  0  -0.074111  0  -0.088784  -0.110956  0  3.94157  0
C  C49  1  0.81120009  0.35994240  0.91166748  1  0  -0.084474  0  3.697074  0  0  -0.111774  0  3.95321  0  0  -0.113454  0  3.974858  0  -0.012703  0  -0.088852  -0.110698  0  3.938722  0
C  C50  1  0.66722046  0.85959307  0.41159921  1  0  -0.084302  0  3.70001  0  0  -0.111434  0  3.955377  0  0  -0.113036  0  3.976823  0  -0.081192  0  -0.088637  -0.110408  0  3.941091  0
C  C51  1  0.47325455  0.85960399  0.58828212  1  0  -0.084755  0  3.699274  0  0  -0.111735  0  3.954658  0  0  -0.113334  0  3.976111  0  -0.062551  0  -0.088283  -0.110701  0  3.940272  0
C  C52  1  0.85409070  0.47628635  0.08230163  1  0  0.118096  0  3.683089  0  0  0.138147  0  3.919859  0  0  0.138933  0  3.944218  0  0.017358  0  -0.006085  0.137471  0  3.903564  0
C  C53  1  0.66886777  0.47676301  0.91777356  1  0  0.118093  0  3.682398  0  0  0.137304  0  3.919767  0  0  0.13805  0  3.944111  0  0.057569  0  -0.005912  0.1366  0  3.903462  0
C  C54  1  0.68684252  0.97633820  0.41760650  1  0  0.118258  0  3.68207  0  0  0.137921  0  3.919532  0  0  0.138656  0  3.943926  0  0.006829  0  -0.00609  0.13727  0  3.903206  0
C  C55  1  0.33687245  0.97636203  0.58227344  1  0  0.119812  0  3.680828  0  0  0.138807  0  3.91896  0  0  0.139586  0  3.943315  0  0.038576  0  -0.005592  0.138075  0  3.902636  0
C  C56  1  0.71856739  0.59766403  0.08954549  1  0  -0.095714  0  3.69542  0  0  -0.117045  0  3.945963  0  0  -0.118759  0  3.965638  0  -0.00703  0  -0.090048  -0.116052  0  3.933205  0
C  C57  1  0.68322902  0.59805429  0.91052531  1  0  -0.09356  0  3.692231  0  0  -0.115163  0  3.943319  0  0  -0.116847  0  3.962954  0  -0.076311  0  -0.089356  -0.114063  0  3.930334  0
C  C58  1  0.55851957  0.09768864  0.41038016  1  0  -0.095923  0  3.695839  0  0  -0.117275  0  3.946888  0  0  -0.118992  0  3.9666  0  -0.037207  0  -0.090016  -0.116285  0  3.934122  0
C  C59  1  0.34376840  0.09772141  0.58954862  1  0  -0.09463  0  3.692742  0  0  -0.115897  0  3.943737  0  0  -0.117581  0  3.963326  0  -0.116853  0  -0.089489  -0.114783  0  3.930755  0
C  C60  1  0.56862939  0.60328366  0.08690927  1  0  -0.14472  0  3.769249  0  0  -0.156769  0  4.026648  0  0  -0.159476  0  4.046144  0  -0.118929  0  -0.113497  -0.15488  0  4.013522  0
C  C61  1  0.82762850  0.60348624  0.91320501  1  0  -0.146599  0  3.767427  0  0  -0.159027  0  4.025196  0  0  -0.161719  0  4.044632  0  -0.099924  0  -0.114372  -0.157271  0  4.012171  0
C  C62  1  0.40591841  0.10327550  0.41313874  1  0  -0.146878  0  3.771353  0  0  -0.159229  0  4.028732  0  0  -0.161942  0  4.048216  0  -0.0943  0  -0.114256  -0.157331  0  4.015611  0
C  C63  1  0.49076616  0.10335494  0.58679750  1  0  -0.145852  0  3.768476  0  0  -0.158149  0  4.026116  0  0  -0.160856  0  4.045616  0  -0.063197  0  -0.11374  -0.156369  0  4.013025  0
C  C64  1  0.43006977  0.49229222  0.03346277  1  0  -0.141017  0  3.599926  0  0  -0.189067  0  3.860306  0  0  -0.190571  0  3.873566  0  -0.028848  0  -0.155291  -0.18776  0  3.85097  0
C  C65  1  0.07715438  0.49212936  0.96664213  1  0  -0.140083  0  3.602445  0  0  -0.187385  0  3.862567  0  0  -0.188921  0  3.875954  0  -0.031771  0  -0.154514  -0.186032  0  3.853144  0
C  C66  1  0.21380998  0.99218618  0.46671429  1  0  -0.14036  0  3.600081  0  0  -0.187424  0  3.860142  0  0  -0.189046  0  3.873556  0  -0.04799  0  -0.154921  -0.18608  0  3.850749  0
C  C67  1  0.79394869  0.99229541  0.53315663  1  0  -0.141492  0  3.600682  0  0  -0.188878  0  3.861751  0  0  -0.190455  0  3.87509  0  -0.037556  0  -0.155296  -0.18754  0  3.852414  0
C  C68  1  0.02219314  0.47107188  0.05681449  1  0  -0.148374  0  3.599643  0  0  -0.194473  0  3.858271  0  0  -0.195831  0  3.870312  0  -0.020532  0  -0.153535  -0.193287  0  3.849903  0
C  C69  1  0.50596952  0.47152073  0.94326089  1  0  -0.147484  0  3.598667  0  0  -0.192276  0  3.856569  0  0  -0.193549  0  3.868528  0  -0.010782  0  -0.153573  -0.191151  0  3.848257  0
C  C70  1  0.82939883  0.97122105  0.44300817  1  0  -0.145485  0  3.598294  0  0  -0.191163  0  3.85707  0  0  -0.192443  0  3.869028  0  -0.039203  0  -0.152863  -0.19001  0  3.848704  0
C  C71  1  0.19947637  0.97115650  0.55688057  1  0  -0.148178  0  3.598653  0  0  -0.193888  0  3.857324  0  0  -0.195316  0  3.869453  0  -0.02032  0  -0.153668  -0.192652  0  3.848902  0
C  C72  1  0.69168991  0.41529264  0.31994565  1  0  0.564106  0  3.960114  0  0  0.506332  0  4.256179  0  0  0.539267  0  4.253015  0  1.648554  0  0.196461  0.483894  0  4.25758  0
C  C73  1  0.89344201  0.41534527  0.68011041  1  0  0.560974  0  3.962008  0  0  0.503307  0  4.257106  0  0  0.536358  0  4.254006  0  1.661041  0  0.195469  0.480798  0  4.258584  0
C  C74  1  0.76153653  0.91538720  0.18004211  1  0  0.559235  0  3.96526  0  0  0.502066  0  4.261541  0  0  0.534981  0  4.258442  0  1.658217  0  0.195198  0.479592  0  4.262932  0
C  C75  1  0.32335999  0.91519455  0.81986923  1  0  0.561797  0  3.962681  0  0  0.503547  0  4.258958  0  0  0.536525  0  4.255976  0  1.659765  0  0.195428  0.48104  0  4.260403  0
C  C76  1  0.77183767  0.43311876  0.38083151  1  0  0.317787  0  3.6262  0  0  0.280235  0  3.923976  0  0  0.293318  0  3.912833  0  1.128127  0  0.191258  0.270594  0  3.932452  0
C  C77  1  0.79541085  0.43288738  0.61929319  1  0  0.314205  0  3.630171  0  0  0.278679  0  3.925123  0  0  0.291204  0  3.914845  0  1.11523  0  0.191389  0.269271  0  3.933211  0
C  C78  1  0.90304586  0.93296803  0.11914514  1  0  0.316837  0  3.628663  0  0  0.276171  0  3.931081  0  0  0.28929  0  3.919917  0  1.129367  0  0.190869  0.266651  0  3.939376  0
C  C79  1  0.16424097  0.93297896  0.88074817  1  0  0.314661  0  3.628619  0  0  0.278191  0  3.925747  0  0  0.290747  0  3.915478  0  1.116074  0  0.190801  0.268915  0  3.933508  0
C  C80  1  0.92984976  0.45534307  0.34745947  1  0  0.335424  0  3.662551  0  0  0.280096  0  3.974317  0  0  0.296135  0  3.964098  0  1.152163  0  0.188813  0.268502  0  3.982421  0
C  C81  1  0.61522896  0.45512261  0.65271178  1  0  0.339035  0  3.661069  0  0  0.282499  0  3.974115  0  0  0.298613  0  3.964041  0  1.153622  0  0.189421  0.27088  0  3.981995  0
C  C82  1  0.02740984  0.95531448  0.15252539  1  0  0.334604  0  3.663981  0  0  0.280804  0  3.974032  0  0  0.296792  0  3.964026  0  1.153487  0  0.189153  0.269241  0  3.982006  0
C  C83  1  0.01752886  0.95541081  0.84734245  1  0  0.342528  0  3.653366  0  0  0.283753  0  3.968946  0  0  0.300127  0  3.95826  0  1.157954  0  0.190177  0.272091  0  3.976918  0
C  C84  1  0.06296685  0.34878655  0.28933411  1  0  0.329464  0  3.611996  0  0  0.284514  0  3.914877  0  0  0.297855  0  3.90406  0  1.116194  0  0.195187  0.274779  0  3.922902  0
C  C85  1  0.58850250  0.34866540  0.71084919  1  0  0.327339  0  3.61227  0  0  0.281778  0  3.916202  0  0  0.29512  0  3.905354  0  1.114859  0  0.194385  0.272083  0  3.924204  0
C  C86  1  0.10223319  0.84885330  0.21065901  1  0  0.330053  0  3.610865  0  0  0.285264  0  3.912661  0  0  0.298489  0  3.902077  0  1.113155  0  0.195621  0.275459  0  3.920723  0
C  C87  1  0.04906925  0.84891686  0.78925891  1  0  0.331644  0  3.606946  0  0  0.284538  0  3.913566  0  0  0.297882  0  3.902702  0  1.110629  0  0.195493  0.274799  0  3.921616  0
C  C88  1  0.22753637  0.36080238  0.26359452  1  0  0.556472  0  3.966518  0  0  0.501127  0  4.262544  0  0  0.533202  0  4.26002  0  1.644791  0  0.194238  0.479244  0  4.263672  0
C  C89  1  0.41175114  0.36092849  0.73654113  1  0  0.555427  0  3.966644  0  0  0.500876  0  4.261399  0  0  0.532997  0  4.258787  0  1.659423  0  0.194209  0.479  0  4.262532  0
C  C90  1  0.24080511  0.86106078  0.23643669  1  0  0.557282  0  3.963991  0  0  0.5022  0  4.259517  0  0  0.534314  0  4.256956  0  1.647682  0  0.194202  0.480344  0  4.260644  0
C  C91  1  0.89809199  0.86107568  0.76366593  1  0  0.556878  0  3.963125  0  0  0.502035  0  4.258871  0  0  0.534048  0  4.256462  0  1.660611  0  0.194814  0.480219  0  4.259899  0
O  O92  1  0.61149942  0.52027816  0.28816453  1  0  -0.594381  0  2.192384  0  0  -0.527294  0  2.47896  0  0  -0.558101  0  2.466832  0  -1.13218  0  -0.321492  -0.505416  0  2.486308  0
O  O93  1  0.86836005  0.52038143  0.71192152  1  0  -0.592393  0  2.193179  0  0  -0.525271  0  2.47926  0  0  -0.556097  0  2.467149  0  -1.135669  0  -0.321127  -0.503737  0  2.486907  0
O  O94  1  0.64955277  0.02044477  0.21179151  1  0  -0.591861  0  2.194903  0  0  -0.524744  0  2.480767  0  0  -0.555515  0  2.468682  0  -1.138656  0  -0.320538  -0.502884  0  2.488121  0
O  O95  1  0.33027536  0.02012700  0.78792507  1  0  -0.592283  0  2.193775  0  0  -0.525344  0  2.480856  0  0  -0.556179  0  2.468849  0  -1.133935  0  -0.320576  -0.503782  0  2.488421  0
O  O96  1  0.71422645  0.29772924  0.31040792  1  0  -0.55542  0  2.124201  0  0  -0.497608  0  2.394887  0  0  -0.527531  0  2.383992  0  -1.102155  0  -0.308535  -0.476522  0  2.40166  0
O  O97  1  0.98880171  0.29785833  0.68956360  1  0  -0.554959  0  2.123964  0  0  -0.497742  0  2.395866  0  0  -0.527684  0  2.384874  0  -1.111794  0  -0.30921  -0.476624  0  2.402425  0
O  O98  1  0.77428360  0.79788040  0.18961469  1  0  -0.553576  0  2.124982  0  0  -0.495585  0  2.395221  0  0  -0.525536  0  2.384424  0  -1.104428  0  -0.308727  -0.474491  0  2.401999  0
O  O99  1  0.42817992  0.79767484  0.81048000  1  0  -0.555122  0  2.122965  0  0  -0.497422  0  2.394186  0  0  -0.527355  0  2.383249  0  -1.109379  0  -0.309319  -0.476339  0  2.400784  0
O  O100  1  0.22158607  0.47493183  0.26659434  1  0  -0.541281  0  2.08969  0  0  -0.492729  0  2.347597  0  0  -0.518603  0  2.33525  0  -1.094211  0  -0.311864  -0.474649  0  2.355358  0
O  O101  1  0.30368299  0.47509569  0.73349822  1  0  -0.540379  0  2.089134  0  0  -0.49219  0  2.346849  0  0  -0.518083  0  2.334459  0  -1.112545  0  -0.311527  -0.474172  0  2.354723  0
O  O102  1  0.23780171  0.97521507  0.23343035  1  0  -0.541503  0  2.088548  0  0  -0.493166  0  2.3463  0  0  -0.51905  0  2.333927  0  -1.097265  0  -0.311582  -0.475082  0  2.35405  0
O  O103  1  0.78693838  0.97521110  0.76667351  1  0  -0.540371  0  2.088174  0  0  -0.492531  0  2.346286  0  0  -0.518406  0  2.333983  0  -1.114857  0  -0.311463  -0.474518  0  2.354115  0
O  O104  1  0.34848541  0.25343753  0.24055604  1  0  -0.586052  0  2.162301  0  0  -0.517744  0  2.438461  0  0  -0.548518  0  2.426149  0  -1.130837  0  -0.322714  -0.496182  0  2.446113  0
O  O105  1  0.39807971  0.25360237  0.75961449  1  0  -0.586055  0  2.162739  0  0  -0.518067  0  2.438817  0  0  -0.548842  0  2.426453  0  -1.123367  0  -0.322942  -0.496544  0  2.446624  0
O  O106  1  0.33854649  0.75374161  0.25955023  1  0  -0.586842  0  2.161968  0  0  -0.519048  0  2.438602  0  0  -0.549796  0  2.426189  0  -1.127782  0  -0.322956  -0.497501  0  2.446296  0
O  O107  1  0.90759289  0.75369593  0.74066501  1  0  -0.586343  0  2.161993  0  0  -0.518451  0  2.43838  0  0  -0.549201  0  2.42607  0  -1.119781  0  -0.322997  -0.496939  0  2.446158  0
F  F108  1  0.80394627  0.32663871  0.42941309  1  0  -0.193465  0  1.22645  0  0  -0.163166  0  1.398405  0  0  -0.171132  0  1.384695  0  -0.613912  0  -0.105947  -0.157296  0  1.407858  0
F  F109  1  0.86980735  0.32623256  0.57083319  1  0  -0.192275  0  1.227066  0  0  -0.162399  0  1.398335  0  0  -0.170239  0  1.384835  0  -0.610221  0  -0.105775  -0.156664  0  1.407748  0
F  F110  1  0.98397320  0.82628938  0.07072105  1  0  -0.192832  0  1.227534  0  0  -0.161814  0  1.400691  0  0  -0.169789  0  1.386976  0  -0.612763  0  -0.105652  -0.155981  0  1.410113  0
F  F111  1  0.18974565  0.82642642  0.92926136  1  0  -0.192073  0  1.227412  0  0  -0.162292  0  1.399263  0  0  -0.170163  0  1.385779  0  -0.610533  0  -0.105743  -0.156589  0  1.408623  0
F  F112  1  0.66464922  0.54361368  0.42520097  1  0  -0.206349  0  1.186075  0  0  -0.169706  0  1.352559  0  0  -0.177952  0  1.338526  0  -0.613379  0  -0.107627  -0.163623  0  1.362327  0
F  F113  1  0.79210759  0.54324923  0.57477410  1  0  -0.205004  0  1.186096  0  0  -0.168909  0  1.35189  0  0  -0.177008  0  1.338054  0  -0.614029  0  -0.107407  -0.162926  0  1.361603  0
F  F114  1  0.84064379  0.04330165  0.07463821  1  0  -0.205058  0  1.186056  0  0  -0.167778  0  1.353643  0  0  -0.176021  0  1.339611  0  -0.615193  0  -0.106997  -0.161739  0  1.363374  0
F  F115  1  0.11647700  0.04337811  0.92518079  1  0  -0.205299  0  1.186098  0  0  -0.169451  0  1.352698  0  0  -0.177575  0  1.338863  0  -0.611628  0  -0.107627  -0.163504  0  1.362359  0
F  F116  1  0.99237452  0.45727751  0.40772334  1  0  -0.190765  0  1.168312  0  0  -0.158335  0  1.329461  0  0  -0.166321  0  1.31576  0  -0.60645  0  -0.105647  -0.15248  0  1.339062  0
F  F117  1  0.55077510  0.45700145  0.59245720  1  0  -0.190811  0  1.16713  0  0  -0.158173  0  1.328757  0  0  -0.16613  0  1.315028  0  -0.60132  0  -0.105502  -0.152285  0  1.338268  0
F  F118  1  0.15049577  0.95735916  0.09226150  1  0  -0.190842  0  1.166604  0  0  -0.158641  0  1.327109  0  0  -0.1666  0  1.313429  0  -0.606513  0  -0.106172  -0.152802  0  1.336695  0
F  F119  1  0.89239446  0.95755380  0.90762229  1  0  -0.191064  0  1.163418  0  0  -0.159246  0  1.32601  0  0  -0.167271  0  1.312157  0  -0.606115  0  -0.106312  -0.153357  0  1.335558  0
F  F120  1  0.88767203  0.57753802  0.31302004  1  0  -0.179819  0  1.23707  0  0  -0.14589  0  1.424134  0  0  -0.154821  0  1.4097  0  -0.610215  0  -0.088784  -0.139342  0  1.434175  0
F  F121  1  0.53523694  0.57733047  0.68712730  1  0  -0.180488  0  1.23674  0  0  -0.146364  0  1.424314  0  0  -0.155262  0  1.409842  0  -0.610585  0  -0.088817  -0.139769  0  1.434252  0
F  F122  1  0.95045088  0.07750007  0.18697046  1  0  -0.179568  0  1.23892  0  0  -0.145788  0  1.425642  0  0  -0.154709  0  1.411217  0  -0.61064  0  -0.089029  -0.139247  0  1.435676  0
F  F123  1  0.97235302  0.07756164  0.81285682  1  0  -0.189399  0  1.244154  0  0  -0.146503  0  1.424058  0  0  -0.155476  0  1.409465  0  -0.611823  0  -0.088743  -0.139906  0  1.434035  0
F  F124  1  0.00635897  0.35723934  0.22510090  1  0  -0.194777  0  1.196488  0  0  -0.142314  0  1.348915  0  0  -0.152218  0  1.337797  0  -0.612129  0  -0.088449  -0.135088  0  1.356538  0
F  F125  1  0.63661010  0.35699902  0.77511811  1  0  -0.1948  0  1.195682  0  0  -0.141875  0  1.348267  0  0  -0.151766  0  1.337155  0  -0.610798  0  -0.088238  -0.134674  0  1.355939  0
F  F126  1  0.98105465  0.85723161  0.27488122  1  0  -0.196081  0  1.196509  0  0  -0.143371  0  1.348628  0  0  -0.153259  0  1.337563  0  -0.611742  0  -0.088957  -0.136115  0  1.35626  0
F  F127  1  0.16164191  0.85728523  0.72493091  1  0  -0.196585  0  1.196147  0  0  -0.143353  0  1.349182  0  0  -0.15327  0  1.338084  0  -0.60918  0  -0.089077  -0.136131  0  1.356859  0
F  F128  1  0.08281115  0.22680312  0.32255749  1  0  -0.204429  0  1.243271  0  0  -0.160688  0  1.42054  0  0  -0.16977  0  1.406159  0  -0.613511  0  -0.097295  -0.154077  0  1.430419  0
F  F129  1  0.69046275  0.22664125  0.67764712  1  0  -0.203376  0  1.244391  0  0  -0.159814  0  1.422493  0  0  -0.168886  0  1.408089  0  -0.613031  0  -0.097311  -0.153167  0  1.432345  0
F  F130  1  0.15570444  0.72682915  0.17746318  1  0  -0.203509  0  1.243804  0  0  -0.159962  0  1.421039  0  0  -0.169007  0  1.40672  0  -0.616792  0  -0.096824  -0.153331  0  1.430917  0
F  F131  1  0.11785975  0.72691952  0.82243206  1  0  -0.204957  0  1.242986  0  0  -0.161357  0  1.421494  0  0  -0.170426  0  1.4071  0  -0.616372  0  -0.097737  -0.154713  0  1.43136  0
