# generated using pymatgen
data_ZnH19C26N5O6
_symmetry_space_group_name_H-M   'P 1'
_cell_length_a   9.60729989
_cell_length_b   11.30197556
_cell_length_c   12.77270000
_cell_angle_alpha   66.58748102
_cell_angle_beta   76.09279240
_cell_angle_gamma   84.81773064
_symmetry_Int_Tables_number   1
_chemical_formula_structural   ZnH19C26N5O6
_chemical_formula_sum   'Zn2 H38 C52 N10 O12'
_cell_volume   1235.36550448
_cell_formula_units_Z   2
loop_
 _symmetry_equiv_pos_site_id
 _symmetry_equiv_pos_as_xyz
  1  'x, y, z'
loop_
 _atom_site_type_symbol
 _atom_site_label
 _atom_site_symmetry_multiplicity
 _atom_site_fract_x
 _atom_site_fract_y
 _atom_site_fract_z
 _atom_site_occupancy
 _atom_site_pbe_bader_charge
 _atom_site_pbe_bader_spin_density
 _atom_site_pbe_cm5_charge
 _atom_site_pbe_ddec_charge
 _atom_site_pbe_ddec_spin_density
 _atom_site_pbe_ddec_sum_bond_order
 _atom_site_pbe_magmom
Zn  Zn0  1  0.09511856  0.46182227  0.80082665  1  1.243808  0  0.692274  0.748416  0  2.378127  0
Zn  Zn1  1  0.90488567  0.53818312  0.19917084  1  1.243927  0  0.692276  0.748376  0  2.378257  0
H  H2  1  0.99837001  0.23971477  0.44543608  1  0.537916  0  0.310708  0.281477  0  0.988259  0
H  H3  1  0.00163414  0.76027615  0.55456651  1  0.537997  0  0.310726  0.281506  0  0.988254  0
H  H4  1  0.61873370  0.49588941  0.78767536  1  0.091865  0  0.106753  0.115319  0  1.014023  0
H  H5  1  0.38125662  0.50411887  0.21231972  1  0.0918  0  0.106746  0.115326  0  1.013907  0
H  H6  1  0.95334255  0.18180873  0.26879914  1  0.540591  0  0.306455  0.287577  0  1.011394  0
H  H7  1  0.04665407  0.81818123  0.73120515  1  0.540513  0  0.306432  0.287476  0  1.011478  0
H  H8  1  0.28566785  0.69668326  0.93952722  1  0.066163  0  0.099894  0.106315  0  1.036173  0
H  H9  1  0.71433105  0.30332599  0.06047380  1  0.065944  0  0.099884  0.106278  0  1.036204  0
H  H10  1  0.33929077  0.81261586  0.04711181  1  0.061797  0  0.094124  0.137266  0  0.998514  0
H  H11  1  0.66071657  0.18737313  0.95289871  1  0.061905  0  0.094112  0.137258  0  0.998535  0
H  H12  1  0.48444766  0.92151366  0.95887481  1  0.048078  0  0.088987  0.121749  0  1.015835  0
H  H13  1  0.51555647  0.07847630  0.04114770  1  0.04775  0  0.088917  0.121656  0  1.015918  0
H  H14  1  0.50794515  0.78633946  0.08536450  1  0.05796  0  0.09436  0.142066  0  0.998772  0
H  H15  1  0.49206428  0.21363989  0.91464591  1  0.058143  0  0.094367  0.14212  0  0.998863  0
H  H16  1  0.72713568  0.76526589  0.91788553  1  0.063702  0  0.095656  0.095765  0  1.05323  0
H  H17  1  0.27287279  0.23473082  0.08211112  1  0.063626  0  0.095628  0.095646  0  1.053311  0
H  H18  1  0.94109650  0.33750305  0.70189959  1  0.16962  0  0.122881  0.111405  0  1.027747  0
H  H19  1  0.05889913  0.66249848  0.29810786  1  0.169732  0  0.122903  0.111422  0  1.027792  0
H  H20  1  0.32715385  0.53770873  0.58049822  1  0.12077  0  0.119234  0.096762  0  0.998599  0
H  H21  1  0.67284176  0.46228895  0.41949885  1  0.121125  0  0.119198  0.096699  0  0.998399  0
H  H22  1  0.38647322  0.48717400  0.39860537  1  0.146168  0  0.113181  0.125572  0  1.005218  0
H  H23  1  0.61352981  0.51281114  0.60140338  1  0.146198  0  0.113194  0.125639  0  1.005134  0
H  H24  1  0.21831961  0.34377903  0.37974776  1  0.123614  0  0.110563  0.114423  0  1.045244  0
H  H25  1  0.78168132  0.65621286  0.62025899  1  0.123808  0  0.110583  0.11443  0  1.045195  0
H  H26  1  0.64049216  0.01925702  0.73619199  1  0.1065  0  0.114529  0.123995  0  0.99753  0
H  H27  1  0.35951627  0.98073391  0.26381140  1  0.10699  0  0.114483  0.123924  0  0.997538  0
H  H28  1  0.53508401  0.86111034  0.68124325  1  0.102146  0  0.10825  0.105736  0  1.007748  0
H  H29  1  0.46493296  0.13887480  0.31876767  1  0.102208  0  0.108238  0.105808  0  1.007597  0
H  H30  1  0.63296861  0.86309756  0.47734422  1  0.118457  0  0.111147  0.120534  0  1.001371  0
H  H31  1  0.36703441  0.13688565  0.52266755  1  0.118182  0  0.111124  0.120457  0  1.001435  0
H  H32  1  0.95403958  0.33224430  0.05448902  1  0.15444  0  0.124097  0.119271  0  1.018582  0
H  H33  1  0.04594318  0.66775723  0.94550745  1  0.154708  0  0.124134  0.119278  0  1.018545  0
H  H34  1  0.08788410  0.93440985  0.16526475  1  0.155417  0  0.113203  0.130895  0  1.019554  0
H  H35  1  0.91213407  0.06559458  0.83473448  1  0.155186  0  0.113214  0.130928  0  1.019712  0
H  H36  1  0.22704697  0.98545271  0.95855140  1  0.105203  0  0.110684  0.114686  0  1.014898  0
H  H37  1  0.77297657  0.01455268  0.04144652  1  0.105215  0  0.110699  0.114675  0  1.015  0
H  H38  1  0.23024766  0.21005114  0.81153939  1  0.139678  0  0.123028  0.103769  0  0.996502  0
H  H39  1  0.76975445  0.78995715  0.18846139  1  0.139663  0  0.123029  0.103864  0  0.996477  0
C  C40  1  0.84543299  0.60425497  0.80741469  1  1.572476  0  0.206754  0.576994  0  4.212509  0
C  C41  1  0.15456796  0.39574077  0.19258052  1  1.57311  0  0.206797  0.576809  0  4.212578  0
C  C42  1  0.69017743  0.63024886  0.84667884  1  -0.020608  0  -0.019242  -0.026142  0  4.019333  0
C  C43  1  0.30982251  0.36975556  0.15331429  1  -0.021216  0  -0.019265  -0.026086  0  4.019256  0
C  C44  1  0.58760082  0.56762209  0.82580204  1  0.001286  0  -0.085463  -0.135965  0  3.971062  0
C  C45  1  0.41239377  0.43238426  0.17419373  1  0.001747  0  -0.085499  -0.135995  0  3.970927  0
C  C46  1  0.44264015  0.59721149  0.85325045  1  -0.06095  0  -0.022552  -0.028405  0  4.013558  0
C  C47  1  0.55735663  0.40280258  0.14674377  1  -0.060548  0  -0.022576  -0.028456  0  4.013337  0
C  C48  1  0.33780092  0.53673199  0.81950415  1  1.53673  0  0.195867  0.558742  0  4.221122  0
C  C49  1  0.66219585  0.46328014  0.18049232  1  1.536534  0  0.195883  0.558693  0  4.221234  0
C  C50  1  0.39968944  0.68039887  0.91221829  1  0.010443  0  -0.084474  -0.153566  0  3.913082  0
C  C51  1  0.60030520  0.31961423  0.08777823  1  0.010608  0  -0.084421  -0.153392  0  3.912983  0
C  C52  1  0.50085151  0.73819210  0.93986287  1  0.030435  0  -0.009231  0.169474  0  3.98064  0
C  C53  1  0.49915807  0.26181040  0.06013468  1  0.030194  0  -0.009238  0.169374  0  3.980858  0
C  C54  1  0.45540012  0.81938166  0.01113242  1  -0.098861  0  -0.239111  -0.418285  0  3.952482  0
C  C55  1  0.54461042  0.18060444  0.98888246  1  -0.098671  0  -0.238996  -0.418191  0  3.952676  0
C  C56  1  0.64668718  0.71689483  0.90143331  1  -0.128123  0  -0.087106  -0.155282  0  3.912851  0
C  C57  1  0.35332024  0.28310670  0.09856575  1  -0.127991  0  -0.087122  -0.155206  0  3.91285  0
C  C58  1  0.03852110  0.36745884  0.63381181  1  0.472485  0  0.043375  -0.012579  0  3.876536  0
C  C59  1  0.96147665  0.63253884  0.36619114  1  0.471825  0  0.043359  -0.012546  0  3.876551  0
C  C60  1  0.25512555  0.48194129  0.56341909  1  0.468179  0  0.04369  0.081099  0  3.932086  0
C  C61  1  0.74487865  0.51805928  0.43658246  1  0.467954  0  0.043752  0.081303  0  3.931895  0
C  C62  1  0.28757268  0.45161139  0.46481127  1  -0.042917  0  -0.078067  -0.105196  0  3.966985  0
C  C63  1  0.71242935  0.54838532  0.53519202  1  -0.04301  0  -0.078149  -0.105488  0  3.96694  0
C  C64  1  0.19336178  0.37365672  0.45321658  1  -0.028544  0  -0.066949  -0.124714  0  3.911297  0
C  C65  1  0.80664345  0.62633710  0.54678715  1  -0.028567  0  -0.066938  -0.124558  0  3.911028  0
C  C66  1  0.06522833  0.33068615  0.53786260  1  0.405233  0  0.109944  0.216981  0  3.999652  0
C  C67  1  0.93477267  0.66931538  0.46213528  1  0.405078  0  0.109938  0.216949  0  3.999695  0
C  C68  1  0.85380116  0.18859960  0.60279478  1  1.396237  0  0.243007  0.439616  0  4.115971  0
C  C69  1  0.14618704  0.81141447  0.39720100  1  1.395985  0  0.243072  0.439654  0  4.11575  0
C  C70  1  0.78758071  0.09770439  0.56844690  1  0.510404  0  0.115706  0.109559  0  4.002318  0
C  C71  1  0.21242026  0.90229328  0.43154763  1  0.510333  0  0.115782  0.109872  0  4.001951  0
C  C72  1  0.67740205  0.01477252  0.65034639  1  -0.014189  0  -0.066355  -0.114943  0  3.901604  0
C  C73  1  0.32260957  0.98521551  0.34965509  1  -0.015213  0  -0.06638  -0.115025  0  3.901307  0
C  C74  1  0.61981857  0.92806444  0.61903394  1  -0.081086  0  -0.062369  -0.020374  0  3.95254  0
C  C75  1  0.38020484  0.07192070  0.38097191  1  -0.081234  0  -0.062299  -0.02042  0  3.952254  0
C  C76  1  0.67335128  0.92804130  0.50746635  1  0.028537  0  -0.072185  -0.129019  0  3.925897  0
C  C77  1  0.32665178  0.07194770  0.49253868  1  0.029418  0  -0.072153  -0.128809  0  3.925915  0
C  C78  1  0.78359992  0.01471756  0.43144464  1  0.470943  0  0.117277  0.118888  0  3.987336  0
C  C79  1  0.21640210  0.98527722  0.56855620  1  0.470953  0  0.117174  0.118606  0  3.987345  0
C  C80  1  0.84385647  0.01393656  0.31138921  1  1.426525  0  0.237448  0.444808  0  4.143677  0
C  C81  1  0.15613278  0.98607269  0.68861043  1  1.426645  0  0.237345  0.444783  0  4.143606  0
C  C82  1  0.01528687  0.25343535  0.03668040  1  0.468772  0  0.048986  -0.004182  0  3.864034  0
C  C83  1  0.98469588  0.74656426  0.96331127  1  0.468245  0  0.048884  -0.004219  0  3.864138  0
C  C84  1  0.01121775  0.13024810  0.12535610  1  0.392309  0  0.103643  0.203251  0  4.018012  0
C  C85  1  0.98877142  0.86974958  0.87463743  1  0.39177  0  0.103748  0.203215  0  4.018143  0
C  C86  1  0.08777731  0.03089203  0.09800523  1  -0.047367  0  -0.063496  -0.115916  0  3.904137  0
C  C87  1  0.91222799  0.96911240  0.90199241  1  -0.046653  0  -0.06356  -0.116041  0  3.90442  0
C  C88  1  0.16700289  0.05945165  0.98424485  1  0.010314  0  -0.079091  -0.110724  0  3.997367  0
C  C89  1  0.83301209  0.94055759  0.01575248  1  0.010375  0  -0.079198  -0.110708  0  3.997681  0
C  C90  1  0.16913868  0.18463480  0.90113109  1  0.436687  0  0.047721  0.080017  0  3.939075  0
C  C91  1  0.83086770  0.81537155  0.09886802  1  0.43645  0  0.047752  0.079844  0  3.939411  0
N  N92  1  0.13331427  0.43944317  0.64577504  1  -1.269373  0  -0.330773  -0.217208  0  3.632705  0
N  N93  1  0.86668563  0.56055547  0.35422483  1  -1.268855  0  -0.330769  -0.217284  0  3.632703  0
N  N94  1  0.97351111  0.25222046  0.52346589  1  -1.285722  0  -0.385835  -0.3633  0  3.59318  0
N  N95  1  0.02648989  0.74778204  0.47653164  1  -1.285903  0  -0.385883  -0.363434  0  3.593289  0
N  N96  1  0.83998891  0.09789916  0.46118992  1  -1.185256  0  -0.300369  -0.285017  0  3.340206  0
N  N97  1  0.16000244  0.90210237  0.53880500  1  -1.185177  0  -0.300331  -0.285036  0  3.339783  0
N  N98  1  0.93600334  0.11281438  0.23935585  1  -1.27201  0  -0.39742  -0.38233  0  3.599743  0
N  N99  1  0.06398582  0.88718137  0.76064072  1  -1.27201  0  -0.397393  -0.382131  0  3.599473  0
N  N100  1  0.09359572  0.27918915  0.92737384  1  -1.262077  0  -0.332862  -0.215621  0  3.607312  0
N  N101  1  0.90639562  0.72081238  0.07262265  1  -1.261542  0  -0.332835  -0.215511  0  3.60735  0
O  O102  1  0.88383746  0.48546062  0.84701665  1  -1.159493  0  -0.322732  -0.530305  0  2.297489  0
O  O103  1  0.11615710  0.51453995  0.15298507  1  -1.159473  0  -0.322805  -0.530246  0  2.297377  0
O  O104  1  0.92794119  0.69621466  0.73548663  1  -1.210889  0  -0.322151  -0.581818  0  2.240014  0
O  O105  1  0.07205761  0.30377916  0.26449556  1  -1.211491  0  -0.322119  -0.581746  0  2.240217  0
O  O106  1  0.37949153  0.45766946  0.77189458  1  -1.181666  0  -0.32918  -0.568997  0  2.137648  0
O  O107  1  0.62049992  0.54234943  0.22809578  1  -1.181157  0  -0.329207  -0.569051  0  2.137762  0
O  O108  1  0.20432892  0.57162160  0.84033446  1  -1.164714  0  -0.335039  -0.544826  0  2.30998  0
O  O109  1  0.79566572  0.42839247  0.15966642  1  -1.165233  0  -0.334964  -0.544701  0  2.310061  0
O  O110  1  0.80314444  0.19974383  0.69731242  1  -1.132883  0  -0.282502  -0.465374  0  2.139788  0
O  O111  1  0.19683420  0.80028277  0.30267677  1  -1.132598  0  -0.282561  -0.465437  0  2.139658  0
O  O112  1  0.80866570  0.92900647  0.28401469  1  -1.145196  0  -0.298874  -0.492326  0  2.139575  0
O  O113  1  0.19130319  0.07100567  0.71597586  1  -1.145257  0  -0.298712  -0.492165  0  2.139981  0
