# generated using pymatgen
data_CoH14C14(N2Cl)2
_symmetry_space_group_name_H-M   'P 1'
_cell_length_a   10.03933399
_cell_length_b   11.25420445
_cell_length_c   14.49430000
_cell_angle_alpha   90.00000000
_cell_angle_beta   90.00000000
_cell_angle_gamma   90.00000000
_symmetry_Int_Tables_number   1
_chemical_formula_structural   CoH14C14(N2Cl)2
_chemical_formula_sum   'Co4 H56 C56 N16 Cl8'
_cell_volume   1637.63438621
_cell_formula_units_Z   4
loop_
 _symmetry_equiv_pos_site_id
 _symmetry_equiv_pos_as_xyz
  1  'x, y, z'
loop_
 _atom_site_type_symbol
 _atom_site_label
 _atom_site_symmetry_multiplicity
 _atom_site_fract_x
 _atom_site_fract_y
 _atom_site_fract_z
 _atom_site_occupancy
 _atom_site_hle17_ddec_charge
 _atom_site_hle17_ddec_spin_density
 _atom_site_hle17_ddec_sum_bond_order
 _atom_site_hle17_magmom
 _atom_site_hse06_10hf_ddec_charge
 _atom_site_hse06_10hf_ddec_spin_density
 _atom_site_hse06_10hf_ddec_sum_bond_order
 _atom_site_hse06_10hf_magmom
 _atom_site_hse06_ddec_charge
 _atom_site_hse06_ddec_spin_density
 _atom_site_hse06_ddec_sum_bond_order
 _atom_site_hse06_magmom
 _atom_site_pbe_bader_charge
 _atom_site_pbe_bader_spin_density
 _atom_site_pbe_cm5_charge
 _atom_site_pbe_ddec_charge
 _atom_site_pbe_ddec_spin_density
 _atom_site_pbe_ddec_sum_bond_order
 _atom_site_pbe_magmom
Co  Co0  1  0.92324551  0.00000000  0.24999966  1  0.789783  2.840101  2.292807  2.466  0.747457  2.805778  2.761544  2.53  0.839688  2.873382  2.677709  2.633  1.068185  2.502667  0.55062  0.674864  2.743635  2.825111  2.436
Co  Co1  1  0.57677432  0.49999980  0.75000034  1  0.789826  -2.781677  2.292743  -2.466  0.747511  -2.793145  2.761333  -2.53  0.83975  -2.850854  2.677598  -2.634  1.067941  -2.503382  0.550512  0.674879  -2.739354  2.824858  -2.437
Co  Co2  1  0.07676206  0.99999960  0.75000034  1  0.78973  -2.78153  2.292844  -2.466  0.747393  -2.792826  2.76142  -2.53  0.839702  -2.850721  2.677634  -2.633  1.068303  -2.502647  0.550601  0.67487  -2.738648  2.824927  -2.436
Co  Co3  1  0.42322628  0.49999980  0.24999966  1  0.789851  -2.781673  2.292664  -2.466  0.747509  -2.793106  2.761225  -2.53  0.839788  -2.85084  2.677447  -2.634  1.068054  -2.503417  0.550719  0.675097  -2.739512  2.824664  -2.437
H  H4  1  0.68171255  0.37777259  0.50852611  1  0.090251  0.00014  0.933266  0.0  0.101059  5.8e-05  1.004063  0.0  0.102561  9.2e-05  1.002733  0.0  0.096951  -0.000119  0.10716  0.099937  2.5e-05  1.004825  0.0
H  H5  1  0.81828835  0.12221921  0.00853577  1  0.090271  -0.00013  0.933368  0.0  0.101098  -0.000119  1.004155  0.0  0.102605  -0.00011  1.002816  0.0  0.096897  -0.000262  0.107155  0.099975  -0.000129  1.004918  0.0
H  H6  1  0.68171255  0.62222790  0.99147389  1  0.090261  0.000137  0.933264  0.0  0.101066  5.8e-05  1.004054  0.0  0.102566  9.2e-05  1.002725  0.0  0.096951  -0.000119  0.107173  0.099943  2.5e-05  1.004818  0.0
H  H7  1  0.81828735  0.87778039  0.49146630  1  0.090267  -0.000127  0.933371  0.0  0.10108  -0.000119  1.004174  0.0  0.102587  -0.00011  1.002834  0.0  0.096922  -0.000262  0.107146  0.099942  -0.000129  1.004955  0.0
H  H8  1  0.31828904  0.62223234  0.49146561  1  0.090285  -3e-06  0.933285  0.0  0.101094  -6.2e-05  1.00407  0.0  0.102596  1.4e-05  1.002742  0.0  0.096942  -0.000427  0.107177  0.099961  -0.000151  1.004839  0.0
H  H9  1  0.18171026  0.87778128  0.99146630  1  0.090258  -2.8e-05  0.933334  0.0  0.101068  -5e-05  1.004129  0.0  0.102574  2e-06  1.002787  0.0  0.09688  -0.000283  0.107149  0.099948  -9.3e-05  1.004899  0.0
H  H10  1  0.31829004  0.37776815  0.00853370  1  0.090275  -1e-05  0.933265  0.0  0.101074  -6.2e-05  1.004054  0.0  0.102576  1.4e-05  1.002725  0.0  0.096919  -0.000427  0.10717  0.099944  -0.000151  1.004818  0.0
H  H11  1  0.18171026  0.12221921  0.50853439  1  0.090242  2e-06  0.933359  0.0  0.101055  -5e-05  1.004151  0.0  0.10256  2e-06  1.00281  0.0  0.096892  -0.000284  0.107151  0.099935  -9.3e-05  1.004922  0.0
H  H12  1  0.90894974  0.12060826  0.44895442  1  0.096351  -0.000571  0.96558  0.0  0.099906  -0.000465  1.041585  0.0  0.103305  -0.000349  1.037345  0.0  0.17086  -0.000324  0.121702  0.096921  -0.000574  1.045514  0.0
H  H13  1  0.59103921  0.37938266  0.94894890  1  0.096439  -0.000573  0.96536  0.0  0.100008  -0.0007  1.041338  0.0  0.103398  -0.000471  1.037114  0.0  0.170849  -0.001972  0.121725  0.097027  -0.000922  1.045231  0.0
H  H14  1  0.90894874  0.87939223  0.05104420  1  0.096325  -0.000568  0.965562  0.0  0.099891  -0.000465  1.041559  0.0  0.103289  -0.000349  1.037318  0.0  0.170728  -0.000325  0.12169  0.096905  -0.000574  1.045488  0.0
H  H15  1  0.59104220  0.62061695  0.55105041  1  0.096408  -0.000577  0.965436  0.0  0.099981  -0.0007  1.041412  0.0  0.103372  -0.000471  1.037187  0.0  0.170861  -0.001972  0.121727  0.097003  -0.000922  1.045303  0.0
H  H16  1  0.09104488  0.87938779  0.55104351  1  0.096314  0.000585  0.965597  0.0  0.099912  0.000459  1.041581  0.0  0.103313  0.000345  1.037335  0.0  0.170767  0.000324  0.121706  0.096918  0.000571  1.045517  0.0
H  H17  1  0.40896239  0.62061961  0.05105317  1  0.09642  -0.000577  0.965333  0.0  0.099987  -0.000692  1.041334  0.0  0.103379  -0.000464  1.037107  0.0  0.170914  -0.001974  0.12173  0.097027  -0.000914  1.045217  0.0
H  H18  1  0.09104488  0.12061181  0.94895649  1  0.09632  0.000582  0.965602  0.0  0.099915  0.000459  1.041593  0.0  0.103317  0.000345  1.037346  0.0  0.170765  0.000324  0.121705  0.096922  0.000571  1.045527  0.0
H  H19  1  0.40896139  0.37938088  0.44894683  1  0.09645  -0.000568  0.965315  0.0  0.100016  -0.000692  1.041308  0.0  0.103408  -0.000465  1.037081  0.0  0.170915  -0.001974  0.121746  0.097054  -0.000914  1.045192  0.0
H  H20  1  0.80187391  0.53843788  0.40120530  1  0.091454  -0.000165  0.977062  0.0  0.101228  -0.000234  1.042475  0.0  0.104444  -0.000137  1.040732  0.0  0.113246  -0.000703  0.089537  0.098985  -0.000331  1.043609  0.0
H  H21  1  0.69812400  0.96157041  0.90120806  1  0.091501  -0.000171  0.977066  0.0  0.101264  -0.000249  1.042479  0.0  0.104481  -0.000146  1.040735  0.0  0.11333  -0.000738  0.089574  0.099034  -0.000346  1.043596  0.0
H  H22  1  0.80187391  0.46156261  0.09879539  1  0.091455  -0.000165  0.977051  0.0  0.101235  -0.000234  1.042461  0.0  0.104451  -0.000137  1.040718  0.0  0.113246  -0.000703  0.089552  0.098991  -0.000331  1.043595  0.0
H  H23  1  0.69812599  0.03842919  0.59879194  1  0.091499  -0.000172  0.977049  0.0  0.101265  -0.000249  1.04246  0.0  0.104482  -0.000146  1.040715  0.0  0.113308  -0.000738  0.089573  0.099035  -0.000346  1.043577  0.0
H  H24  1  0.19812768  0.46156617  0.59878918  1  0.091478  -0.000161  0.977069  0.0  0.101282  -0.000246  1.042447  0.0  0.104499  -0.000146  1.040705  0.0  0.110745  -0.000741  0.08961  0.099051  -0.000345  1.043568  0.0
H  H25  1  0.30187162  0.03843364  0.09879470  1  0.091395  0.000166  0.977062  0.0  0.101216  0.000233  1.042426  0.0  0.104431  0.000136  1.040684  0.0  0.1132  0.00068  0.089547  0.098973  0.000336  1.04356  0.0
H  H26  1  0.19812768  0.53843344  0.90121082  1  0.091479  -0.000164  0.977076  0.0  0.101278  -0.000246  1.042464  0.0  0.104495  -0.000146  1.04072  0.0  0.11075  -0.000741  0.089612  0.099047  -0.000345  1.043584  0.0
H  H27  1  0.30187162  0.96156597  0.40120668  1  0.091403  0.000165  0.977075  0.0  0.101218  0.000233  1.042445  0.0  0.104433  0.000136  1.040703  0.0  0.113213  0.00068  0.089549  0.098975  0.000336  1.04358  0.0
H  H28  1  0.69630017  0.19435759  0.20367317  1  0.099806  0.000287  0.97766  0.001  0.10867  0.000396  1.040866  0.001  0.110767  0.000305  1.039784  0.001  0.098368  0.00107  0.113353  0.107037  0.000493  1.041874  0.001
H  H29  1  0.80372762  0.30563155  0.70368490  1  0.099809  -0.000214  0.977583  -0.001  0.10867  -0.000363  1.040788  -0.001  0.110761  -0.000248  1.039711  -0.001  0.098643  -0.001279  0.113372  0.107027  -0.000482  1.041797  -0.001
H  H30  1  0.69629918  0.80564291  0.29632614  1  0.099785  0.000287  0.97767  0.001  0.108634  0.000397  1.040898  0.001  0.110731  0.000305  1.039817  0.001  0.098367  0.00107  0.11334  0.107001  0.000493  1.041906  0.001
H  H31  1  0.80372961  0.69436627  0.79631510  1  0.099725  -0.000213  0.977672  -0.001  0.108662  -0.000363  1.040797  -0.001  0.110755  -0.000248  1.039716  -0.001  0.098605  -0.001279  0.113363  0.107011  -0.000482  1.041817  -0.001
H  H32  1  0.30370740  0.80564113  0.79632131  1  0.099837  -0.000209  0.977576  -0.001  0.108654  -0.000359  1.04083  -0.001  0.110746  -0.000245  1.039755  -0.001  0.098495  -0.001266  0.113356  0.107019  -0.000477  1.041838  -0.001
H  H33  1  0.19626800  0.69436894  0.29631786  1  0.099728  -0.00028  0.977637  -0.001  0.108647  -0.0004  1.040795  -0.001  0.110738  -0.000307  1.039722  -0.001  0.098601  -0.001093  0.113376  0.107014  -0.000501  1.041805  -0.001
H  H34  1  0.30370740  0.19435847  0.70367869  1  0.099846  -0.00021  0.977571  -0.001  0.108669  -0.000359  1.040817  -0.001  0.11076  -0.000245  1.039743  -0.001  0.098497  -0.001266  0.113361  0.107033  -0.000477  1.041825  -0.001
H  H35  1  0.19626999  0.30562978  0.20368145  1  0.09977  -0.000282  0.977585  -0.001  0.108682  -0.0004  1.040747  -0.001  0.110774  -0.000307  1.039672  -0.001  0.098599  -0.001093  0.113375  0.10705  -0.000501  1.041756  -0.001
H  H36  1  0.00828043  0.32015057  0.59952395  1  0.089999  -2.5e-05  0.979146  0.0  0.098961  -4.1e-05  1.045333  0.0  0.102118  8e-06  1.043912  0.0  0.076801  -0.000393  0.089472  0.096585  -8.5e-05  1.046416  0.0
H  H37  1  0.49172385  0.17984301  0.09953637  1  0.089994  -2.8e-05  0.979165  0.0  0.099005  -6e-05  1.045285  0.0  0.102163  -7e-06  1.043871  0.0  0.076697  -0.000364  0.089484  0.096617  -0.000102  1.046374  0.0
H  H38  1  0.00828043  0.67984814  0.90047536  1  0.090029  -3e-05  0.979138  0.0  0.099007  -4.1e-05  1.045308  0.0  0.102164  8e-06  1.043885  0.0  0.076647  -0.000393  0.08948  0.09663  -8.5e-05  1.046389  0.0
H  H39  1  0.49172385  0.82015571  0.40046225  1  0.089993  -3.1e-05  0.97921  0.0  0.099052  -6e-05  1.045271  0.0  0.102209  -7e-06  1.043859  0.0  0.076682  -0.000364  0.089507  0.096663  -0.000102  1.046361  0.0
H  H40  1  0.99171917  0.67985259  0.40047053  1  0.089917  3.9e-05  0.979162  0.0  0.098903  6.1e-05  1.04534  0.0  0.10206  8e-06  1.043919  0.0  0.07666  0.000336  0.08941  0.096515  9.8e-05  1.046429  0.0
H  H41  1  0.50827276  0.82015748  0.90046432  1  0.090031  -1.6e-05  0.979093  0.0  0.099041  -3.7e-05  1.04522  0.0  0.102199  1.1e-05  1.043808  0.0  0.07677  -0.000386  0.089486  0.096662  -7.5e-05  1.046299  0.0
H  H42  1  0.99172017  0.32014702  0.09953016  1  0.089941  3.9e-05  0.979154  0.0  0.098931  6.1e-05  1.045323  0.0  0.102087  8e-06  1.043902  0.0  0.076777  0.000336  0.089436  0.096543  9.9e-05  1.046411  0.0
H  H43  1  0.50827475  0.17984212  0.59953499  1  0.09002  -1.6e-05  0.979104  0.0  0.099032  -3.7e-05  1.045226  0.0  0.102189  1.1e-05  1.043817  0.0  0.076778  -0.000386  0.089491  0.096654  -7.5e-05  1.046307  0.0
H  H44  1  0.64011716  0.36950457  0.33328826  1  0.10356  1.8e-05  1.012122  0.0  0.104181  -0.000278  1.092455  0.0  0.106302  -0.000227  1.091599  0.0  0.159168  -0.000111  0.106317  0.102242  -0.000347  1.093907  0.0
H  H45  1  0.85990266  0.13049434  0.83331172  1  0.103523  -0.000508  1.01207  0.0  0.104238  -0.000895  1.092348  0.0  0.10636  -0.00067  1.091477  0.0  0.159601  -0.001883  0.106343  0.102296  -0.001138  1.093806  -0.001
H  H46  1  0.64011816  0.63049592  0.16671105  1  0.103538  1.4e-05  1.012141  0.0  0.104176  -0.000278  1.092455  0.0  0.106298  -0.000227  1.091597  0.0  0.159179  -0.000111  0.106309  0.102239  -0.000347  1.093907  0.0
H  H47  1  0.85989967  0.86950615  0.66669104  1  0.103505  -0.000507  1.012142  0.0  0.104217  -0.000894  1.092404  0.0  0.10634  -0.00067  1.091532  0.0  0.15958  -0.001883  0.106338  0.102275  -0.001138  1.093861  -0.001
H  H48  1  0.35988842  0.63049592  0.66670346  1  0.103453  -0.000507  1.012083  0.0  0.104154  -0.000882  1.092336  0.0  0.10628  -0.000663  1.091471  0.0  0.159037  -0.001883  0.106314  0.10223  -0.001122  1.093768  -0.001
H  H49  1  0.14009794  0.86950793  0.16669035  1  0.103537  2e-06  1.012017  0.0  0.104237  0.000299  1.092287  0.0  0.106359  0.000244  1.091416  0.0  0.15955  0.000109  0.10636  0.102302  0.00037  1.093746  0.0
H  H50  1  0.35988842  0.36950368  0.83329654  1  0.103473  -0.000496  1.012059  0.0  0.104161  -0.000882  1.092317  0.0  0.106284  -0.000663  1.091455  0.0  0.15904  -0.001883  0.106321  0.102239  -0.001122  1.09375  -0.001
H  H51  1  0.14010192  0.13049079  0.33330896  1  0.103499  5e-06  1.012066  0.0  0.104198  0.000299  1.092342  0.0  0.106322  0.000244  1.091469  0.0  0.159581  0.000109  0.106337  0.102262  0.000371  1.0938  0.0
H  H52  1  0.78853836  0.26927359  0.55792001  1  0.084761  -0.000382  0.940729  0.0  0.098941  -0.000377  1.006355  0.0  0.100323  -0.00027  1.005129  0.0  0.091183  -0.000781  0.10939  0.097691  -0.000473  1.007581  0.0
H  H53  1  0.71146951  0.23072088  0.05793036  1  0.084898  -0.000302  0.94077  0.0  0.099106  -0.000377  1.006364  0.0  0.100484  -0.000271  1.005148  0.0  0.091234  -0.000839  0.109496  0.097839  -0.000477  1.007598  0.0
H  H54  1  0.78853836  0.73072602  0.94207999  1  0.084858  -0.000374  0.940836  0.0  0.099025  -0.000377  1.006443  0.0  0.100408  -0.00027  1.005217  0.0  0.091571  -0.00078  0.109451  0.097776  -0.000473  1.007668  0.0
H  H55  1  0.71146851  0.76927872  0.44207171  1  0.08484  -0.000305  0.940749  0.0  0.099065  -0.000377  1.006332  0.0  0.100441  -0.000271  1.005117  0.0  0.091265  -0.000839  0.10949  0.097799  -0.000477  1.007565  0.0
H  H56  1  0.21146124  0.73073046  0.44207516  1  0.084857  0.000398  0.940815  0.0  0.099051  0.00038  1.006396  0.0  0.100433  0.00028  1.005176  0.0  0.091401  0.000722  0.10948  0.09779  0.000465  1.007625  0.0
H  H57  1  0.28853308  0.76928227  0.94207240  1  0.084886  -0.000303  0.940785  0.0  0.099113  -0.000372  1.006324  0.0  0.100492  -0.000259  1.005105  0.0  0.091363  -0.00088  0.109501  0.097867  -0.000481  1.00755  0.0
H  H58  1  0.21146223  0.26927003  0.05792484  1  0.08486  0.000396  0.940816  0.0  0.099049  0.00038  1.006396  0.0  0.100429  0.000281  1.005176  0.0  0.091407  0.000722  0.109482  0.097786  0.000465  1.007626  0.0
H  H59  1  0.28853308  0.23071911  0.55792760  1  0.084879  -0.000293  0.940783  0.0  0.099083  -0.000372  1.006351  0.0  0.100461  -0.000259  1.005132  0.0  0.09136  -0.00088  0.109506  0.097838  -0.000481  1.007574  0.0
C  C60  1  0.84438669  0.16315147  0.39874709  1  0.160865  -0.001253  3.638523  -0.001  0.104331  0.003771  3.90507  0.005  0.119714  0.003237  3.919502  0.004  0.944583  0.00573  0.139645  0.093247  0.004061  3.896478  0.005
C  C61  1  0.65561321  0.33684300  0.89875192  1  0.160968  0.00049  3.638494  0.0  0.104406  -0.004675  3.905018  -0.006  0.1198  -0.003882  3.919454  -0.005  0.944421  -0.007775  0.139622  0.093305  -0.005211  3.896428  -0.007
C  C62  1  0.84438569  0.83684902  0.10125291  1  0.160952  -0.001278  3.638431  -0.001  0.104404  0.003771  3.904984  0.005  0.119785  0.003235  3.919419  0.004  0.944667  0.00573  0.139689  0.093321  0.004061  3.896391  0.005
C  C63  1  0.65561520  0.66315572  0.60124877  1  0.161002  0.000513  3.638442  0.0  0.104444  -0.004675  3.904958  -0.006  0.119836  -0.003882  3.919391  -0.005  0.944633  -0.007774  0.139651  0.093344  -0.005211  3.896369  -0.007
C  C64  1  0.15560893  0.83684725  0.60125015  1  0.160984  0.001255  3.638444  0.001  0.1044  -0.003799  3.904989  -0.005  0.119793  -0.003242  3.919402  -0.004  0.944418  -0.005857  0.139646  0.093314  -0.004118  3.896425  -0.005
C  C65  1  0.34438639  0.66316016  0.10125153  1  0.161042  0.000571  3.638396  0.0  0.104501  -0.00462  3.904907  -0.006  0.119895  -0.003842  3.919341  -0.005  0.944565  -0.007691  0.139716  0.093424  -0.005162  3.896293  -0.007
C  C66  1  0.15560793  0.16315236  0.89874916  1  0.160911  0.0013  3.638466  0.001  0.104325  -0.003799  3.905007  -0.005  0.119718  -0.003242  3.919424  -0.004  0.944419  -0.005857  0.139639  0.093239  -0.004118  3.896441  -0.005
C  C67  1  0.34438639  0.33684034  0.39874847  1  0.160991  0.000503  3.638422  0.0  0.10445  -0.00462  3.904937  -0.006  0.119845  -0.003844  3.919369  -0.005  0.944555  -0.007691  0.139686  0.093375  -0.005162  3.896323  -0.007
C  C68  1  0.89232712  0.42025094  0.50093209  1  0.063705  -0.00034  3.753129  0.0  0.083586  -9.9e-05  3.992184  0.0  0.081899  -7.3e-05  4.018089  0.0  -0.064531  -0.000254  -0.016922  0.084691  -0.000115  3.974554  0.0
C  C69  1  0.60767577  0.07974886  0.00093830  1  0.063942  -8.5e-05  3.7529  0.0  0.083746  -0.0001  3.992075  0.0  0.082065  -4.9e-05  4.017966  0.0  -0.064164  -0.000389  -0.016889  0.084854  -0.000179  3.974448  0.0
C  C70  1  0.89232613  0.57974955  0.99906653  1  0.063652  -0.00034  3.753277  0.0  0.083555  -9.8e-05  3.992294  0.0  0.08187  -7.1e-05  4.018191  0.0  -0.064416  -0.000253  -0.016925  0.084661  -0.000115  3.974664  0.0
C  C71  1  0.60767378  0.92025163  0.49906170  1  0.063936  -8.9e-05  3.752872  0.0  0.083714  -0.0001  3.992088  0.0  0.082031  -5.1e-05  4.017977  0.0  -0.064077  -0.000389  -0.01691  0.084824  -0.000179  3.974456  0.0
C  C72  1  0.10767647  0.57975044  0.49906308  1  0.063721  0.000407  3.753093  0.001  0.083561  5.4e-05  3.992215  0.0  0.081875  6.4e-05  4.018117  0.0  -0.064088  -1.7e-05  -0.016932  0.084659  1.4e-05  3.974583  0.0
C  C73  1  0.39232085  0.92025430  0.99906377  1  0.063798  -0.000118  3.753027  0.0  0.083613  -0.000127  3.992179  0.0  0.081923  -6e-05  4.018082  0.0  -0.064872  -0.00036  -0.016943  0.084717  -0.000169  3.974557  0.0
C  C74  1  0.10767547  0.42025005  0.00093692  1  0.06366  0.000399  3.753026  0.001  0.083498  5.5e-05  3.992141  0.0  0.081812  6.5e-05  4.018044  0.0  -0.064136  -1.6e-05  -0.016954  0.084597  1.5e-05  3.974509  0.0
C  C75  1  0.39232184  0.07974620  0.50093761  1  0.063751  -0.000108  3.752915  0.0  0.083566  -0.000125  3.992061  0.0  0.081878  -5.9e-05  4.017958  0.0  -0.064234  -0.000359  -0.016919  0.084672  -0.000169  3.974438  0.0
C  C76  1  0.77810241  0.33270588  0.50090035  1  -0.042211  0.000424  3.639012  0.001  -0.110752  0.000124  3.889581  0.0  -0.106168  0.00013  3.899122  0.0  0.258022  0.000137  -0.046397  -0.113536  0.000102  3.883052  0.0
C  C77  1  0.72190247  0.16728948  0.00091208  1  -0.042365  -0.000925  3.639335  -0.001  -0.110901  -0.000872  3.88981  -0.001  -0.106319  -0.000661  3.899352  -0.001  0.257965  -0.001785  -0.046531  -0.113738  -0.001062  3.883398  -0.001
C  C78  1  0.77810241  0.66729461  0.99909827  1  -0.042316  0.000409  3.639247  0.001  -0.110819  0.000124  3.88974  0.0  -0.106239  0.000129  3.899283  0.0  0.257602  0.000137  -0.04647  -0.113602  0.000102  3.883208  0.0
C  C79  1  0.72190147  0.83271190  0.49908792  1  -0.042288  -0.000923  3.639189  -0.001  -0.110827  -0.000872  3.889703  -0.001  -0.106239  -0.000661  3.899237  -0.001  0.257949  -0.001785  -0.04653  -0.113643  -0.001062  3.883274  -0.001
C  C80  1  0.22189918  0.66729639  0.49909206  1  -0.042333  -0.000459  3.639261  -0.001  -0.110835  -0.000235  3.8897  0.0  -0.106261  -0.000148  3.89925  0.0  0.257805  -0.000564  -0.046484  -0.113632  -0.000357  3.883242  0.0
C  C81  1  0.27809414  0.83271190  0.99908999  1  -0.042218  -0.000873  3.639232  -0.001  -0.110735  -0.000866  3.889707  -0.001  -0.106141  -0.000616  3.899232  -0.001  0.258285  -0.001806  -0.046442  -0.113553  -0.001131  3.883224  -0.001
C  C82  1  0.22190018  0.33270410  0.00090794  1  -0.042291  -0.000445  3.639184  -0.001  -0.110762  -0.000236  3.889584  0.0  -0.106185  -0.000149  3.899131  0.0  0.257831  -0.000564  -0.046463  -0.113566  -0.000357  3.883139  0.0
C  C83  1  0.27809514  0.16728859  0.50090932  1  -0.042222  -0.000948  3.639283  -0.001  -0.110729  -0.000866  3.889756  -0.001  -0.106135  -0.000617  3.89928  -0.001  0.25811  -0.001806  -0.046499  -0.113545  -0.001131  3.883272  -0.001
C  C84  1  0.00430706  0.39963642  0.55631386  1  -0.116668  0.000223  3.753214  0.0  -0.13325  -8.3e-05  3.994337  0.0  -0.136419  -3.3e-05  4.016686  0.0  0.007741  -0.000288  -0.095671  -0.130787  -0.000148  3.979042  0.0
C  C85  1  0.49569623  0.10036338  0.05632421  1  -0.116753  -0.000161  3.752852  0.0  -0.133359  -0.000201  3.993998  0.0  -0.136536  -0.00013  4.016345  0.0  0.007728  -0.000527  -0.095751  -0.13089  -0.000303  3.978726  0.0
C  C86  1  0.00430706  0.60036496  0.94368476  1  -0.116766  0.000246  3.753244  0.0  -0.133385  -8.3e-05  3.994366  0.0  -0.136555  -3.4e-05  4.016713  0.0  0.007778  -0.000288  -0.095761  -0.13092  -0.000147  3.979072  0.0
C  C87  1  0.49569523  0.89963711  0.44367510  1  -0.11674  -0.000155  3.752914  0.0  -0.133381  -0.0002  3.994075  0.0  -0.136559  -0.00013  4.016421  0.0  0.007714  -0.000527  -0.095723  -0.130911  -0.000303  3.978803  0.0
C  C88  1  0.99569553  0.60036496  0.44367924  1  -0.11662  -0.000276  3.753052  0.0  -0.133222  2e-05  3.994176  0.0  -0.136391  6e-06  4.016521  0.0  0.00773  9e-06  -0.0957  -0.130759  6.1e-05  3.978907  0.0
C  C89  1  0.50429939  0.89964156  0.94367855  1  -0.116765  -0.000159  3.752995  0.0  -0.133376  -0.000249  3.994106  0.0  -0.136553  -0.000158  4.016457  0.0  0.007683  -0.000668  -0.095687  -0.130898  -0.000332  3.978803  0.0
C  C90  1  0.99569354  0.39963465  0.05632283  1  -0.116593  -0.000267  3.752906  0.0  -0.133209  1.9e-05  3.994056  0.0  -0.136378  5e-06  4.0164  0.0  0.007664  9e-06  -0.095706  -0.130744  6.1e-05  3.978785  0.0
C  C91  1  0.50430138  0.10035805  0.55632145  1  -0.116682  -0.000161  3.752936  0.0  -0.133283  -0.00025  3.994033  0.0  -0.13646  -0.000158  4.016384  0.0  0.007696  -0.000667  -0.095677  -0.130806  -0.000332  3.978731  0.0
C  C92  1  0.88878505  0.52122831  0.44450301  1  -0.105471  0.000174  3.744446  0.0  -0.124782  -0.000206  3.987816  0.0  -0.127188  -0.000125  4.009372  0.0  -0.100937  -0.000572  -0.095408  -0.123145  -0.0003  3.973111  0.0
C  C93  1  0.61121485  0.97877998  0.94450784  1  -0.10558  -0.000316  3.744631  0.0  -0.12487  -0.000379  3.988022  -0.001  -0.127274  -0.000255  4.009573  0.0  -0.101331  -0.000939  -0.095452  -0.123226  -0.000525  3.973285  -0.001
C  C94  1  0.88878605  0.47877307  0.05549561  1  -0.105447  0.000164  3.744485  0.0  -0.124769  -0.000207  3.987851  0.0  -0.127177  -0.000125  4.009408  0.0  -0.100936  -0.000572  -0.095421  -0.123132  -0.0003  3.973145  0.0
C  C95  1  0.61121485  0.02122140  0.55549285  1  -0.105623  -0.000314  3.74464  0.0  -0.124909  -0.000378  3.988041  -0.001  -0.127315  -0.000255  4.009593  0.0  -0.101439  -0.000939  -0.095469  -0.123266  -0.000525  3.973305  -0.001
C  C96  1  0.11121654  0.47877129  0.55548940  1  -0.105459  -0.000546  3.74455  -0.001  -0.124798  -0.00041  3.98794  -0.001  -0.127205  -0.000292  4.009497  0.0  -0.098692  -0.001086  -0.095477  -0.123154  -0.000562  3.973203  -0.001
C  C97  1  0.38878276  0.02122673  0.05549561  1  -0.105403  0.000136  3.744438  0.0  -0.124744  0.000219  3.987835  0.0  -0.127148  0.00016  4.009392  0.0  -0.100933  0.000346  -0.095404  -0.123111  0.000234  3.973139  0.0
C  C98  1  0.11121654  0.52122654  0.94451060  1  -0.105389  -0.000549  3.744527  -0.001  -0.124721  -0.000411  3.987907  -0.001  -0.127128  -0.000293  4.009466  0.0  -0.098681  -0.001085  -0.095415  -0.123077  -0.000562  3.973169  -0.001
C  C99  1  0.38878376  0.97877287  0.44450439  1  -0.105392  0.000138  3.744387  0.0  -0.12473  0.000218  3.987794  0.0  -0.127134  0.00016  4.00935  0.0  -0.101371  0.000346  -0.09541  -0.123098  0.000234  3.973099  0.0
C  C100  1  0.70259242  0.29118895  0.33681792  1  -0.052681  0.005853  3.674346  0.007  -0.090098  0.00257  3.925888  0.003  -0.088627  0.00189  3.945029  0.003  0.312583  0.005929  0.002565  -0.091177  0.003277  3.913926  0.004
C  C101  1  0.79741943  0.20881174  0.83682965  1  -0.052429  -0.005454  3.674403  -0.007  -0.089971  -0.002718  3.925898  -0.004  -0.088492  -0.00197  3.945048  -0.003  0.312257  -0.006803  0.002617  -0.091081  -0.003568  3.913963  -0.005
C  C102  1  0.70259242  0.70881154  0.16318208  1  -0.052671  0.005849  3.674355  0.007  -0.090105  0.00257  3.925904  0.003  -0.088634  0.00189  3.945044  0.003  0.312571  0.005928  0.002555  -0.091185  0.003277  3.913944  0.004
C  C103  1  0.79742043  0.79119142  0.66317035  1  -0.052474  -0.005471  3.674311  -0.007  -0.089997  -0.002719  3.925815  -0.004  -0.088517  -0.001971  3.944966  -0.003  0.312518  -0.006803  0.002607  -0.091104  -0.003569  3.913882  -0.005
C  C104  1  0.29740818  0.70881598  0.66317794  1  -0.05244  -0.005432  3.67441  -0.007  -0.08992  -0.002669  3.925924  -0.004  -0.08845  -0.001944  3.94506  -0.003  0.312704  -0.00668  0.002619  -0.090987  -0.003498  3.913938  -0.005
C  C105  1  0.20258117  0.79118875  0.16317242  1  -0.052452  -0.005707  3.674458  -0.007  -0.089962  -0.002586  3.925992  -0.003  -0.088483  -0.001889  3.945146  -0.003  0.31267  -0.006075  0.002629  -0.091049  -0.003317  3.914044  -0.004
C  C106  1  0.29740718  0.29118273  0.83682137  1  -0.052454  -0.00547  3.674425  -0.007  -0.089917  -0.002669  3.925957  -0.004  -0.088446  -0.001945  3.945093  -0.003  0.312735  -0.006679  0.002618  -0.090988  -0.003497  3.913974  -0.005
C  C107  1  0.20258117  0.20881085  0.33682758  1  -0.052346  -0.005718  3.674409  -0.007  -0.089852  -0.002586  3.925926  -0.003  -0.088374  -0.001889  3.945079  -0.003  0.312655  -0.006075  0.002661  -0.090937  -0.003317  3.913981  -0.004
C  C108  1  0.73310540  0.20513667  0.27323707  1  0.002574  -0.00278  3.744752  -0.004  -0.026468  0.001112  4.005355  0.001  -0.023119  0.000637  4.026393  0.001  0.405635  0.001772  -0.004863  -0.028798  0.001511  3.990805  0.002
C  C109  1  0.76691641  0.29485780  0.77324948  1  0.002562  0.002904  3.744608  0.004  -0.026478  -0.001089  4.005245  -0.001  -0.023117  -0.000564  4.02628  -0.001  0.405071  -0.002078  -0.004906  -0.02882  -0.001563  3.990719  -0.002
C  C110  1  0.73310441  0.79486383  0.22676224  1  0.002616  -0.002773  3.744757  -0.004  -0.026412  0.001112  4.005365  0.001  -0.023063  0.000638  4.026404  0.001  0.405629  0.001773  -0.004822  -0.028743  0.001511  3.990816  0.002
C  C111  1  0.76691741  0.70513914  0.72675190  1  0.002687  0.002911  3.744577  0.004  -0.026421  -0.001088  4.005172  -0.001  -0.023061  -0.000563  4.026209  -0.001  0.404758  -0.002078  -0.004886  -0.028757  -0.001562  3.990651  -0.002
C  C112  1  0.26689818  0.79486027  0.72675535  1  0.002629  0.00293  3.744755  0.004  -0.026374  -0.001052  4.00537  -0.001  -0.023019  -0.000541  4.026411  -0.001  0.405725  -0.001979  -0.004758  -0.0287  -0.001513  3.990823  -0.002
C  C113  1  0.23308120  0.70514624  0.22675121  1  0.00261  0.002834  3.744758  0.004  -0.026495  -0.001144  4.005411  -0.001  -0.023138  -0.000648  4.026456  -0.001  0.404773  -0.00191  -0.004894  -0.028823  -0.001578  3.990885  -0.002
C  C114  1  0.26689719  0.20513933  0.77324465  1  0.002525  0.002947  3.744819  0.004  -0.026489  -0.001053  4.005448  -0.001  -0.023135  -0.000541  4.026489  -0.001  0.405698  -0.001979  -0.004825  -0.028816  -0.001513  3.990902  -0.002
C  C115  1  0.23308319  0.29485336  0.27324810  1  0.002449  0.002845  3.744758  0.004  -0.02665  -0.001144  4.005427  -0.001  -0.023294  -0.000648  4.026472  -0.001  0.404781  -0.00191  -0.004969  -0.028979  -0.001578  3.9909  -0.002
N  N116  1  0.77305327  0.26281644  0.41557440  1  -0.044628  0.001077  3.557896  0.002  0.052105  0.001586  3.766772  0.002  0.037675  0.001101  3.791988  0.002  -1.218951  0.004773  -0.236237  0.061328  0.001983  3.750363  0.003
N  N117  1  0.72695161  0.23717980  0.91558544  1  -0.044978  -0.000991  3.55821  -0.001  0.051804  -0.001578  3.767092  -0.002  0.037358  -0.001091  3.792329  -0.002  -1.218911  -0.004991  -0.236275  0.061017  -0.001986  3.750694  -0.003
N  N118  1  0.77305228  0.73718316  0.08442560  1  -0.044632  0.001088  3.557853  0.002  0.052089  0.001586  3.766739  0.002  0.037661  0.001101  3.791948  0.002  -1.218902  0.004773  -0.236213  0.061312  0.001984  3.75033  0.003
N  N119  1  0.72695061  0.76282158  0.58441594  1  -0.044937  -0.000999  3.558072  -0.001  0.051827  -0.001578  3.766954  -0.002  0.037382  -0.001091  3.792188  -0.002  -1.218797  -0.004991  -0.236264  0.061035  -0.001986  3.750568  -0.003
N  N120  1  0.22694733  0.73718227  0.58442077  1  -0.044768  -0.001047  3.557893  -0.002  0.051953  -0.001607  3.766828  -0.002  0.037526  -0.001123  3.792038  -0.002  -1.219071  -0.004931  -0.236291  0.061171  -0.002007  3.750426  -0.003
N  N121  1  0.27304600  0.76282513  0.08441801  1  -0.045058  -0.001008  3.558173  -0.001  0.051688  -0.001544  3.767065  -0.002  0.037243  -0.001066  3.792295  -0.001  -1.219001  -0.004826  -0.236309  0.060922  -0.001949  3.750647  -0.003
N  N122  1  0.22694733  0.26281733  0.91557854  1  -0.044776  -0.001049  3.557881  -0.002  0.051935  -0.001607  3.766821  -0.002  0.037508  -0.001122  3.792029  -0.002  -1.219059  -0.004931  -0.236293  0.061153  -0.002007  3.750418  -0.003
N  N123  1  0.27304799  0.23717447  0.41558199  1  -0.045018  -0.00098  3.558161  -0.001  0.051736  -0.001545  3.767041  -0.002  0.037291  -0.001066  3.792272  -0.001  -1.219004  -0.004826  -0.236259  0.060963  -0.001949  3.750637  -0.003
N  N124  1  0.82193799  0.12588540  0.31245248  1  -0.368066  0.04681  3.39589  0.067  -0.320154  0.033397  3.711522  0.04  -0.353413  0.026555  3.728643  0.03  -1.230212  0.074647  -0.375304  -0.295575  0.039153  3.700071  0.048
N  N125  1  0.67807287  0.37410730  0.81245455  1  -0.368181  -0.045809  3.395853  -0.067  -0.320269  -0.033346  3.711483  -0.04  -0.353527  -0.026406  3.728602  -0.03  -1.229849  -0.075074  -0.375352  -0.295704  -0.039225  3.700035  -0.048
N  N126  1  0.82193699  0.87411510  0.18754683  1  -0.368115  0.046825  3.395913  0.067  -0.3202  0.033397  3.711541  0.04  -0.353459  0.026555  3.728663  0.03  -1.230215  0.074647  -0.375352  -0.295621  0.039153  3.700091  0.048
N  N127  1  0.67807586  0.62589053  0.68754476  1  -0.368251  -0.045813  3.39588  -0.067  -0.320339  -0.033345  3.711525  -0.04  -0.353596  -0.026405  3.72865  -0.03  -1.230072  -0.075074  -0.375396  -0.295775  -0.039224  3.700075  -0.048
N  N128  1  0.17806161  0.87411243  0.68754476  1  -0.368282  -0.045814  3.395978  -0.067  -0.32036  -0.033277  3.711574  -0.04  -0.35364  -0.026369  3.72873  -0.03  -1.230014  -0.074751  -0.375439  -0.2958  -0.039127  3.700139  -0.048
N  N129  1  0.32192673  0.62589409  0.18754890  1  -0.368161  -0.045792  3.395877  -0.067  -0.320257  -0.033306  3.711512  -0.04  -0.353525  -0.026373  3.728651  -0.03  -1.229911  -0.075012  -0.375381  -0.295727  -0.039199  3.700093  -0.048
N  N130  1  0.17806062  0.12588717  0.81245593  1  -0.368113  -0.045844  3.395881  -0.067  -0.320177  -0.033276  3.71145  -0.04  -0.353457  -0.026368  3.728611  -0.03  -1.230029  -0.074752  -0.375378  -0.295616  -0.039127  3.700013  -0.048
N  N131  1  0.32192773  0.37410552  0.31245110  1  -0.368092  -0.045762  3.395891  -0.067  -0.320197  -0.033305  3.71153  -0.04  -0.353465  -0.026373  3.728669  -0.03  -1.229921  -0.075012  -0.375323  -0.295665  -0.039198  3.700107  -0.048
Cl  Cl132  1  0.04018892  0.91690177  0.36539812  1  -0.548462  0.074714  0.958641  0.101  -0.521171  0.059182  1.237414  0.071  -0.554  0.04402  1.210046  0.051  -0.654543  0.138323  -0.283534  -0.492962  0.073831  1.25613  0.091
Cl  Cl133  1  0.45973468  0.58314029  0.86533534  1  -0.548551  -0.073217  0.958531  -0.102  -0.521295  -0.059128  1.237266  -0.072  -0.554118  -0.043764  1.209933  -0.051  -0.654652  -0.139277  -0.283737  -0.493261  -0.07403  1.255963  -0.091
Cl  Cl134  1  0.04019091  0.08309694  0.13460188  1  -0.548472  0.074713  0.958637  0.101  -0.521189  0.059182  1.23741  0.071  -0.554015  0.04402  1.210039  0.051  -0.654539  0.138325  -0.283539  -0.49298  0.073832  1.256129  0.091
Cl  Cl135  1  0.45973169  0.41685932  0.63466673  1  -0.548552  -0.073218  0.958546  -0.102  -0.521282  -0.059128  1.237261  -0.072  -0.554109  -0.043764  1.209934  -0.051  -0.654643  -0.139279  -0.283733  -0.493248  -0.074031  1.255959  -0.091
Cl  Cl136  1  0.95981168  0.08310405  0.63460671  1  -0.54845  -0.07317  0.958584  -0.102  -0.521166  -0.058984  1.237307  -0.072  -0.554023  -0.043684  1.209962  -0.051  -0.654648  -0.138742  -0.283577  -0.493009  -0.073833  1.256032  -0.091
Cl  Cl137  1  0.54025895  0.41686287  0.13465914  1  -0.548573  -0.073149  0.95851  -0.102  -0.521275  -0.05907  1.237195  -0.072  -0.55411  -0.04374  1.209875  -0.051  -0.654471  -0.139086  -0.283634  -0.493108  -0.073992  1.25585  -0.091
Cl  Cl138  1  0.95980969  0.91689822  0.86539398  1  -0.548461  -0.07317  0.958594  -0.102  -0.521167  -0.058985  1.237307  -0.072  -0.55403  -0.043685  1.20997  -0.051  -0.654643  -0.138744  -0.283566  -0.493011  -0.073835  1.256031  -0.091
Cl  Cl139  1  0.54025895  0.58313762  0.36534017  1  -0.548559  -0.073148  0.958498  -0.102  -0.521269  -0.059069  1.23719  -0.072  -0.554105  -0.043739  1.209871  -0.051  -0.654469  -0.139086  -0.283633  -0.493103  -0.073992  1.255845  -0.091
