# generated using pymatgen
data_AlH5C11NO5F2
_symmetry_space_group_name_H-M   'P 1'
_cell_length_a   6.66085085
_cell_length_b   11.11448997
_cell_length_c   16.94075647
_cell_angle_alpha   85.01565599
_cell_angle_beta   83.83723459
_cell_angle_gamma   73.60316161
_symmetry_Int_Tables_number   1
_chemical_formula_structural   AlH5C11NO5F2
_chemical_formula_sum   'Al2 H10 C22 N2 O10 F4'
_cell_volume   1194.09067446
_cell_formula_units_Z   2
loop_
 _symmetry_equiv_pos_site_id
 _symmetry_equiv_pos_as_xyz
  1  'x, y, z'
loop_
 _atom_site_type_symbol
 _atom_site_label
 _atom_site_symmetry_multiplicity
 _atom_site_fract_x
 _atom_site_fract_y
 _atom_site_fract_z
 _atom_site_occupancy
 _atom_site_pbe_bader_charge
 _atom_site_pbe_bader_spin_density
 _atom_site_pbe_cm5_charge
 _atom_site_pbe_ddec_charge
 _atom_site_pbe_ddec_spin_density
 _atom_site_pbe_ddec_sum_bond_order
 _atom_site_pbe_magmom
Al  Al0  1  0.50000493  0.49999026  0.50000520  1  2.506354  0  0.402418  1.652979  0  2.571002  0
Al  Al1  1  0.00000142  0.49999532  0.50000415  1  2.505013  0  0.399847  1.650531  0  2.574965  0
H  H2  1  0.20363512  0.63455107  0.43309754  1  0.641353  0  0.357459  0.439831  0  0.839753  0
H  H3  1  0.79639830  0.36540683  0.56688799  1  0.640809  0  0.357542  0.440192  0  0.839318  0
H  H4  1  0.84123546  0.54819463  0.73379455  1  0.138356  0  0.111732  0.122533  0  1.003366  0
H  H5  1  0.77656175  0.54696922  0.88231304  1  0.092123  0  0.105442  0.10943  0  1.027424  0
H  H6  1  0.44509908  0.45546448  0.89903105  1  0.125491  0  0.117056  0.143586  0  0.992315  0
H  H7  1  0.55491313  0.54452006  0.10097137  1  0.125627  0  0.117066  0.143587  0  0.992408  0
H  H8  1  0.22343672  0.45307622  0.11769543  1  0.092108  0  0.10535  0.10938  0  1.027499  0
H  H9  1  0.15875222  0.45184796  0.26621279  1  0.138381  0  0.111636  0.122467  0  1.003568  0
H  H10  1  0.25072588  0.87182137  0.53807651  1  0.145278  0  0.121066  0.15175  0  0.984169  0
H  H11  1  0.74926840  0.12817337  0.46189794  1  0.145023  0  0.120942  0.151688  0  0.984095  0
C  C12  1  0.63792289  0.72629915  0.50130735  1  1.562605  0  0.272797  0.661786  0  4.086888  0
C  C13  1  0.79753884  0.49636249  0.35644445  1  1.584836  0  0.266876  0.655276  0  4.103354  0
C  C14  1  0.36208175  0.27369122  0.49868806  1  1.562811  0  0.272883  0.661796  0  4.086741  0
C  C15  1  0.20245864  0.50363411  0.64356105  1  1.585505  0  0.266859  0.655197  0  4.103145  0
C  C16  1  0.17597157  0.50441999  0.73227280  1  -0.028418  0  -0.016659  -0.151895  0  3.932031  0
C  C17  1  0.97131876  0.52924505  0.77108042  1  -0.015489  0  -0.071882  -0.047788  0  3.963632  0
C  C18  1  0.93505991  0.52794159  0.85307339  1  -0.020535  0  -0.088355  -0.162799  0  3.958681  0
C  C19  1  0.10697506  0.50069104  0.89969878  1  0.441235  0  0.093529  0.20285  0  4.049829  0
C  C20  1  0.31195523  0.47683881  0.86301233  1  0.037043  0  -0.089984  -0.275643  0  3.94429  0
C  C21  1  0.34357765  0.47859367  0.78062093  1  0.428519  0  0.112416  0.294298  0  4.027798  0
C  C22  1  0.68804288  0.52315966  0.13699364  1  0.036918  0  -0.090027  -0.275621  0  3.94419  0
C  C23  1  0.89303092  0.49932257  0.10030611  1  0.4409  0  0.09383  0.20303  0  4.049733  0
C  C24  1  0.06494509  0.47208990  0.14693129  1  -0.019811  0  -0.08837  -0.162731  0  3.958591  0
C  C25  1  0.02868419  0.47078450  0.22892563  1  -0.015433  0  -0.071895  -0.048003  0  3.963368  0
C  C26  1  0.82401778  0.49559062  0.26773478  1  -0.029  0  -0.01645  -0.151578  0  3.931659  0
C  C27  1  0.65642281  0.52140297  0.21938383  1  0.428592  0  0.112339  0.294238  0  4.027795  0
C  C28  1  0.42784237  0.13333854  0.49979474  1  0.13526  0  -0.010958  -0.116903  0  3.954235  0
C  C29  1  0.57215173  0.86665045  0.50018294  1  0.136266  0  -0.010981  -0.117328  0  3.954883  0
C  C30  1  0.29150401  0.05749506  0.52141083  1  0.51104  0  0.106779  0.269541  0  4.033705  0
C  C31  1  0.70849445  0.94249700  0.47856000  1  0.510646  0  0.106827  0.269649  0  4.034056  0
C  C32  1  0.36085973  0.92769172  0.52153993  1  -0.077769  0  -0.08541  -0.201687  0  3.973067  0
C  C33  1  0.63911802  0.07230289  0.47843590  1  -0.07699  0  -0.085204  -0.201592  0  3.972485  0
N  N34  1  0.09201623  0.49474881  0.98372135  1  -0.544364  0  -0.145035  -0.12926  0  3.261499  0
N  N35  1  0.90798997  0.50525814  0.01628561  1  -0.497957  0  -0.145197  -0.129454  0  3.261723  0
O  O36  1  0.49081654  0.67271676  0.51081780  1  -1.251073  0  -0.230735  -0.580094  0  2.325727  0
O  O37  1  0.96459044  0.48267517  0.39062260  1  -1.248462  0  -0.234914  -0.585837  0  2.336114  0
O  O38  1  0.16684620  0.32854052  0.50760121  1  -1.247971  0  -0.229601  -0.59065  0  2.36786  0
O  O39  1  0.38653951  0.48765897  0.60903643  1  -1.24478  0  -0.236401  -0.597594  0  2.363603  0
O  O40  1  0.50919732  0.32726770  0.48918750  1  -1.251098  0  -0.230837  -0.580242  0  2.325872  0
O  O41  1  0.03540614  0.51732331  0.60938286  1  -1.248578  0  -0.234866  -0.58576  0  2.336127  0
O  O42  1  0.83315865  0.67145330  0.49240407  1  -1.247866  0  -0.229606  -0.590643  0  2.367895  0
O  O43  1  0.61346339  0.51232634  0.39096993  1  -1.244323  0  -0.236406  -0.597667  0  2.363756  0
O  O44  1  0.23331388  0.55604675  0.46512936  1  -1.439639  0  -0.447034  -0.999102  0  2.203403  0
O  O45  1  0.76669576  0.44393097  0.53487999  1  -1.439182  0  -0.447076  -0.999528  0  2.203168  0
F  F46  1  0.54575657  0.45236367  0.74862691  1  -0.62373  0  -0.085949  -0.127732  0  1.375989  0
F  F47  1  0.45424874  0.54761977  0.25137943  1  -0.623664  0  -0.085971  -0.127767  0  1.375971  0
F  F48  1  0.08490731  0.10880019  0.54424532  1  -0.630897  0  -0.093453  -0.135375  0  1.361239  0
F  F49  1  0.91507416  0.89119561  0.45572319  1  -0.631062  0  -0.093435  -0.135342  0  1.361623  0
