# generated using pymatgen
data_ZnH9C15N4F
_symmetry_space_group_name_H-M   'P 1'
_cell_length_a   11.43571471
_cell_length_b   15.44043143
_cell_length_c   17.66182846
_cell_angle_alpha   108.47862168
_cell_angle_beta   110.19587713
_cell_angle_gamma   107.74528143
_symmetry_Int_Tables_number   1
_chemical_formula_structural   ZnH9C15N4F
_chemical_formula_sum   'Zn4 H36 C60 N16 F4'
_cell_volume   2457.09247812
_cell_formula_units_Z   4
loop_
 _symmetry_equiv_pos_site_id
 _symmetry_equiv_pos_as_xyz
  1  'x, y, z'
loop_
 _atom_site_type_symbol
 _atom_site_label
 _atom_site_symmetry_multiplicity
 _atom_site_fract_x
 _atom_site_fract_y
 _atom_site_fract_z
 _atom_site_occupancy
 _atom_site_pbe_bader_charge
 _atom_site_pbe_bader_spin_density
 _atom_site_pbe_cm5_charge
 _atom_site_pbe_ddec_charge
 _atom_site_pbe_ddec_spin_density
 _atom_site_pbe_ddec_sum_bond_order
 _atom_site_pbe_magmom
Zn  Zn0  1  0.32637226  0.05184969  0.89323026  1  1.200437  0  0.732141  0.602284  0  2.479349  0
Zn  Zn1  1  0.64697591  0.94830128  0.11691286  1  1.182898  0  0.760677  0.642371  0  2.454818  0
Zn  Zn2  1  0.30664627  0.89777878  0.99501161  1  1.194861  0  0.742148  0.609622  0  2.481943  0
Zn  Zn3  1  0.66631857  0.04432252  0.99926194  1  1.185266  0  0.751893  0.609942  0  2.516318  0
H  H4  1  0.32636147  0.23635019  0.03872032  1  0.106957  0  0.122543  0.11628  0  1.004443  0
H  H5  1  0.74772184  0.73539502  0.06381689  1  0.028002  0  0.085821  0.087894  0  1.004262  0
H  H6  1  0.79901246  0.54949834  0.99060644  1  0.05392  0  0.091661  0.094739  0  0.989754  0
H  H7  1  0.73192730  0.57326309  0.06853484  1  0.03607  0  0.092842  0.096766  0  0.987744  0
H  H8  1  0.87945236  0.54706760  0.69582587  1  0.048349  0  0.100258  0.10052  0  1.003999  0
H  H9  1  0.89688968  0.60829178  0.38326384  1  0.056011  0  0.099818  0.099831  0  1.007627  0
H  H10  1  0.76010165  0.38089997  0.55748496  1  0.054021  0  0.102319  0.1067  0  0.993117  0
H  H11  1  0.79653745  0.44105533  0.24848857  1  0.056205  0  0.100565  0.101588  0  1.001205  0
H  H12  1  0.21480925  0.84980175  0.13885858  1  0.070766  0  0.120873  0.109622  0  0.99021  0
H  H13  1  0.19240047  0.78120825  0.25472744  1  0.078495  0  0.096968  0.09738  0  1.006894  0
H  H14  1  0.76633727  0.06645892  0.57484357  1  0.051746  0  0.100578  0.101497  0  0.995516  0
H  H15  1  0.69962009  0.83403403  0.96209312  1  0.120606  0  0.12361  0.119307  0  1.007724  0
H  H16  1  0.18857439  0.81216926  0.40001267  1  0.04825  0  0.10165  0.102902  0  0.994477  0
H  H17  1  0.76116493  0.09794753  0.71942798  1  0.044203  0  0.100241  0.100278  0  1.001443  0
H  H18  1  0.31459450  0.89358809  0.56869374  1  0.063037  0  0.1017  0.105992  0  1.007803  0
H  H19  1  0.27990132  0.15984268  0.27904223  1  0.053649  0  0.103009  0.084852  0  0.952369  0
H  H20  1  0.13317835  0.24595483  0.34446341  1  0.06718  0  0.095863  0.101271  0  1.000306  0
H  H21  1  0.32693393  0.54055153  0.26097456  1  0.068974  0  0.105066  0.058324  0  0.949325  0
H  H22  1  0.65958606  0.39541605  0.00263266  1  0.046763  0  0.103837  0.088217  0  1.032616  0
H  H23  1  0.46467113  0.41702329  0.19008423  1  0.077942  0  0.102386  0.127768  0  0.980905  0
H  H24  1  0.22067349  0.20416895  0.79362807  1  0.105215  0  0.104882  0.098508  0  1.025536  0
H  H25  1  0.67763849  0.27329406  0.11284775  1  0.124763  0  0.1181  0.109804  0  1.031548  0
H  H26  1  0.01667798  0.69089762  0.82807283  1  0.055429  0  0.115711  0.101403  0  1.003661  0
H  H27  1  0.30516379  0.04455503  0.17317893  1  0.079481  0  0.11313  0.096472  0  1.031303  0
H  H28  1  0.31724023  0.99379420  0.70985470  1  0.072099  0  0.120054  0.105346  0  0.99915  0
H  H29  1  0.24761215  0.51699416  0.76286994  1  0.093313  0  0.105955  0.131732  0  0.992592  0
H  H30  1  0.69590417  0.28179225  0.39648215  1  0.033374  0  0.098804  0.100613  0  1.010883  0
H  H31  1  0.63998246  0.98282189  0.40525944  1  0.032343  0  0.096922  0.096961  0  1.014625  0
H  H32  1  0.30382366  0.41345615  0.12088749  1  0.037076  0  0.096664  0.11265  0  0.984113  0
H  H33  1  0.63150877  0.87595223  0.25976792  1  0.101065  0  0.123751  0.114943  0  0.986171  0
H  H34  1  0.00563582  0.15095763  0.06918630  1  0.106846  0  0.12272  0.113886  0  0.994153  0
H  H35  1  0.10141685  0.86843986  0.68966005  1  0.115225  0  0.113462  0.103465  0  1.026308  0
H  H36  1  0.74766125  0.04807518  0.84242928  1  0.064222  0  0.11949  0.109685  0  0.997217  0
H  H37  1  0.24857294  0.68972274  0.85335068  1  0.114042  0  0.120669  0.10499  0  1.010883  0
H  H38  1  0.81338815  0.71275941  0.98507062  1  0.033222  0  0.087357  0.090321  0  0.992804  0
H  H39  1  0.68187905  0.13811681  0.29486295  1  0.081792  0  0.117201  0.103367  0  1.001267  0
C  C40  1  0.32454320  0.17901295  0.06195843  1  0.440016  0  0.020312  -0.032311  0  3.921503  0
C  C41  1  0.09566999  0.83986888  0.73760306  1  0.450684  0  0.009681  -0.04367  0  3.969749  0
C  C42  1  0.64150275  0.03790813  0.82330400  1  0.40311  0  0.006064  -0.063261  0  3.990228  0
C  C43  1  0.67727444  0.15690117  0.23995728  1  0.422437  0  0.010505  -0.037481  0  3.976576  0
C  C44  1  0.36003993  0.74184577  0.88607764  1  0.416021  0  0.027472  -0.009746  0  3.907131  0
C  C45  1  0.53433424  0.01418008  0.73931782  1  0.042078  0  -0.033558  -0.033741  0  4.08907  0
C  C46  1  0.47100312  0.71783766  0.89028623  1  0.014397  0  -0.023382  -0.006887  0  4.048641  0
C  C47  1  0.01997555  0.73800565  0.71963065  1  0.000198  0  -0.034245  -0.013922  0  4.070431  0
C  C48  1  0.06654294  0.11869174  0.18841710  1  0.068028  0  -0.034026  -0.128183  0  4.02044  0
C  C49  1  0.57547420  0.51981894  0.92527837  1  -0.054441  0  -0.017721  0.034919  0  3.903759  0
C  C50  1  0.45186110  0.42506181  0.87316507  1  0.029998  0  -0.016554  -0.059158  0  4.076665  0
C  C51  1  0.69728101  0.25012776  0.23694886  1  0.009262  0  -0.032124  -0.036562  0  4.04794  0
C  C52  1  0.34007446  0.43201120  0.81256772  1  0.411709  0  0.089356  0.232923  0  4.039704  0
C  C53  1  0.34414942  0.52207876  0.81007814  1  0.037589  0  -0.109869  -0.27216  0  4.011459  0
C  C54  1  0.46776722  0.61759963  0.86939083  1  -0.038915  0  -0.019485  0.043562  0  4.086413  0
C  C55  1  0.31887968  0.85619325  0.15545412  1  0.409324  0  0.010253  -0.050363  0  3.974555  0
C  C56  1  0.58377647  0.61062726  0.92300646  1  0.010309  0  -0.026778  -0.001684  0  3.934049  0
C  C57  1  0.73381701  0.67640483  0.00183824  1  -0.04172  0  -0.158367  -0.190594  0  3.910424  0
C  C58  1  0.72455582  0.57365767  0.00487298  1  -0.045438  0  -0.15416  -0.190652  0  3.892847  0
C  C59  1  0.93875595  0.64161145  0.63374303  1  0.017067  0  -0.022314  -0.032031  0  4.079814  0
C  C60  1  0.74080569  0.34832393  0.31298597  1  0.03829  0  -0.008619  0.09135  0  4.052091  0
C  C61  1  0.85315518  0.53677615  0.38604956  1  0.005918  0  -0.090518  -0.110513  0  4.01442  0
C  C62  1  0.42005393  0.86602821  0.23517355  1  0.033939  0  -0.03299  -0.02921  0  4.090775  0
C  C63  1  0.79604120  0.44299413  0.31065478  1  -0.058698  0  -0.090762  -0.128859  0  3.98434  0
C  C64  1  0.73975657  0.35274134  0.39262579  1  -0.045442  0  -0.091263  -0.185949  0  3.934514  0
C  C65  1  0.79922134  0.44728566  0.47174705  1  -0.003952  0  -0.006206  0.100971  0  4.033325  0
C  C66  1  0.85949241  0.54170638  0.46910213  1  0.042442  0  -0.015637  -0.026568  0  4.027937  0
C  C67  1  0.55182979  0.33503979  0.95553767  1  0.450264  0  -0.010106  -0.0629  0  4.055364  0
C  C68  1  0.92662379  0.63508471  0.55094054  1  0.401057  0  0.099212  0.188853  0  3.983107  0
C  C69  1  0.87384800  0.54572376  0.63255347  1  0.005986  0  -0.095106  -0.118479  0  4.029246  0
C  C70  1  0.80664412  0.45245130  0.55516784  1  -0.030858  0  -0.098617  -0.151803  0  4.029329  0
C  C71  1  0.41763537  0.87983615  0.32032735  1  0.020258  0  -0.017026  0.077671  0  4.078219  0
C  C72  1  0.53646957  0.99731235  0.65383586  1  -0.010018  0  -0.007897  0.093079  0  4.063324  0
C  C73  1  0.44150797  0.33641761  0.88771980  1  0.032988  0  -0.052484  -0.041241  0  4.129198  0
C  C74  1  0.66743123  0.02864271  0.57356838  1  -0.045579  0  -0.092206  -0.131889  0  4.016688  0
C  C75  1  0.66455941  0.04561968  0.65404966  1  -0.049016  0  -0.092895  -0.133196  0  4.005702  0
C  C76  1  0.41332475  0.93301922  0.57040774  1  -0.062103  0  -0.090898  -0.188581  0  3.940366  0
C  C77  1  0.41247547  0.91460038  0.48660669  1  -0.00944  0  -0.007901  0.083681  0  4.01609  0
C  C78  1  0.54240714  0.96264066  0.48765709  1  0.036064  0  -0.01014  0.079013  0  4.022537  0
C  C79  1  0.53159027  0.87052958  0.21760762  1  0.363587  0  0.006747  -0.058916  0  3.98054  0
C  C80  1  0.54116454  0.94376714  0.40366737  1  -0.037778  0  -0.093478  -0.188265  0  3.959231  0
C  C81  1  0.28941103  0.83241293  0.32007220  1  -0.049224  0  -0.100518  -0.146095  0  4.027337  0
C  C82  1  0.28722038  0.84929346  0.40079112  1  -0.062991  0  -0.090224  -0.126323  0  4.008984  0
C  C83  1  0.28468002  0.33019177  0.20288426  1  -0.062544  0  -0.018927  0.011979  0  3.882862  0
C  C84  1  0.42047439  0.00683989  0.75550137  1  0.425082  0  0.014668  -0.038537  0  3.959469  0
C  C85  1  0.27307167  0.23639981  0.19511114  1  0.036364  0  0.003139  0.035282  0  3.896789  0
C  C86  1  0.21987017  0.19702280  0.25178999  1  0.036447  0  -0.058628  0.002139  0  3.857152  0
C  C87  1  0.20928229  0.27895880  0.32452427  1  -0.21295  0  -0.084592  -0.088427  0  3.909481  0
C  C88  1  0.25942512  0.37689293  0.34021259  1  0.119714  0  -0.11654  -0.201532  0  3.721591  0
C  C89  1  0.29960489  0.40535027  0.28419166  1  -0.073003  0  -0.01425  0.014021  0  3.994131  0
C  C90  1  0.38052680  0.49388807  0.27296492  1  0.529831  0  0.033022  0.200046  0  3.838013  0
C  C91  1  0.32747857  0.23810874  0.84860543  1  0.361135  0  -0.010905  -0.073994  0  4.016374  0
C  C92  1  0.36377555  0.41231131  0.18412338  1  -0.052966  0  -0.157036  -0.277582  0  3.879519  0
C  C93  1  0.67957369  0.22763362  0.14868360  1  0.422522  0  0.017559  -0.026855  0  3.922651  0
C  C94  1  0.31312996  0.08074901  0.13031073  1  0.432121  0  0.005946  -0.057816  0  3.980308  0
C  C95  1  0.59025871  0.81413350  0.94214185  1  0.369442  0  0.007258  -0.055172  0  3.918409  0
C  C96  1  0.30578418  0.17182966  0.13524396  1  -0.023385  0  -0.035693  -0.046739  0  4.109436  0
C  C97  1  0.05146371  0.74898420  0.80759830  1  0.424581  0  0.002111  -0.06415  0  4.006444  0
C  C98  1  0.97793657  0.10981252  0.10512730  1  0.459844  0  0.017518  -0.021986  0  3.993782  0
C  C99  1  0.97239063  0.04776749  0.19950243  1  0.999864  0  0.198281  0.319097  0  4.105976  0
N  N100  1  0.33993164  0.09852702  0.01769473  1  -0.780424  0  -0.267651  -0.158132  0  3.58646  0
N  N101  1  0.36764708  0.85765868  0.09617089  1  -0.795803  0  -0.272675  -0.179465  0  3.533927  0
N  N102  1  0.50924610  0.24577829  0.95777689  1  -0.720551  0  -0.275512  -0.242762  0  3.305674  0
N  N103  1  0.50018066  0.86557241  0.13465026  1  -0.78621  0  -0.287644  -0.185529  0  3.577423  0
N  N104  1  0.36991850  0.18595430  0.89138631  1  -0.84814  0  -0.293389  -0.198389  0  3.650405  0
N  N105  1  0.65267060  0.12909977  0.10409493  1  -0.821239  0  -0.286801  -0.18685  0  3.610426  0
N  N106  1  0.33390750  0.03851716  0.06002090  1  -0.799321  0  -0.281007  -0.169484  0  3.627639  0
N  N107  1  0.45637532  0.02430073  0.84177467  1  -0.776906  0  -0.264861  -0.167737  0  3.54268  0
N  N108  1  0.55352749  0.89008772  0.97099158  1  -0.859373  0  -0.307858  -0.21762  0  3.619537  0
N  N109  1  0.13956244  0.84816035  0.87207822  1  -0.79863  0  -0.285083  -0.196336  0  3.546328  0
N  N110  1  0.84432310  0.04020905  0.07066708  1  -0.815266  0  -0.288343  -0.180603  0  3.548286  0
N  N111  1  0.84030490  0.00017638  0.13021121  1  -0.8376  0  -0.294197  -0.311008  0  3.555229  0
N  N112  1  0.16695346  0.90472104  0.82808549  1  -0.806596  0  -0.274416  -0.179981  0  3.560588  0
N  N113  1  0.59330521  0.04378372  0.88366937  1  -0.793178  0  -0.28888  -0.163937  0  3.670242  0
N  N114  1  0.40968470  0.84374149  0.93453354  1  -0.796798  0  -0.278187  -0.17768  0  3.541471  0
N  N115  1  0.65134116  0.08592656  0.16055901  1  -0.824304  0  -0.295992  -0.211696  0  3.659379  0
F  F116  1  0.99997598  0.02380560  0.26854723  1  -0.636238  0  -0.096423  -0.141256  0  1.321115  0
F  F117  1  0.21358330  0.34372241  0.75423813  1  -0.643999  0  -0.120439  -0.163509  0  1.318601  0
F  F118  1  0.98728749  0.72417818  0.54716570  1  -0.638699  0  -0.102093  -0.147289  0  1.350528  0
F  F119  1  0.52038825  0.56316224  0.34219322  1  -0.624353  0  -0.156347  -0.205435  0  1.221011  0
