# generated using pymatgen
data_FeHC4N3ClO
_symmetry_space_group_name_H-M   'P 1'
_cell_length_a   7.95162926
_cell_length_b   14.03433401
_cell_length_c   14.03431574
_cell_angle_alpha   116.54466222
_cell_angle_beta   100.87993066
_cell_angle_gamma   100.87984275
_symmetry_Int_Tables_number   1
_chemical_formula_structural   FeHC4N3ClO
_chemical_formula_sum   'Fe6 H6 C24 N18 Cl6 O6'
_cell_volume   1307.71808243
_cell_formula_units_Z   6
loop_
 _symmetry_equiv_pos_site_id
 _symmetry_equiv_pos_as_xyz
  1  'x, y, z'
loop_
 _atom_site_type_symbol
 _atom_site_label
 _atom_site_symmetry_multiplicity
 _atom_site_fract_x
 _atom_site_fract_y
 _atom_site_fract_z
 _atom_site_occupancy
 _atom_site_pbe_bader_charge
 _atom_site_pbe_bader_spin_density
 _atom_site_pbe_cm5_charge
 _atom_site_pbe_ddec_charge
 _atom_site_pbe_ddec_spin_density
 _atom_site_pbe_ddec_sum_bond_order
 _atom_site_pbe_magmom
Fe  Fe0  1  0.28201776  0.28199496  0.56393341  1  1.043822  0  0.624731  0.224369  0  4.256926  0
Fe  Fe1  1  0.71797961  0.43606571  0.71800390  1  1.043815  0  0.624739  0.224404  0  4.257017  0
Fe  Fe2  1  0.99999941  0.28204081  0.71796026  1  1.037554  0  0.625446  0.225842  0  4.25343  0
Fe  Fe3  1  0.71797945  0.71800378  0.43606364  1  1.043777  0  0.624787  0.224485  0  4.256834  0
Fe  Fe4  1  0.28201970  0.56393721  0.28199597  1  1.043713  0  0.624792  0.22447  0  4.256893  0
Fe  Fe5  1  0.99999916  0.71796067  0.28203774  1  1.0377  0  0.625409  0.225897  0  4.253242  0
H  H6  1  0.18269179  0.99999773  0.41992738  1  0.122771  0  0.107023  0.14074  0  1.021715  0
H  H7  1  0.81730720  0.58006979  0.99999972  1  0.122789  0  0.107028  0.140744  0  1.021672  0
H  H8  1  0.18268780  0.41992842  0.99999519  1  0.122802  0  0.107043  0.140734  0  1.021695  0
H  H9  1  0.76283954  0.58016794  0.58016891  1  0.107033  0  0.107653  0.14173  0  1.021216  0
H  H10  1  0.23716575  0.41983415  0.41983550  1  0.107201  0  0.107668  0.141748  0  1.021158  0
H  H11  1  0.81730966  0.00000436  0.58007305  1  0.122766  0  0.107031  0.140751  0  1.021686  0
C  C12  1  0.46002254  0.09807588  0.52682044  1  0.372479  0  0.103231  0.131565  0  4.02424  0
C  C13  1  0.53997557  0.47317809  0.90192378  1  0.372208  0  0.103184  0.13149  0  4.02426  0
C  C14  1  0.36188703  0.42880509  0.90189577  1  0.390263  0  0.102871  0.132681  0  4.024451  0
C  C15  1  0.93317548  0.47320047  0.57125323  1  0.424536  0  0.102412  0.130624  0  4.022926  0
C  C16  1  0.06683263  0.42875205  0.52680642  1  0.384569  0  0.10248  0.130685  0  4.02286  0
C  C17  1  0.63810907  0.09810404  0.57119539  1  0.39027  0  0.102858  0.132696  0  4.024416  0
C  C18  1  0.53998061  0.90192705  0.47318269  1  0.37244  0  0.103191  0.131628  0  4.024154  0
C  C19  1  0.46001700  0.52681646  0.09807162  1  0.372742  0  0.10315  0.131587  0  4.024173  0
C  C20  1  0.63810637  0.57119114  0.09810118  1  0.390075  0  0.102869  0.132631  0  4.024279  0
C  C21  1  0.06683658  0.52680749  0.42875452  1  0.384566  0  0.102465  0.130657  0  4.022908  0
C  C22  1  0.93317393  0.57125255  0.47319854  1  0.424584  0  0.102398  0.13062  0  4.022868  0
C  C23  1  0.36189238  0.90189805  0.42880860  1  0.390258  0  0.102883  0.132684  0  4.024281  0
C  C24  1  0.31731523  0.99999144  0.45360664  1  0.095601  0  -0.086466  -0.215846  0  3.928698  0
C  C25  1  0.68268301  0.54639094  0.00000653  1  0.095612  0  -0.086432  -0.215787  0  3.928679  0
C  C26  1  0.31731295  0.45360529  0.99998785  1  0.095566  0  -0.086448  -0.215788  0  3.928722  0
C  C27  1  0.86376804  0.54644851  0.54644858  1  0.069256  0  -0.08658  -0.214794  0  3.929558  0
C  C28  1  0.13623553  0.45355526  0.45355568  1  0.069143  0  -0.08662  -0.214786  0  3.929571  0
C  C29  1  0.68268536  0.00001149  0.54639692  1  0.095629  0  -0.086465  -0.215898  0  3.928699  0
C  C30  1  0.20847925  0.20817736  0.41661924  1  0.922231  0  0.03607  0.130116  0  3.684756  0
C  C31  1  0.79151422  0.58337923  0.79182019  1  0.922214  0  0.03602  0.129969  0  3.684907  0
C  C32  1  0.00001455  0.20841398  0.79159441  1  0.926096  0  0.037055  0.130407  0  3.684828  0
C  C33  1  0.79151543  0.79181886  0.58337642  1  0.922168  0  0.036007  0.130025  0  3.684876  0
C  C34  1  0.20848381  0.41662370  0.20818025  1  0.922169  0  0.036032  0.130096  0  3.684833  0
C  C35  1  0.99999333  0.79158560  0.20840702  1  0.926659  0  0.037016  0.130385  0  3.68491  0
N  N36  1  0.46660104  0.20851989  0.57113077  1  -0.650796  0  -0.245361  -0.142027  0  3.548239  0
N  N37  1  0.53339836  0.42886726  0.79147852  1  -0.650498  0  -0.245365  -0.141993  0  3.548113  0
N  N38  1  0.25803434  0.36273562  0.79146171  1  -0.645651  0  -0.245521  -0.142666  0  3.546532  0
N  N39  1  0.89541815  0.42888370  0.63733798  1  -0.635521  0  -0.244633  -0.140797  0  3.542251  0
N  N40  1  0.10458139  0.36266200  0.57111719  1  -0.635529  0  -0.244605  -0.140763  0  3.542152  0
N  N41  1  0.74196275  0.20853678  0.63726426  1  -0.645612  0  -0.245524  -0.142644  0  3.546462  0
N  N42  1  0.53340042  0.79148220  0.42887037  1  -0.650799  0  -0.245315  -0.142002  0  3.54817  0
N  N43  1  0.46659716  0.57113064  0.20851727  1  -0.650907  0  -0.245328  -0.142058  0  3.548183  0
N  N44  1  0.74196118  0.63726228  0.20853336  1  -0.645658  0  -0.245515  -0.142615  0  3.546385  0
N  N45  1  0.10458202  0.57111839  0.36266303  1  -0.635507  0  -0.244663  -0.140833  0  3.542085  0
N  N46  1  0.89541753  0.63733757  0.42888185  1  -0.635546  0  -0.244604  -0.140723  0  3.542177  0
N  N47  1  0.25803784  0.79146615  0.36273717  1  -0.645709  0  -0.245493  -0.14261  0  3.546367  0
N  N48  1  0.63527723  0.27053110  0.63518449  1  -0.15788  0  -0.125344  0.082674  0  3.525806  0
N  N49  1  0.36472076  0.36481451  0.72946717  1  -0.158131  0  -0.125325  0.082717  0  3.525831  0
N  N50  1  0.99999816  0.36478267  0.63521648  1  -0.17895  0  -0.126626  0.080317  0  3.519035  0
N  N51  1  0.36472423  0.72947099  0.36481594  1  -0.157762  0  -0.125354  0.082635  0  3.525824  0
N  N52  1  0.63527390  0.63518423  0.27052819  1  -0.157947  0  -0.125321  0.082694  0  3.525725  0
N  N53  1  0.99999829  0.63521713  0.36478196  1  -0.179026  0  -0.126618  0.080239  0  3.518894  0
Cl  Cl54  1  0.50000001  0.42233159  0.57766585  1  -0.430706  0  -0.127038  -0.218264  0  1.810271  0
Cl  Cl55  1  0.07771565  0.15538670  0.57762067  1  -0.432093  0  -0.12727  -0.218561  0  1.810142  0
Cl  Cl56  1  0.92228175  0.42238057  0.84461158  1  -0.428293  0  -0.12728  -0.21856  0  1.810195  0
Cl  Cl57  1  0.50000105  0.57766715  0.42233233  1  -0.426817  0  -0.127043  -0.218296  0  1.810243  0
Cl  Cl58  1  0.92227901  0.84461204  0.42237540  1  -0.428222  0  -0.127272  -0.218557  0  1.810103  0
Cl  Cl59  1  0.07771885  0.57762236  0.15538629  1  -0.432029  0  -0.127277  -0.218572  0  1.810143  0
O  O60  1  0.15988818  0.15925294  0.31919963  1  -1.065397  0  -0.144058  -0.123591  0  2.343749  0
O  O61  1  0.84010530  0.68079858  0.84074420  1  -1.066265  0  -0.143994  -0.123466  0  2.343843  0
O  O62  1  0.00003365  0.15972470  0.84029956  1  -1.063894  0  -0.145355  -0.124018  0  2.344885  0
O  O63  1  0.84010653  0.84074077  0.68079491  1  -1.065243  0  -0.144027  -0.123552  0  2.343821  0
O  O64  1  0.15989616  0.31920352  0.15925695  1  -1.066164  0  -0.144056  -0.123614  0  2.343809  0
O  O65  1  0.99998526  0.84028157  0.15970391  1  -1.064531  0  -0.145345  -0.124054  0  2.344849  0
