# generated using pymatgen
data_Cu4H8C21N8
_symmetry_space_group_name_H-M   'P 1'
_cell_length_a   28.12351806
_cell_length_b   28.13627623
_cell_length_c   28.13304378
_cell_angle_alpha   70.46821802
_cell_angle_beta   70.70343446
_cell_angle_gamma   109.57625765
_symmetry_Int_Tables_number   1
_chemical_formula_structural   Cu4H8C21N8
_chemical_formula_sum   'Cu24 H48 C126 N48'
_cell_volume   17138.68079123
_cell_formula_units_Z   6
loop_
 _symmetry_equiv_pos_site_id
 _symmetry_equiv_pos_as_xyz
  1  'x, y, z'
loop_
 _atom_site_type_symbol
 _atom_site_label
 _atom_site_symmetry_multiplicity
 _atom_site_fract_x
 _atom_site_fract_y
 _atom_site_fract_z
 _atom_site_occupancy
 _atom_site_pbe_bader_charge
 _atom_site_pbe_bader_spin_density
 _atom_site_pbe_cm5_charge
 _atom_site_pbe_ddec_charge
 _atom_site_pbe_ddec_spin_density
 _atom_site_pbe_ddec_sum_bond_order
 _atom_site_pbe_magmom
Cu  Cu0  1  0.05153223  0.97492866  0.56969329  1  0.543884  0  0.490204  0.209544  0  2.110665  0
Cu  Cu1  1  0.02695904  0.08047947  0.54310625  1  0.545728  0  0.488307  0.209011  0  2.096348  0
Cu  Cu2  1  0.92105881  0.94899814  0.62224485  1  0.547013  0  0.488632  0.210268  0  2.097421  0
Cu  Cu3  1  0.45537571  0.52539895  0.42333014  1  0.546109  0  0.491826  0.208451  0  2.118677  0
Cu  Cu4  1  0.37690632  0.41975807  0.55329891  1  0.545937  0  0.489126  0.209599  0  2.098189  0
Cu  Cu5  1  0.42884748  0.55093587  0.52807722  1  0.547557  0  0.489115  0.209995  0  2.099966  0
Cu  Cu6  1  0.44822317  0.87806891  0.07685234  1  0.545009  0  0.491439  0.20891  0  2.116401  0
Cu  Cu7  1  0.47270441  0.93007247  0.94668037  1  0.544923  0  0.490117  0.209214  0  2.103619  0
Cu  Cu8  1  0.57845525  0.95677321  0.97236996  1  0.544901  0  0.488257  0.209922  0  2.095461  0
Cu  Cu9  1  0.04429815  0.62084143  0.93035314  1  0.546133  0  0.491998  0.208697  0  2.120262  0
Cu  Cu10  1  0.12324661  0.56965608  0.95702633  1  0.54599  0  0.489255  0.209814  0  2.10093  0
Cu  Cu11  1  0.07104480  0.54299242  0.87794088  1  0.544537  0  0.489204  0.21017  0  2.100938  0
Cu  Cu12  1  0.07639514  0.02515254  0.04597146  1  0.54413  0  0.490137  0.209078  0  2.111151  0
Cu  Cu13  1  0.94628596  0.91918098  0.12379435  1  0.547545  0  0.489751  0.210008  0  2.101735  0
Cu  Cu14  1  0.97162447  0.05054317  0.07191996  1  0.544562  0  0.488187  0.209937  0  2.09461  0
Cu  Cu15  1  0.92882909  0.47446695  0.44888218  1  0.546181  0  0.49054  0.209494  0  2.11158  0
Cu  Cu16  1  0.95721599  0.58050702  0.47294522  1  0.541937  0  0.489179  0.209175  0  2.099657  0
Cu  Cu17  1  0.87779715  0.44917178  0.57893196  1  0.547014  0  0.488253  0.209962  0  2.09682  0
Cu  Cu18  1  0.57176118  0.12275497  0.45373619  1  0.545542  0  0.489903  0.209678  0  2.109382  0
Cu  Cu19  1  0.54328141  0.07012214  0.37627292  1  0.54799  0  0.489163  0.210595  0  2.097972  0
Cu  Cu20  1  0.62257762  0.04336152  0.42848861  1  0.544054  0  0.488344  0.210288  0  2.095939  0
Cu  Cu21  1  0.42375695  0.37904356  0.05080179  1  0.546729  0  0.489806  0.209113  0  2.109088  0
Cu  Cu22  1  0.55387463  0.43053012  0.02659682  1  0.548109  0  0.489668  0.210365  0  2.101542  0
Cu  Cu23  1  0.52841627  0.45679903  0.92057562  1  0.54533  0  0.488338  0.210768  0  2.09618  0
H  H24  1  0.18974774  0.04344247  0.50092211  1  0.093337  0  0.127399  0.121766  0  0.97887  0
H  H25  1  0.15716602  0.18808612  0.46431541  1  0.119778  0  0.127197  0.121714  0  0.979484  0
H  H26  1  0.85235461  0.80968412  0.69245227  1  0.119875  0  0.126939  0.121278  0  0.979139  0
H  H27  1  0.03081223  0.84621596  0.62019974  1  0.125337  0  0.126797  0.120942  0  0.979317  0
H  H28  1  0.95724994  0.14911730  0.54414945  1  0.068953  0  0.127156  0.121566  0  0.97871  0
H  H29  1  0.81392606  0.97101345  0.65112012  1  0.11397  0  0.126675  0.121222  0  0.979235  0
H  H30  1  0.45580198  0.45729957  0.35336493  1  0.071095  0  0.127345  0.122007  0  0.979077  0
H  H31  1  0.34846255  0.31238222  0.53044934  1  0.091659  0  0.127022  0.121174  0  0.980022  0
H  H32  1  0.49781809  0.69019080  0.45775688  1  0.113898  0  0.126859  0.121089  0  0.979232  0
H  H33  1  0.53331053  0.65404469  0.31559814  1  0.105271  0  0.127408  0.121743  0  0.978563  0
H  H34  1  0.30733191  0.35072102  0.69164594  1  0.063099  0  0.126869  0.1216  0  0.979151  0
H  H35  1  0.37798792  0.52868407  0.65728897  1  0.083106  0  0.126803  0.121129  0  0.979337  0
H  H36  1  0.31016257  0.80821426  0.14646128  1  0.150652  0  0.127064  0.121096  0  0.978955  0
H  H37  1  0.34260394  0.87887253  0.96927264  1  0.124521  0  0.127066  0.121809  0  0.979074  0
H  H38  1  0.64732322  0.95554685  0.04294873  1  0.085765  0  0.126949  0.121062  0  0.979743  0
H  H39  1  0.46890083  0.84787198  0.18488279  1  0.104272  0  0.126827  0.121027  0  0.979482  0
H  H40  1  0.54220303  0.99909162  0.80840765  1  0.092664  0  0.126835  0.121178  0  0.979056  0
H  H41  1  0.68558758  0.03542490  0.84322193  1  0.090727  0  0.126555  0.121266  0  0.98071  0
H  H42  1  0.04401869  0.69029645  0.99891841  1  0.090476  0  0.127226  0.121481  0  0.97871  0
H  H43  1  0.15236874  0.62143641  0.03539674  1  0.109125  0  0.12658  0.120742  0  0.97912  0
H  H44  1  0.00239906  0.54479775  0.80731190  1  0.111724  0  0.126932  0.121076  0  0.979712  0
H  H45  1  0.96612387  0.65059194  0.87985208  1  0.104968  0  0.127241  0.120923  0  0.979498  0
H  H46  1  0.19266852  0.50070142  0.95646570  1  0.084942  0  0.126935  0.121021  0  0.97913  0
H  H47  1  0.12168200  0.46451545  0.84928929  1  0.099203  0  0.126865  0.121473  0  0.979791  0
H  H48  1  0.14638441  0.95698938  0.04561327  1  0.09787  0  0.126926  0.121251  0  0.979235  0
H  H49  1  0.96924663  0.81196527  0.15143932  1  0.118217  0  0.127193  0.12148  0  0.979059  0
H  H50  1  0.04192382  0.18994841  0.00227800  1  0.1103  0  0.126919  0.121253  0  0.978551  0
H  H51  1  0.18425717  0.15404373  0.96800614  1  0.11618  0  0.126533  0.120729  0  0.978339  0
H  H52  1  0.80788560  0.85010862  0.19302526  1  0.065943  0  0.126902  0.121109  0  0.978829  0
H  H53  1  0.84228787  0.02803604  0.12258962  1  0.087978  0  0.126795  0.121223  0  0.978401  0
H  H54  1  0.99705884  0.54252236  0.31082186  1  0.09053  0  0.126858  0.121456  0  0.979161  0
H  H55  1  0.03661823  0.68766775  0.34270403  1  0.112521  0  0.126948  0.121188  0  0.979666  0
H  H56  1  0.80795698  0.30982723  0.64813947  1  0.104224  0  0.126849  0.120805  0  0.979265  0
H  H57  1  0.87777840  0.34550487  0.47002855  1  0.098799  0  0.126733  0.120852  0  0.978506  0
H  H58  1  0.95737734  0.64954803  0.54233814  1  0.131376  0  0.126837  0.121476  0  0.978748  0
H  H59  1  0.84989221  0.47156168  0.68574587  1  0.093644  0  0.126482  0.120856  0  0.979685  0
H  H60  1  0.50380598  0.19292068  0.45350057  1  0.084731  0  0.127301  0.122134  0  0.97875  0
H  H61  1  0.46396663  0.12109843  0.34824095  1  0.088058  0  0.126987  0.121094  0  0.979332  0
H  H62  1  0.69207108  0.04380950  0.49842782  1  0.105364  0  0.127132  0.121499  0  0.978867  0
H  H63  1  0.62255141  0.15253541  0.53187324  1  0.095146  0  0.12669  0.120683  0  0.979084  0
H  H64  1  0.54305217  0.00037250  0.30759326  1  0.083433  0  0.126977  0.121102  0  0.97913  0
H  H65  1  0.65039200  0.96431865  0.37834993  1  0.115693  0  0.126606  0.1211  0  0.980038  0
H  H66  1  0.35389809  0.30981689  0.18896805  1  0.082046  0  0.127259  0.121948  0  0.978449  0
H  H67  1  0.53112937  0.37963633  0.15671457  1  0.114989  0  0.127191  0.121642  0  0.979013  0
H  H68  1  0.45795208  0.45536580  0.85160642  1  0.108203  0  0.127025  0.121308  0  0.979603  0
H  H69  1  0.31578201  0.34927796  0.02984030  1  0.114581  0  0.126711  0.120788  0  0.979493  0
H  H70  1  0.69223631  0.49936844  0.95724472  1  0.074041  0  0.126984  0.121435  0  0.979582  0
H  H71  1  0.65772843  0.53503155  0.81375124  1  0.077186  0  0.126501  0.120801  0  0.9795  0
C  C72  1  0.17138791  0.07192153  0.49764489  1  0.416522  0  0.016072  -0.048558  0  3.927857  0
C  C73  1  0.20012133  0.13320878  0.46804817  1  0.19396  0  -0.026772  0.049518  0  4.192422  0
C  C74  1  0.15461173  0.14596283  0.47894357  1  0.399566  0  0.016355  -0.049663  0  3.926667  0
C  C75  1  0.89931276  0.82904243  0.67007823  1  0.452129  0  0.016814  -0.048017  0  3.924214  0
C  C76  1  0.93278342  0.80134359  0.66838277  1  0.043139  0  -0.026216  0.050378  0  4.190265  0
C  C77  1  0.99072061  0.84769675  0.63309366  1  0.386347  0  0.0161  -0.048449  0  3.926852  0
C  C78  1  0.92917384  0.10215482  0.56903189  1  0.488533  0  0.015982  -0.048695  0  3.925054  0
C  C79  1  0.86795930  0.06906733  0.60063411  1  0.076644  0  -0.025987  0.051491  0  4.188444  0
C  C80  1  0.85578389  0.01091992  0.62381214  1  0.457132  0  0.016996  -0.048597  0  3.925576  0
C  C81  1  0.43074142  0.42871111  0.40018106  1  0.494844  0  0.015891  -0.049792  0  3.925883  0
C  C82  1  0.39930569  0.36743384  0.43265605  1  0.039675  0  -0.025496  0.051318  0  4.192466  0
C  C83  1  0.37576701  0.35454932  0.49093451  1  0.481857  0  0.016414  -0.048517  0  3.927239  0
C  C84  1  0.50080429  0.67094850  0.43006693  1  0.508103  0  0.017606  -0.046893  0  3.924735  0
C  C85  1  0.53012214  0.69872426  0.36891191  1  -0.022119  0  -0.027382  0.04785  0  4.193185  0
C  C86  1  0.51901960  0.65248569  0.35721086  1  0.482949  0  0.016184  -0.047978  0  3.925399  0
C  C87  1  0.32928570  0.39767075  0.67287300  1  0.500979  0  0.016706  -0.049113  0  3.925179  0
C  C88  1  0.33062703  0.43063845  0.70111222  1  0.093555  0  -0.026782  0.050335  0  4.189592  0
C  C89  1  0.36549341  0.48883081  0.65524897  1  0.430022  0  0.01695  -0.048352  0  3.925384  0
C  C90  1  0.32849215  0.83021098  0.09963185  1  0.370411  0  0.016948  -0.047529  0  3.927123  0
C  C91  1  0.29976565  0.83146842  0.06706778  1  0.092976  0  -0.026754  0.05034  0  4.195707  0
C  C92  1  0.34519750  0.86644566  0.00882679  1  0.411864  0  0.016579  -0.049489  0  3.926357  0
C  C93  1  0.60037005  0.93058670  0.07055363  1  0.478711  0  0.01716  -0.046979  0  3.924626  0
C  C94  1  0.56694825  0.89847363  0.13170376  1  0.099563  0  -0.026369  0.049837  0  4.191562  0
C  C95  1  0.50898923  0.87544166  0.14331715  1  0.40761  0  0.016308  -0.048541  0  3.927753  0
C  C96  1  0.57031391  0.00226796  0.82728287  1  0.499088  0  0.017136  -0.047366  0  3.924521  0
C  C97  1  0.63152989  0.03191255  0.79918708  1  0.099422  0  -0.026745  0.051263  0  4.189639  0
C  C98  1  0.64372581  0.02085853  0.84515625  1  0.42093  0  0.017155  -0.049397  0  3.927896  0
C  C99  1  0.06927781  0.66872010  0.00219067  1  0.424531  0  0.016406  -0.048082  0  3.927209  0
C  C100  1  0.10107227  0.66795966  0.03168580  1  0.148621  0  -0.026192  0.049077  0  4.194345  0
C  C101  1  0.12477640  0.63339858  0.02083033  1  0.429607  0  0.017542  -0.046004  0  3.925926  0
C  C102  1  0.99920638  0.56926444  0.82977490  1  0.443556  0  0.017571  -0.047037  0  3.925737  0
C  C103  1  0.96975300  0.60097636  0.83146685  1  0.093124  0  -0.027095  0.048998  0  4.193809  0
C  C104  1  0.98061074  0.62348529  0.86688985  1  0.418476  0  0.016523  -0.04663  0  3.926303  0
C  C105  1  0.17064953  0.49755521  0.93150601  1  0.4907  0  0.01698  -0.046758  0  3.924021  0
C  C106  1  0.16915406  0.46795041  0.89991622  1  0.094237  0  -0.026335  0.050253  0  4.190926  0
C  C107  1  0.13427181  0.47903375  0.87662212  1  0.412915  0  0.016773  -0.049124  0  3.92687  0
C  C108  1  0.09953872  0.92839603  0.07035949  1  0.357681  0  0.017243  -0.047289  0  3.92836  0
C  C109  1  0.06706116  0.86711351  0.10125614  1  0.204962  0  -0.026674  0.050059  0  4.194509  0
C  C110  1  0.00875090  0.85417375  0.12455286  1  0.395512  0  0.015878  -0.049357  0  3.926819  0
C  C111  1  0.06966598  0.17076193  0.99963760  1  0.448023  0  0.017154  -0.047424  0  3.924097  0
C  C112  1  0.13088588  0.19865764  0.97042461  1  0.158108  0  -0.026489  0.049958  0  4.189416  0
C  C113  1  0.14259772  0.15241353  0.98205464  1  0.421713  0  0.017047  -0.047324  0  3.92556  0
C  C114  1  0.82669037  0.89706332  0.17113512  1  0.496666  0  0.016977  -0.046786  0  3.923093  0
C  C115  1  0.79846940  0.93003216  0.16972930  1  0.11309  0  -0.026489  0.049948  0  4.191024  0
C  C116  1  0.84438041  0.98822240  0.13502617  1  0.436003  0  0.016575  -0.048393  0  3.92475  0
C  C117  1  0.00100243  0.57114915  0.32902113  1  0.430253  0  0.016787  -0.048624  0  3.927438  0
C  C118  1  0.03140585  0.63243350  0.30015494  1  0.155419  0  -0.026595  0.049787  0  4.194784  0
C  C119  1  0.02121075  0.64543702  0.34546403  1  0.430154  0  0.016495  -0.048045  0  3.927901  0
C  C120  1  0.82969929  0.32895281  0.60123175  1  0.449373  0  0.017728  -0.04623  0  3.924272  0
C  C121  1  0.83089029  0.30100712  0.56797897  1  0.079148  0  -0.026477  0.050584  0  4.189599  0
C  C122  1  0.86545102  0.34718855  0.51001238  1  0.43748  0  0.016367  -0.04847  0  3.926033  0
C  C123  1  0.93229465  0.60258730  0.57043951  1  0.445317  0  0.016665  -0.048975  0  3.92578  0
C  C124  1  0.90076824  0.56958662  0.63162218  1  0.085645  0  -0.027038  0.049851  0  4.192572  0
C  C125  1  0.87724210  0.51141158  0.64387813  1  0.420935  0  0.017078  -0.047531  0  3.925282  0
C  C126  1  0.49977380  0.17068184  0.42890662  1  0.423276  0  0.01656  -0.049332  0  3.926729  0
C  C127  1  0.46927925  0.16905917  0.39807615  1  0.182933  0  -0.02684  0.050994  0  4.191693  0
C  C128  1  0.47941939  0.13383210  0.37500682  1  0.422171  0  0.017448  -0.047245  0  3.926378  0
C  C129  1  0.67042760  0.06909249  0.50084204  1  0.442431  0  0.017712  -0.046234  0  3.922923  0
C  C130  1  0.66921022  0.10122132  0.52990816  1  0.083541  0  -0.026601  0.049006  0  4.191254  0
C  C131  1  0.63482972  0.12478693  0.51799444  1  0.448104  0  0.016924  -0.046951  0  3.927188  0
C  C132  1  0.56810776  0.99734228  0.32952215  1  0.489562  0  0.016977  -0.047021  0  3.923588  0
C  C133  1  0.59957594  0.96762134  0.33109273  1  0.078343  0  -0.026678  0.050103  0  4.190036  0
C  C134  1  0.62307732  0.97888056  0.36578188  1  0.417084  0  0.016756  -0.048779  0  3.92676  0
C  C135  1  0.40074638  0.33157061  0.17069510  1  0.435091  0  0.016247  -0.049396  0  3.928139  0
C  C136  1  0.43327101  0.33266094  0.19947846  1  0.135201  0  -0.02665  0.049001  0  4.193089  0
C  C137  1  0.49157551  0.36739459  0.15407697  1  0.432458  0  0.016855  -0.047618  0  3.925897  0
C  C138  1  0.43026183  0.43079827  0.89852623  1  0.432938  0  0.017369  -0.047013  0  3.924997  0
C  C139  1  0.36904871  0.39913010  0.93189139  1  0.10467  0  -0.026462  0.049878  0  4.191754  0
C  C140  1  0.35741940  0.37645373  0.98980639  1  0.422883  0  0.016471  -0.047784  0  3.926739  0
C  C141  1  0.67339746  0.50238275  0.92910676  1  0.423736  0  0.016561  -0.047584  0  3.924015  0
C  C142  1  0.70158895  0.53185249  0.86793454  1  0.179439  0  -0.026099  0.049817  0  4.192013  0
C  C143  1  0.65566231  0.52061861  0.85564782  1  0.461235  0  0.017306  -0.046854  0  3.925458  0
C  C144  1  0.87648011  0.62633881  0.74972211  1  0.316575  0  0.065011  0.325662  0  4.093639  0
C  C145  1  0.62361575  0.87364003  0.25017610  1  0.356973  0  0.064426  0.325554  0  4.092895  0
C  C146  1  0.74982509  0.12588931  0.62437982  1  0.371092  0  0.065043  0.327704  0  4.086913  0
C  C147  1  0.24984468  0.37374129  0.87601379  1  0.358561  0  0.064537  0.326356  0  4.088877  0
C  C148  1  0.37541064  0.25034788  0.37457169  1  0.332473  0  0.066014  0.327878  0  4.093592  0
C  C149  1  0.12460871  0.74965595  0.12513432  1  0.343544  0  0.065742  0.328157  0  4.096509  0
C  C150  1  0.26045299  0.17285596  0.43544810  1  -0.363888  0  -0.049047  -0.086302  0  4.181406  0
C  C151  1  0.31238863  0.20742452  0.40747416  1  0.050282  0  -0.047021  -0.121293  0  3.977159  0
C  C152  1  0.39225574  0.32783450  0.41195753  1  -0.196668  0  -0.050447  -0.087858  0  4.183787  0
C  C153  1  0.38551991  0.29321375  0.39468575  1  -0.053219  0  -0.046206  -0.120581  0  3.980657  0
C  C154  1  0.23948403  0.80375378  0.08771575  1  -0.100177  0  -0.049873  -0.08778  0  4.184755  0
C  C155  1  0.18757016  0.77977493  0.10505731  1  -0.156334  0  -0.045867  -0.11996  0  3.979625  0
C  C156  1  0.10809026  0.69568238  0.06424425  1  -0.330787  0  -0.050303  -0.087631  0  4.184021  0
C  C157  1  0.11460377  0.71959340  0.09224897  1  0.057094  0  -0.046133  -0.120099  0  3.979244  0
C  C158  1  0.91305930  0.74117069  0.69597321  1  -0.452942  0  -0.0499  -0.088128  0  4.181737  0
C  C159  1  0.89627069  0.68932792  0.71989340  1  0.275973  0  -0.046063  -0.119555  0  3.977377  0
C  C160  1  0.93730306  0.60893824  0.80374460  1  -0.243152  0  -0.050127  -0.088452  0  4.183251  0
C  C161  1  0.90952875  0.61627718  0.77968504  1  -0.015074  0  -0.045598  -0.118834  0  3.978509  0
C  C162  1  0.56265113  0.75887622  0.32851904  1  -0.304898  0  -0.050092  -0.087631  0  4.183105  0
C  C163  1  0.59051905  0.81067328  0.29336161  1  0.055294  0  -0.046077  -0.120091  0  3.978182  0
C  C164  1  0.58676127  0.89066884  0.17210282  1  -0.473582  0  -0.049737  -0.088313  0  4.181581  0
C  C165  1  0.60367800  0.88361291  0.20707228  1  0.229126  0  -0.04581  -0.119104  0  3.976768  0
C  C166  1  0.82786494  0.08916557  0.60793064  1  0.017433  0  -0.050365  -0.088759  0  4.179436  0
C  C167  1  0.79292498  0.10602825  0.61468677  1  -0.314743  0  -0.045665  -0.119748  0  3.975237  0
C  C168  1  0.67161081  0.06467194  0.73902166  1  -0.360855  0  -0.050132  -0.088532  0  4.179522  0
C  C169  1  0.70660284  0.09273831  0.68725827  1  0.090934  0  -0.045887  -0.120008  0  3.975205  0
C  C170  1  0.19652673  0.43514484  0.89266021  1  -0.543571  0  -0.049997  -0.087404  0  4.179604  0
C  C171  1  0.22016944  0.40699566  0.88586595  1  0.276053  0  -0.045804  -0.120471  0  3.976042  0
C  C172  1  0.30315608  0.41041727  0.76130676  1  -0.310303  0  -0.050572  -0.088038  0  4.179632  0
C  C173  1  0.27944728  0.39349936  0.81310456  1  0.048202  0  -0.045287  -0.119551  0  3.975899  0
C  C174  1  0.08766436  0.82745491  0.10820355  1  -0.275275  0  -0.049317  -0.087246  0  4.184504  0
C  C175  1  0.10463144  0.79260342  0.11506430  1  0.024715  0  -0.046908  -0.121243  0  3.979882  0
C  C176  1  0.06397412  0.67200185  0.23988564  1  -0.157183  0  -0.049918  -0.087538  0  4.183661  0
C  C177  1  0.09181380  0.70671841  0.18804264  1  -0.115617  0  -0.045968  -0.120147  0  3.978789  0
C  C178  1  0.43653426  0.19661423  0.39116544  1  -0.484384  0  -0.049921  -0.087992  0  4.181813  0
C  C179  1  0.40838172  0.22032500  0.38451613  1  0.209739  0  -0.046126  -0.120601  0  3.977561  0
C  C180  1  0.41262364  0.30481429  0.25976338  1  0.145149  0  -0.049909  -0.086945  0  4.180839  0
C  C181  1  0.39541037  0.28059204  0.31163389  1  -0.418495  0  -0.046215  -0.1203  0  3.97656  0
C  C182  1  0.17133153  0.25888082  0.93751780  1  -0.368939  0  -0.049908  -0.088495  0  4.179816  0
C  C183  1  0.20655940  0.31071008  0.90932053  1  0.061246  0  -0.046006  -0.1195  0  3.974346  0
C  C184  1  0.32853131  0.39127730  0.91217313  1  -0.457903  0  -0.050097  -0.088619  0  4.178998  0
C  C185  1  0.29322960  0.38395931  0.89564727  1  0.188781  0  -0.045233  -0.118352  0  3.973756  0
C  C186  1  0.80344780  0.24077023  0.58784506  1  -0.088583  0  -0.05047  -0.089467  0  4.179706  0
C  C187  1  0.77968109  0.18892245  0.60455095  1  -0.159818  0  -0.04524  -0.118613  0  3.973497  0
C  C188  1  0.69648525  0.10875037  0.56286783  1  -0.243227  0  -0.050263  -0.088216  0  4.179502  0
C  C189  1  0.72011743  0.11581155  0.59107277  1  -0.017389  0  -0.045766  -0.119811  0  3.97293  0
C  C190  1  0.73827838  0.90994536  0.19699743  1  -0.293513  0  -0.050888  -0.089464  0  4.180078  0
C  C191  1  0.68653247  0.89338094  0.22048059  1  0.026832  0  -0.044835  -0.117336  0  3.974235  0
C  C192  1  0.60675971  0.93477277  0.30375053  1  -0.300592  0  -0.049724  -0.087443  0  4.180812  0
C  C193  1  0.61371058  0.90678918  0.27995194  1  0.030079  0  -0.045911  -0.120116  0  3.977464  0
C  C194  1  0.76178045  0.56473234  0.82787167  1  -0.057906  0  -0.049599  -0.086829  0  4.179941  0
C  C195  1  0.81354501  0.59302655  0.79278173  1  -0.224087  0  -0.046309  -0.1204  0  3.976164  0
C  C196  1  0.89355633  0.58975066  0.67164145  1  -0.475712  0  -0.050119  -0.088368  0  4.182923  0
C  C197  1  0.88656077  0.60656089  0.70660394  1  0.245875  0  -0.0456  -0.118909  0  3.976804  0
N  N198  1  0.10299398  0.09605468  0.51241015  1  -0.768584  0  -0.334264  -0.138074  0  3.771393  0
N  N199  1  0.11341920  0.05020828  0.52397958  1  -0.782561  0  -0.335757  -0.140197  0  3.778969  0
N  N200  1  0.99135576  0.89875991  0.61538014  1  -0.76618  0  -0.336029  -0.140781  0  3.780252  0
N  N201  1  0.93474665  0.88724525  0.63827931  1  -0.789981  0  -0.33418  -0.13927  0  3.771282  0
N  N202  1  0.90591393  0.00976935  0.60719884  1  -0.764922  0  -0.33498  -0.140099  0  3.773352  0
N  N203  1  0.95140952  0.06631697  0.57324384  1  -0.781417  0  -0.334555  -0.140202  0  3.772734  0
N  N204  1  0.39202226  0.40439227  0.49274265  1  -0.770934  0  -0.334977  -0.139474  0  3.773738  0
N  N205  1  0.42606091  0.45029176  0.43652746  1  -0.7774  0  -0.336699  -0.139433  0  3.780083  0
N  N206  1  0.48568966  0.60137416  0.40758082  1  -0.791118  0  -0.336667  -0.139582  0  3.782809  0
N  N207  1  0.47438391  0.61276411  0.45272665  1  -0.793817  0  -0.334979  -0.13978  0  3.773662  0
N  N208  1  0.38332035  0.49011514  0.60392530  1  -0.762131  0  -0.335457  -0.140683  0  3.775  0
N  N209  1  0.36088165  0.43362239  0.61484134  1  -0.784123  0  -0.334647  -0.138979  0  3.772595  0
N  N210  1  0.39681353  0.88444854  0.00713248  1  -0.777725  0  -0.335343  -0.138715  0  3.774466  0
N  N211  1  0.38644174  0.86199895  0.06337002  1  -0.7681  0  -0.336885  -0.14045  0  3.781957  0
N  N212  1  0.50831410  0.89262132  0.09290823  1  -0.777939  0  -0.336747  -0.139649  0  3.781376  0
N  N213  1  0.56489266  0.92678133  0.04780095  1  -0.777148  0  -0.334434  -0.1404  0  3.770594  0
N  N214  1  0.59360911  0.98726708  0.89641828  1  -0.768339  0  -0.334536  -0.138928  0  3.772279  0
N  N215  1  0.54812515  0.97575123  0.88532631  1  -0.808928  0  -0.335798  -0.140967  0  3.776437  0
N  N216  1  0.10824378  0.61514186  0.98746780  1  -0.770719  0  -0.335085  -0.140738  0  3.774911  0
N  N217  1  0.07388651  0.63703653  0.97594612  1  -0.787507  0  -0.337263  -0.140011  0  3.782845  0
N  N218  1  0.01391248  0.60638219  0.88469228  1  -0.773286  0  -0.337138  -0.14059  0  3.783491  0
N  N219  1  0.02546201  0.57280853  0.86172449  1  -0.781776  0  -0.334937  -0.139898  0  3.774045  0
N  N220  1  0.11657428  0.51260416  0.89315074  1  -0.759829  0  -0.335382  -0.13986  0  3.77649  0
N  N221  1  0.13911628  0.52409043  0.92716040  1  -0.791891  0  -0.335271  -0.140902  0  3.776238  0
N  N222  1  0.00692521  0.90399009  0.10867650  1  -0.780104  0  -0.33485  -0.138314  0  3.774163  0
N  N223  1  0.06316405  0.94995242  0.07510956  1  -0.766684  0  -0.336153  -0.141319  0  3.779927  0
N  N224  1  0.09223216  0.10124654  0.01553978  1  -0.767996  0  -0.335935  -0.140457  0  3.778423  0
N  N225  1  0.04701755  0.11257085  0.02645714  1  -0.807405  0  -0.334573  -0.139723  0  3.76955  0
N  N226  1  0.89573543  0.98953652  0.11732485  1  -0.781556  0  -0.334369  -0.139468  0  3.77248  0
N  N227  1  0.88476742  0.93303266  0.13970823  1  -0.780915  0  -0.335451  -0.141496  0  3.775198  0
N  N228  1  0.98733223  0.59565274  0.39713246  1  -0.78577  0  -0.334947  -0.139248  0  3.774578  0
N  N229  1  0.97482868  0.54965431  0.38692489  1  -0.783692  0  -0.336016  -0.140119  0  3.77885  0
N  N230  1  0.88322365  0.39838940  0.50913452  1  -0.770076  0  -0.336729  -0.140795  0  3.781244  0
N  N231  1  0.86109479  0.38713133  0.56563025  1  -0.786611  0  -0.334394  -0.140288  0  3.772518  0
N  N232  1  0.89354621  0.51014489  0.59382558  1  -0.768905  0  -0.334384  -0.139686  0  3.772251  0
N  N233  1  0.92766506  0.56665786  0.54831184  1  -0.785191  0  -0.334944  -0.139669  0  3.773684  0
N  N234  1  0.51330567  0.11604461  0.39095522  1  -0.767789  0  -0.335416  -0.141075  0  3.775279  0
N  N235  1  0.52590018  0.13888658  0.42434179  1  -0.786878  0  -0.335937  -0.140071  0  3.778424  0
N  N236  1  0.61718073  0.10792086  0.48447884  1  -0.766851  0  -0.336288  -0.141783  0  3.780655  0
N  N237  1  0.63921653  0.07341023  0.47383334  1  -0.779922  0  -0.335086  -0.140513  0  3.771242  0
N  N238  1  0.60681151  0.01268623  0.38328109  1  -0.765331  0  -0.334973  -0.140409  0  3.772991  0
N  N239  1  0.57273624  0.02413287  0.36080498  1  -0.788164  0  -0.334621  -0.140291  0  3.773083  0
N  N240  1  0.49332907  0.38535222  0.10245996  1  -0.766212  0  -0.335602  -0.140942  0  3.776149  0
N  N241  1  0.43706415  0.36315594  0.11276505  1  -0.790781  0  -0.335415  -0.138886  0  3.777113  0
N  N242  1  0.40782919  0.39338368  0.99056752  1  -0.771784  0  -0.336201  -0.140377  0  3.776636  0
N  N243  1  0.45298607  0.42705821  0.93402075  1  -0.777654  0  -0.334607  -0.140949  0  3.771008  0
N  N244  1  0.60432336  0.48710256  0.90567424  1  -0.795873  0  -0.335583  -0.141987  0  3.775537  0
N  N245  1  0.61531587  0.47579798  0.95120713  1  -0.781782  0  -0.334772  -0.14019  0  3.774091  0
