# generated using pymatgen
data_Sn2PH3C3O7
_symmetry_space_group_name_H-M   'P 1'
_cell_length_a   4.73449543
_cell_length_b   6.10495795
_cell_length_c   15.09478737
_cell_angle_alpha   89.99848260
_cell_angle_beta   89.99940201
_cell_angle_gamma   99.65135410
_symmetry_Int_Tables_number   1
_chemical_formula_structural   Sn2PH3C3O7
_chemical_formula_sum   'Sn4 P2 H6 C6 O14'
_cell_volume   430.12286519
_cell_formula_units_Z   2
loop_
 _symmetry_equiv_pos_site_id
 _symmetry_equiv_pos_as_xyz
  1  'x, y, z'
loop_
 _atom_site_type_symbol
 _atom_site_label
 _atom_site_symmetry_multiplicity
 _atom_site_fract_x
 _atom_site_fract_y
 _atom_site_fract_z
 _atom_site_occupancy
 _atom_site_hle17_bader_spin_density
 _atom_site_hle17_ddec_charge
 _atom_site_hle17_ddec_spin_density
 _atom_site_hle17_ddec_sum_bond_order
 _atom_site_hle17_magmom
 _atom_site_hse06_10hf_bader_spin_density
 _atom_site_hse06_10hf_ddec_charge
 _atom_site_hse06_10hf_ddec_spin_density
 _atom_site_hse06_10hf_ddec_sum_bond_order
 _atom_site_hse06_10hf_magmom
 _atom_site_hse06_bader_spin_density
 _atom_site_hse06_ddec_charge
 _atom_site_hse06_ddec_spin_density
 _atom_site_hse06_ddec_sum_bond_order
 _atom_site_hse06_magmom
 _atom_site_pbe_bader_spin_density
 _atom_site_pbe_cm5_charge
 _atom_site_pbe_ddec_charge
 _atom_site_pbe_ddec_spin_density
 _atom_site_pbe_ddec_sum_bond_order
 _atom_site_pbe_magmom
Sn  Sn0  1  0.20278641  0.10266661  0.60417066  1  0  1.145939  0  1.896935  0  0  0.962158  0  2.34167  0  0  1.00559  0  2.312063  0  0  0.558788  0.930727  0  2.362697  0
Sn  Sn1  1  0.79723516  0.89720888  0.10415501  1  0  1.145683  0  1.897433  0  0  0.961941  0  2.342214  0  0  1.005335  0  2.312623  0  0  0.558723  0.93053  0  2.363219  0
Sn  Sn2  1  0.79721512  0.89720436  0.39581927  1  0  1.145845  0  1.897204  0  0  0.962162  0  2.342026  0  0  1.00558  0  2.312431  0  0  0.558746  0.930626  0  2.363189  0
Sn  Sn3  1  0.20277397  0.10277714  0.89581372  1  0  1.145893  0  1.897051  0  0  0.962211  0  2.341846  0  0  1.005643  0  2.312244  0  0  0.558812  0.930722  0  2.362938  0
P  P4  1  0.76122829  0.27588859  0.74999754  1  0  1.563621  0  4.721714  0  0  1.413694  0  5.193679  0  0  1.464614  0  5.155678  0  0  0.370162  1.378163  0  5.219016  0
P  P5  1  0.23877662  0.72409751  0.25000034  1  0  1.563671  0  4.721527  0  0  1.413759  0  5.193453  0  0  1.464664  0  5.155466  0  0  0.370228  1.378224  0  5.218775  0
H  H6  1  0.87318467  0.64431209  0.80937205  1  0  0.154555  0  0.975055  0  0  0.167435  0  1.045365  0  0  0.169831  0  1.045547  0  0  0.098939  0.165657  0  1.045437  0
H  H7  1  0.12680109  0.35569207  0.30936484  1  0  0.154536  0  0.974989  0  0  0.167467  0  1.045261  0  0  0.169864  0  1.045442  0  0  0.09895  0.165686  0  1.045332  0
H  H8  1  0.12680504  0.35569770  0.19064439  1  0  0.154587  0  0.975001  0  0  0.167497  0  1.045298  0  0  0.169896  0  1.04548  0  0  0.099002  0.165721  0  1.045364  0
H  H9  1  0.87319865  0.64433255  0.69065358  1  0  0.154498  0  0.975177  0  0  0.167379  0  1.04551  0  0  0.169779  0  1.045691  0  0  0.098959  0.165608  0  1.045574  0
H  H10  1  0.53994618  0.60043805  0.75001111  1  0  0.181673  0  0.928439  0  0  0.201291  0  0.97786  0  0  0.204419  0  0.976753  0  0  0.108646  0.199011  0  0.978761  0
H  H11  1  0.46004731  0.39956999  0.25000466  1  0  0.181749  0  0.928366  0  0  0.201306  0  0.977867  0  0  0.20443  0  0.976766  0  0  0.108643  0.199026  0  0.978764  0
C  C12  1  0.76197636  0.57038844  0.75001436  1  0  -0.635102  0  3.592652  0  0  -0.689802  0  3.824217  0  0  -0.700551  0  3.824232  0  0  -0.248241  -0.68226  0  3.824328  0
C  C13  1  0.23803437  0.42962092  0.25000671  1  0  -0.635236  0  3.592663  0  0  -0.68996  0  3.8242  0  0  -0.700709  0  3.824216  0  0  -0.248235  -0.682409  0  3.824321  0
C  C14  1  0.42497371  0.57393809  0.53110270  1  0  0.54512  0  3.875649  0  0  0.495856  0  4.163603  0  0  0.526717  0  4.155704  0  0  0.229762  0.474866  0  4.168261  0
C  C15  1  0.57503704  0.42607618  0.03109836  1  0  0.544994  0  3.875934  0  0  0.495783  0  4.163824  0  0  0.526631  0  4.155928  0  0  0.229686  0.474812  0  4.168476  0
C  C16  1  0.57496016  0.42605117  0.46889518  1  0  0.545279  0  3.876013  0  0  0.496074  0  4.163997  0  0  0.526933  0  4.156091  0  0  0.229824  0.475064  0  4.168652  0
C  C17  1  0.42504247  0.57398016  0.96888959  1  0  0.545162  0  3.876369  0  0  0.495937  0  4.164319  0  0  0.526799  0  4.156422  0  0  0.22967  0.474938  0  4.168969  0
O  O18  1  0.61787342  0.17468603  0.83604190  1  0  -0.840304  0  2.067385  0  0  -0.731528  0  2.331222  0  0  -0.760388  0  2.31495  0  0  -0.332979  -0.710974  0  2.34198  0
O  O19  1  0.38212351  0.82527434  0.33603791  1  0  -0.84031  0  2.067387  0  0  -0.731551  0  2.331238  0  0  -0.76041  0  2.314972  0  0  -0.332911  -0.710978  0  2.341976  0
O  O20  1  0.38216729  0.82528264  0.16396460  1  0  -0.840225  0  2.067206  0  0  -0.731487  0  2.33108  0  0  -0.760338  0  2.314808  0  0  -0.332986  -0.710944  0  2.341833  0
O  O21  1  0.61784139  0.17473764  0.66396660  1  0  -0.840218  0  2.067232  0  0  -0.731486  0  2.331129  0  0  -0.76035  0  2.314855  0  0  -0.332943  -0.710942  0  2.341887  0
O  O22  1  0.07438907  0.22839921  0.74998993  1  0  -0.852963  0  2.01199  0  0  -0.738697  0  2.260692  0  0  -0.769105  0  2.245565  0  0  -0.324321  -0.716934  0  2.270411  0
O  O23  1  0.92558230  0.77156255  0.25000398  1  0  -0.852994  0  2.011565  0  0  -0.738731  0  2.260239  0  0  -0.769133  0  2.245118  0  0  -0.3245  -0.716964  0  2.269953  0
O  O24  1  0.49996381  0.78148728  0.52400823  1  0  -0.58862  0  2.176818  0  0  -0.513297  0  2.421543  0  0  -0.541528  0  2.419626  0  0  -0.248421  -0.49348  0  2.422421  0
O  O25  1  0.50002584  0.21855128  0.02400846  1  0  -0.588443  0  2.176779  0  0  -0.513233  0  2.421559  0  0  -0.541458  0  2.41965  0  0  -0.248383  -0.493441  0  2.422439  0
O  O26  1  0.49993717  0.21853105  0.47599164  1  0  -0.588756  0  2.177415  0  0  -0.513376  0  2.422117  0  0  -0.541604  0  2.420207  0  0  -0.248445  -0.49354  0  2.422979  0
O  O27  1  0.50003478  0.78149711  0.97598743  1  0  -0.588701  0  2.177569  0  0  -0.513333  0  2.422265  0  0  -0.541558  0  2.420356  0  0  -0.248387  -0.49352  0  2.423137  0
O  O28  1  0.23777775  0.47813671  0.58496444  1  0  -0.545452  0  2.075424  0  0  -0.473953  0  2.313183  0  0  -0.499985  0  2.30719  0  0  -0.259292  -0.455853  0  2.316855  0
O  O29  1  0.76224075  0.52186704  0.08494731  1  0  -0.545242  0  2.07607  0  0  -0.473744  0  2.313852  0  0  -0.49974  0  2.307836  0  0  -0.259149  -0.455672  0  2.31754  0
O  O30  1  0.76213726  0.52183624  0.41503543  1  0  -0.545089  0  2.075808  0  0  -0.473882  0  2.313833  0  0  -0.499918  0  2.307841  0  0  -0.259177  -0.455732  0  2.317489  0
O  O31  1  0.23788074  0.47820512  0.91503467  1  0  -0.54515  0  2.075898  0  0  -0.473891  0  2.313867  0  0  -0.499949  0  2.307895  0  0  -0.259171  -0.455736  0  2.317497  0
