# generated using pymatgen
data_CdH26C30SN2O7
_symmetry_space_group_name_H-M   'P 1'
_cell_length_a   7.93400006
_cell_length_b   12.19341103
_cell_length_c   14.74008377
_cell_angle_alpha   78.35052623
_cell_angle_beta   81.70316080
_cell_angle_gamma   74.35912142
_symmetry_Int_Tables_number   1
_chemical_formula_structural   CdH26C30SN2O7
_chemical_formula_sum   'Cd2 H52 C60 S2 N4 O14'
_cell_volume   1338.78448674
_cell_formula_units_Z   2
loop_
 _symmetry_equiv_pos_site_id
 _symmetry_equiv_pos_as_xyz
  1  'x, y, z'
loop_
 _atom_site_type_symbol
 _atom_site_label
 _atom_site_symmetry_multiplicity
 _atom_site_fract_x
 _atom_site_fract_y
 _atom_site_fract_z
 _atom_site_occupancy
 _atom_site_hle17_bader_spin_density
 _atom_site_hle17_ddec_charge
 _atom_site_hle17_ddec_spin_density
 _atom_site_hle17_ddec_sum_bond_order
 _atom_site_hle17_magmom
 _atom_site_hse06_10hf_bader_spin_density
 _atom_site_hse06_10hf_ddec_charge
 _atom_site_hse06_10hf_ddec_spin_density
 _atom_site_hse06_10hf_ddec_sum_bond_order
 _atom_site_hse06_10hf_magmom
 _atom_site_hse06_bader_spin_density
 _atom_site_hse06_ddec_charge
 _atom_site_hse06_ddec_spin_density
 _atom_site_hse06_ddec_sum_bond_order
 _atom_site_hse06_magmom
 _atom_site_pbe_bader_spin_density
 _atom_site_pbe_cm5_charge
 _atom_site_pbe_ddec_charge
 _atom_site_pbe_ddec_spin_density
 _atom_site_pbe_ddec_sum_bond_order
 _atom_site_pbe_magmom
Cd  Cd0  1  0.27016326  0.08520674  0.00909008  1  0  1.174369  0  1.660062  0  0  0.98518  0  2.102494  0  0  1.040738  0  2.04902  0  0  0.782948  0.94563  0  2.139194  0
Cd  Cd1  1  0.72983714  0.91479143  0.99091625  1  0  1.174371  0  1.660031  0  0  0.985182  0  2.102448  0  0  1.040741  0  2.048974  0  0  0.78294  0.945634  0  2.139148  0
H  H2  1  0.35665596  0.25321750  0.13872748  1  0  0.089522  0  0.954218  0  0  0.100021  0  1.016615  0  0  0.102373  0  1.013796  0  0  0.116789  0.098261  0  1.018688  0
H  H3  1  0.64333959  0.74678326  0.86127542  1  0  0.089552  0  0.95423  0  0  0.100054  0  1.016608  0  0  0.102406  0  1.013788  0  0  0.116824  0.098294  0  1.01868  0
H  H4  1  0.14670219  0.64142977  0.83222830  1  0  0.091915  0  0.984765  0  0  0.103082  0  1.047664  0  0  0.104416  0  1.049248  0  0  0.101155  0.101975  0  1.046797  0
H  H5  1  0.85329432  0.35856840  0.16777428  1  0  0.091888  0  0.984855  0  0  0.103048  0  1.047771  0  0  0.104395  0  1.049341  0  0  0.101142  0.101957  0  1.046884  0
H  H6  1  0.06405803  0.57010988  0.70693425  1  0  0.095484  0  0.964407  0  0  0.108321  0  1.021893  0  0  0.110337  0  1.022156  0  0  0.104565  0.106821  0  1.021857  0
H  H7  1  0.93594733  0.42989174  0.29306498  1  0  0.095436  0  0.964458  0  0  0.108272  0  1.021953  0  0  0.110288  0  1.022216  0  0  0.104539  0.106773  0  1.021916  0
H  H8  1  0.07601663  0.07543558  0.82717153  1  0  0.081253  0  0.968049  0  0  0.089405  0  1.035104  0  0  0.091305  0  1.033651  0  0  0.114281  0.087969  0  1.036176  0
H  H9  1  0.92398364  0.92456604  0.17282744  1  0  0.081304  0  0.968012  0  0  0.089417  0  1.035103  0  0  0.091317  0  1.033648  0  0  0.114283  0.087981  0  1.036175  0
H  H10  1  0.47612478  0.50073014  0.14320231  1  0  0.108288  0  0.971532  0  0  0.128751  0  1.035372  0  0  0.129174  0  1.036753  0  0  0.090662  0.128383  0  1.034467  0
H  H11  1  0.52387672  0.49927148  0.85679385  1  0  0.108309  0  0.971484  0  0  0.128761  0  1.035348  0  0  0.129185  0  1.036728  0  0  0.09069  0.128391  0  1.034444  0
H  H12  1  0.38125267  0.39476572  0.21765942  1  0  0.108583  0  0.958007  0  0  0.127278  0  1.022951  0  0  0.128167  0  1.02308  0  0  0.089418  0.126562  0  1.022905  0
H  H13  1  0.61875078  0.60523417  0.78233890  1  0  0.10856  0  0.958046  0  0  0.127257  0  1.02298  0  0  0.128146  0  1.02311  0  0  0.089424  0.126542  0  1.022933  0
H  H14  1  0.25332239  0.53830731  0.18709134  1  0  0.113649  0  0.963768  0  0  0.133797  0  1.026372  0  0  0.134606  0  1.027  0  0  0.093777  0.133154  0  1.025997  0
H  H15  1  0.74667721  0.46169603  0.81290672  1  0  0.11357  0  0.963841  0  0  0.133737  0  1.026443  0  0  0.134545  0  1.027074  0  0  0.093741  0.133093  0  1.02607  0
H  H16  1  0.26757365  0.66322746  0.05470364  1  0  0.134858  0  0.974427  0  0  0.155144  0  1.032044  0  0  0.157737  0  1.030647  0  0  0.097086  0.153248  0  1.033102  0
H  H17  1  0.73241935  0.33677330  0.94529947  1  0  0.134884  0  0.974398  0  0  0.155178  0  1.032  0  0  0.157774  0  1.030595  0  0  0.097083  0.153282  0  1.033058  0
H  H18  1  0.11076052  0.69519296  0.97245617  1  0  0.118073  0  0.959367  0  0  0.135552  0  1.028099  0  0  0.136647  0  1.028526  0  0  0.09325  0.134735  0  1.027833  0
H  H19  1  0.88923151  0.30480694  0.02754580  1  0  0.118108  0  0.959402  0  0  0.135577  0  1.028117  0  0  0.13667  0  1.028548  0  0  0.093242  0.13476  0  1.027852  0
H  H20  1  0.33588473  0.66885708  0.93479036  1  0  0.113037  0  0.95526  0  0  0.136899  0  1.016645  0  0  0.137094  0  1.018102  0  0  0.094827  0.136717  0  1.01565  0
H  H21  1  0.66411144  0.33114195  0.06521074  1  0  0.113041  0  0.955277  0  0  0.136931  0  1.016594  0  0  0.137126  0  1.018053  0  0  0.094838  0.13675  0  1.015599  0
H  H22  1  0.02877188  0.37089626  0.56001099  1  0  0.115338  0  0.959669  0  0  0.136826  0  1.020212  0  0  0.138418  0  1.01991  0  0  0.093741  0.13562  0  1.020492  0
H  H23  1  0.97122717  0.62910191  0.43999071  1  0  0.115388  0  0.959652  0  0  0.136866  0  1.020203  0  0  0.138461  0  1.019899  0  0  0.09378  0.135659  0  1.020485  0
H  H24  1  0.09445300  0.48331520  0.59376334  1  0  0.113058  0  0.946226  0  0  0.13491  0  1.005829  0  0  0.136387  0  1.005391  0  0  0.094337  0.133837  0  1.00613  0
H  H25  1  0.90554922  0.51668469  0.40623780  1  0  0.113035  0  0.946305  0  0  0.134925  0  1.005855  0  0  0.1364  0  1.005417  0  0  0.094361  0.133851  0  1.006157  0
H  H26  1  0.87323523  0.47388541  0.61831097  1  0  0.13363  0  0.956065  0  0  0.153963  0  1.017505  0  0  0.15589  0  1.016809  0  0  0.097506  0.152599  0  1.017936  0
H  H27  1  0.12676118  0.52611621  0.38168628  1  0  0.133652  0  0.956069  0  0  0.153981  0  1.017503  0  0  0.155907  0  1.016807  0  0  0.09751  0.152617  0  1.017933  0
H  H28  1  0.86147949  0.22294666  0.63195934  1  0  0.106771  0  0.971042  0  0  0.128578  0  1.031907  0  0  0.128461  0  1.034123  0  0  0.089109  0.128578  0  1.030426  0
H  H29  1  0.13852145  0.77705324  0.36804123  1  0  0.106755  0  0.971047  0  0  0.12857  0  1.031908  0  0  0.128453  0  1.034123  0  0  0.08911  0.12857  0  1.030426  0
H  H30  1  0.99033639  0.08689902  0.68121396  1  0  0.109359  0  0.963807  0  0  0.129842  0  1.024019  0  0  0.130134  0  1.025548  0  0  0.089748  0.129518  0  1.023024  0
H  H31  1  0.00966328  0.91310088  0.31878739  1  0  0.109306  0  0.96388  0  0  0.12982  0  1.024049  0  0  0.130108  0  1.025583  0  0  0.089747  0.129497  0  1.023055  0
H  H32  1  0.08560444  0.17771168  0.58999861  1  0  0.115211  0  0.958332  0  0  0.135272  0  1.020962  0  0  0.136177  0  1.021013  0  0  0.091917  0.134565  0  1.020943  0
H  H33  1  0.91439521  0.82228821  0.41000138  1  0  0.115286  0  0.958269  0  0  0.13531  0  1.020947  0  0  0.136215  0  1.020999  0  0  0.091937  0.134601  0  1.02093  0
H  H34  1  0.71541521  0.10822854  0.19017642  1  0  0.110473  0  0.974714  0  0  0.119169  0  1.039189  0  0  0.122837  0  1.036515  0  0  0.108329  0.116477  0  1.041246  0
H  H35  1  0.28458886  0.89176962  0.80982012  1  0  0.110503  0  0.974772  0  0  0.119197  0  1.039235  0  0  0.122866  0  1.036557  0  0  0.108335  0.116503  0  1.041293  0
H  H36  1  0.45507797  0.17282917  0.30018869  1  0  0.118156  0  0.946114  0  0  0.12603  0  1.009149  0  0  0.129972  0  1.006197  0  0  0.112112  0.123159  0  1.011349  0
H  H37  1  0.54492410  0.82717417  0.69980441  1  0  0.118203  0  0.94604  0  0  0.126043  0  1.00911  0  0  0.129983  0  1.006159  0  0  0.112161  0.123174  0  1.01131  0
H  H38  1  0.78541118  0.27180422  0.46214308  1  0  0.101627  0  0.944681  0  0  0.113233  0  1.002456  0  0  0.116299  0  1.001218  0  0  0.107659  0.111035  0  1.003386  0
H  H39  1  0.21459205  0.72818962  0.53785832  1  0  0.101637  0  0.944699  0  0  0.113274  0  1.002439  0  0  0.116339  0  1.001201  0  0  0.107685  0.11108  0  1.003363  0
H  H40  1  0.04766805  0.19899301  0.35536783  1  0  0.119933  0  0.946057  0  0  0.12695  0  1.008475  0  0  0.13144  0  1.004697  0  0  0.109132  0.123679  0  1.011306  0
H  H41  1  0.95234223  0.80099565  0.64463388  1  0  0.119946  0  0.946028  0  0  0.126937  0  1.008447  0  0  0.131425  0  1.004675  0  0  0.109142  0.123666  0  1.011278  0
H  H42  1  0.43619237  0.07756290  0.57778159  1  0  0.103072  0  0.938036  0  0  0.114529  0  0.994795  0  0  0.117586  0  0.993609  0  0  0.108622  0.112281  0  0.995739  0
H  H43  1  0.56381114  0.92243699  0.42222012  1  0  0.103084  0  0.938018  0  0  0.114558  0  0.994766  0  0  0.117601  0  0.993593  0  0  0.108637  0.112308  0  0.995714  0
H  H44  1  0.50665330  0.01928588  0.74434423  1  0  0.116083  0  0.950857  0  0  0.125131  0  1.012603  0  0  0.128198  0  1.010746  0  0  0.11033  0.122909  0  1.014009  0
H  H45  1  0.49334571  0.98071228  0.25565475  1  0  0.116033  0  0.950925  0  0  0.125062  0  1.012687  0  0  0.128128  0  1.010832  0  0  0.110301  0.122841  0  1.014093  0
H  H46  1  0.56879589  0.35821413  0.74344021  1  0  0.107631  0  0.942001  0  0  0.11802  0  1.002025  0  0  0.121408  0  1.000322  0  0  0.109898  0.115573  0  1.003352  0
H  H47  1  0.43120288  0.64178144  0.25656263  1  0  0.107609  0  0.942005  0  0  0.117995  0  1.002016  0  0  0.121384  0  1.000314  0  0  0.10988  0.115548  0  1.003342  0
H  H48  1  0.49602662  0.41977885  0.57858186  1  0  0.120471  0  0.962353  0  0  0.126622  0  1.027422  0  0  0.130674  0  1.024423  0  0  0.107749  0.12367  0  1.02964  0
H  H49  1  0.50397309  0.58022105  0.42142152  1  0  0.120474  0  0.962318  0  0  0.126593  0  1.027431  0  0  0.130644  0  1.024433  0  0  0.107746  0.123642  0  1.02965  0
H  H50  1  0.13541069  0.91480376  0.93453005  1  0  0.42102  0  0.88865  0  0  0.388896  0  0.955046  0  0  0.400428  0  0.938189  0  0  0.284211  0.380684  0  0.967029  0
H  H51  1  0.86458514  0.08519613  0.06547026  1  0  0.421008  0  0.888683  0  0  0.388925  0  0.955026  0  0  0.400458  0  0.938169  0  0  0.284237  0.380711  0  0.967012  0
H  H52  1  0.26372204  0.86466335  0.01873397  1  0  0.411189  0  0.905451  0  0  0.37852  0  0.972706  0  0  0.390643  0  0.955342  0  0  0.280173  0.370003  0  0.984867  0
H  H53  1  0.73627379  0.13533654  0.98126634  1  0  0.411199  0  0.905431  0  0  0.37854  0  0.972668  0  0  0.390664  0  0.955303  0  0  0.280177  0.370023  0  0.98483  0
C  C54  1  0.31379250  0.31853802  0.07874162  1  0  0.103129  0  3.67776  0  0  0.064412  0  3.932985  0  0  0.073218  0  3.949281  0  0  0.056667  0.058696  0  3.921836  0
C  C55  1  0.68619917  0.68146620  0.92125965  1  0  0.103051  0  3.677909  0  0  0.064337  0  3.933102  0  0  0.073142  0  3.949399  0  0  0.056613  0.058622  0  3.921953  0
C  C56  1  0.30511217  0.43579389  0.07791148  1  0  0.040797  0  3.710748  0  0  0.062465  0  3.953988  0  0  0.057356  0  3.978573  0  0  -0.005461  0.065609  0  3.93737  0
C  C57  1  0.69488076  0.56421032  0.92208834  1  0  0.040866  0  3.71076  0  0  0.062587  0  3.953974  0  0  0.057481  0  3.978557  0  0  -0.005416  0.065728  0  3.937356  0
C  C58  1  0.25076510  0.51596017  0.99898783  1  0  0.109224  0  3.656247  0  0  0.11833  0  3.897848  0  0  0.122473  0  3.91881  0  0  0.015636  0.115713  0  3.883503  0
C  C59  1  0.74922689  0.48404318  0.00101289  1  0  0.10904  0  3.656185  0  0  0.118051  0  3.897889  0  0  0.122189  0  3.918853  0  0  0.015542  0.115437  0  3.883543  0
C  C60  1  0.20398392  0.47510294  0.92451761  1  0  -0.029621  0  3.7741  0  0  -0.019438  0  4.008682  0  0  -0.022801  0  4.032229  0  0  -0.006223  -0.017546  0  3.993217  0
C  C61  1  0.79601190  0.52489695  0.07548202  1  0  -0.029551  0  3.774033  0  0  -0.019323  0  4.008651  0  0  -0.022683  0  4.032195  0  0  -0.006194  -0.017437  0  3.993199  0
C  C62  1  0.15019481  0.55021250  0.84028753  1  0  -0.094424  0  3.751162  0  0  -0.116878  0  4.004563  0  0  -0.119368  0  4.028276  0  0  -0.088117  -0.115016  0  3.988537  0
C  C63  1  0.84980455  0.44978480  0.15971293  1  0  -0.094446  0  3.751192  0  0  -0.116899  0  4.004584  0  0  -0.119401  0  4.028294  0  0  -0.088128  -0.115047  0  3.988552  0
C  C64  1  0.10405873  0.50995355  0.76986712  1  0  -0.091317  0  3.745538  0  0  -0.111492  0  3.996155  0  0  -0.114742  0  4.01969  0  0  -0.085201  -0.109227  0  3.980193  0
C  C65  1  0.89594092  0.49004634  0.23013287  1  0  -0.091171  0  3.745647  0  0  -0.111347  0  3.996257  0  0  -0.1146  0  4.019796  0  0  -0.085144  -0.109083  0  3.9803  0
C  C66  1  0.10213075  0.39134920  0.77824147  1  0  -0.025344  0  3.773098  0  0  -0.01607  0  4.006639  0  0  -0.019153  0  4.031021  0  0  -0.004888  -0.014152  0  3.990303  0
C  C67  1  0.89786416  0.60864983  0.22176041  1  0  -0.025425  0  3.77329  0  0  -0.016171  0  4.006778  0  0  -0.019247  0  4.031148  0  0  -0.004909  -0.014253  0  3.99044  0
C  C68  1  0.05295500  0.34700072  0.70637875  1  0  0.103476  0  3.659517  0  0  0.114661  0  3.898917  0  0  0.118066  0  3.920952  0  0  0.016973  0.112482  0  3.883936  0
C  C69  1  0.94703893  0.65300090  0.29362346  1  0  0.103428  0  3.659692  0  0  0.114728  0  3.898993  0  0  0.118131  0  3.921028  0  0  0.016982  0.112549  0  3.884011  0
C  C70  1  0.04398294  0.23165833  0.72380963  1  0  0.047847  0  3.702448  0  0  0.067435  0  3.947023  0  0  0.062571  0  3.971182  0  0  -0.004408  0.070371  0  3.930806  0
C  C71  1  0.95601257  0.76834242  0.27619124  1  0  0.04785  0  3.702442  0  0  0.067338  0  3.947108  0  0  0.062473  0  3.971265  0  0  -0.004437  0.070274  0  3.93089  0
C  C72  1  0.08656687  0.16476001  0.81097240  1  0  0.118039  0  3.671672  0  0  0.078514  0  3.930777  0  0  0.087247  0  3.947299  0  0  0.059022  0.07285  0  3.919507  0
C  C73  1  0.91343693  0.83523902  0.18902740  1  0  0.117931  0  3.67168  0  0  0.078441  0  3.930852  0  0  0.087177  0  3.947369  0  0  0.058967  0.072776  0  3.919581  0
C  C74  1  0.15049286  0.31480607  0.86191370  1  0  0.127388  0  3.778782  0  0  0.119501  0  4.023086  0  0  0.123819  0  4.045688  0  0  0.11178  0.116552  0  4.007867  0
C  C75  1  0.84950646  0.68519469  0.13808550  1  0  0.127554  0  3.778982  0  0  0.119698  0  4.023299  0  0  0.124015  0  4.045898  0  0  0.111894  0.11675  0  4.008075  0
C  C76  1  0.20983111  0.35598081  0.93409762  1  0  0.133119  0  3.767913  0  0  0.124242  0  4.012809  0  0  0.129309  0  4.034312  0  0  0.111915  0.120882  0  3.998233  0
C  C77  1  0.79016568  0.64401994  0.06590314  1  0  0.133085  0  3.767954  0  0  0.124112  0  4.012975  0  0  0.12918  0  4.034471  0  0  0.111864  0.120751  0  3.998398  0
C  C78  1  0.35646599  0.46882457  0.16089158  1  0  -0.329626  0  3.728778  0  0  -0.409319  0  3.963406  0  0  -0.410293  0  3.97385  0  0  -0.24092  -0.408296  0  3.95626  0
C  C79  1  0.64353615  0.53117877  0.83910626  1  0  -0.329524  0  3.728858  0  0  -0.409215  0  3.963412  0  0  -0.41019  0  3.973859  0  0  -0.240908  -0.40819  0  3.956267  0
C  C80  1  0.24051580  0.64162086  0.99083075  1  0  -0.350018  0  3.700404  0  0  -0.431491  0  3.93573  0  0  -0.434069  0  3.94406  0  0  -0.247271  -0.42942  0  3.929857  0
C  C81  1  0.75947815  0.35837730  0.00917068  1  0  -0.350042  0  3.700221  0  0  -0.431501  0  3.935564  0  0  -0.434079  0  3.943896  0  0  -0.247262  -0.429429  0  3.929691  0
C  C82  1  0.01066884  0.42248968  0.61507604  1  0  -0.345938  0  3.714626  0  0  -0.427326  0  3.951818  0  0  -0.430525  0  3.960902  0  0  -0.243606  -0.424796  0  3.945411  0
C  C83  1  0.98933242  0.57750935  0.38492465  1  0  -0.345977  0  3.714716  0  0  -0.427418  0  3.951905  0  0  -0.430617  0  3.960982  0  0  -0.243667  -0.424888  0  3.945499  0
C  C84  1  0.99275182  0.17676533  0.65308396  1  0  -0.328921  0  3.72863  0  0  -0.406043  0  3.956468  0  0  -0.407816  0  3.968996  0  0  -0.240107  -0.404445  0  3.947901  0
C  C85  1  0.00724786  0.82323457  0.34691807  1  0  -0.328928  0  3.728532  0  0  -0.406028  0  3.956407  0  0  -0.407798  0  3.968938  0  0  -0.240139  -0.40443  0  3.947842  0
C  C86  1  0.05918560  0.11864270  0.19762068  1  0  0.627989  0  3.935707  0  0  0.575007  0  4.239044  0  0  0.608738  0  4.231683  0  0  0.198949  0.552193  0  4.243154  0
C  C87  1  0.94082202  0.88135287  0.80237735  1  0  0.627875  0  3.935782  0  0  0.574953  0  4.239004  0  0  0.608685  0  4.231645  0  0  0.198971  0.552139  0  4.243113  0
C  C88  1  0.89866096  0.15048356  0.26542867  1  0  -0.055197  0  3.72368  0  0  -0.03207  0  3.956153  0  0  -0.036673  0  3.975453  0  0  -0.012001  -0.029184  0  3.9432  0
C  C89  1  0.10134348  0.84951373  0.73457002  1  0  -0.055074  0  3.723724  0  0  -0.031957  0  3.956109  0  0  -0.036561  0  3.975412  0  0  -0.011964  -0.029069  0  3.943151  0
C  C90  1  0.73221606  0.14206773  0.25040722  1  0  -0.070234  0  3.696159  0  0  -0.093635  0  3.94532  0  0  -0.094833  0  3.964932  0  0  -0.079508  -0.09273  0  3.93211  0
C  C91  1  0.26778739  0.85793216  0.74959110  1  0  -0.070384  0  3.696174  0  0  -0.093772  0  3.945307  0  0  -0.094971  0  3.964919  0  0  -0.079541  -0.092867  0  3.932101  0
C  C92  1  0.58496090  0.17956706  0.31108980  1  0  -0.079389  0  3.738808  0  0  -0.100666  0  3.986474  0  0  -0.101738  0  4.006807  0  0  -0.082592  -0.099802  0  3.972595  0
C  C93  1  0.41504089  0.82043715  0.68890589  1  0  -0.079435  0  3.73871  0  0  -0.100697  0  3.986393  0  0  -0.101764  0  4.006723  0  0  -0.082689  -0.099837  0  3.97252  0
C  C94  1  0.60548299  0.22816160  0.38562378  1  0  -0.105483  0  3.762296  0  0  -0.081737  0  4.009969  0  0  -0.08705  0  4.033149  0  0  -0.020104  -0.078094  0  3.994228  0
C  C95  1  0.39452361  0.77184002  0.61437264  1  0  -0.105335  0  3.762085  0  0  -0.081572  0  4.009721  0  0  -0.086886  0  4.0329  0  0  -0.020039  -0.077926  0  3.993975  0
C  C96  1  0.77091093  0.23494651  0.40305515  1  0  -0.070692  0  3.746146  0  0  -0.092832  0  3.992127  0  0  -0.093656  0  4.012385  0  0  -0.081716  -0.092171  0  3.978296  0
C  C97  1  0.22909639  0.76504992  0.59694412  1  0  -0.07071  0  3.746164  0  0  -0.092904  0  3.992143  0  0  -0.093725  0  4.012398  0  0  -0.081681  -0.092248  0  3.978312  0
C  C98  1  0.91731733  0.19455690  0.34346406  1  0  -0.060523  0  3.695817  0  0  -0.079946  0  3.937177  0  0  -0.080438  0  3.954835  0  0  -0.074586  -0.07953  0  3.925279  0
C  C99  1  0.08269295  0.80543522  0.65653910  1  0  -0.060609  0  3.695873  0  0  -0.079978  0  3.937196  0  0  -0.08047  0  3.954857  0  0  -0.074647  -0.079562  0  3.9253  0
C  C100  1  0.46295793  0.25166554  0.56943041  1  0  -0.11567  0  3.772765  0  0  -0.091587  0  4.02334  0  0  -0.097977  0  4.047821  0  0  -0.020033  -0.087285  0  4.006795  0
C  C101  1  0.53704613  0.74833608  0.43056689  1  0  -0.115813  0  3.772905  0  0  -0.091629  0  4.023345  0  0  -0.098017  0  4.04782  0  0  -0.020044  -0.087328  0  4.006802  0
C  C102  1  0.46491427  0.13871992  0.61434257  1  0  -0.071975  0  3.746072  0  0  -0.094416  0  3.994787  0  0  -0.095686  0  4.01633  0  0  -0.080718  -0.09339  0  3.980173  0
C  C103  1  0.53508855  0.86128170  0.38565687  1  0  -0.071977  0  3.746073  0  0  -0.094478  0  3.994778  0  0  -0.095734  0  4.016321  0  0  -0.080768  -0.093451  0  3.980163  0
C  C104  1  0.50187025  0.10640829  0.70683812  1  0  -0.04945  0  3.689516  0  0  -0.073298  0  3.937132  0  0  -0.074186  0  3.957597  0  0  -0.07265  -0.072711  0  3.923396  0
C  C105  1  0.49812586  0.89359419  0.29316105  1  0  -0.04939  0  3.689449  0  0  -0.07322  0  3.937088  0  0  -0.074104  0  3.957544  0  0  -0.072612  -0.072633  0  3.923351  0
C  C106  1  0.53982143  0.18543900  0.75302573  1  0  -0.040073  0  3.709948  0  0  -0.019377  0  3.946539  0  0  -0.02455  0  3.966686  0  0  -0.005813  -0.01601  0  3.933032  0
C  C107  1  0.46017116  0.81456608  0.24697328  1  0  -0.040043  0  3.709946  0  0  -0.019361  0  3.946559  0  0  -0.024532  0  3.966701  0  0  -0.005779  -0.015988  0  3.933059  0
C  C108  1  0.53825841  0.29792167  0.70673713  1  0  -0.058002  0  3.705948  0  0  -0.081883  0  3.957335  0  0  -0.082084  0  3.975532  0  0  -0.074258  -0.081721  0  3.945068  0
C  C109  1  0.46173393  0.70208081  0.29326574  1  0  -0.058113  0  3.705979  0  0  -0.08196  0  3.957334  0  0  -0.08216  0  3.975531  0  0  -0.074282  -0.081798  0  3.945067  0
C  C110  1  0.49880453  0.33213435  0.61462483  1  0  -0.077093  0  3.736738  0  0  -0.101646  0  3.989836  0  0  -0.102022  0  4.008401  0  0  -0.083148  -0.101251  0  3.977214  0
C  C111  1  0.50119706  0.66786727  0.38537742  1  0  -0.076891  0  3.736762  0  0  -0.101463  0  3.989837  0  0  -0.101839  0  4.008404  0  0  -0.08307  -0.10107  0  3.977216  0
C  C112  1  0.58966790  0.14785513  0.85112462  1  0  0.654732  0  3.88028  0  0  0.597107  0  4.180713  0  0  0.631739  0  4.172879  0  0  0.211662  0.573544  0  4.185336  0
C  C113  1  0.41033306  0.85214131  0.14887585  1  0  0.65493  0  3.880095  0  0  0.597277  0  4.180592  0  0  0.631907  0  4.17275  0  0  0.211721  0.573695  0  4.185245  0
S  S114  1  0.41297990  0.29486838  0.45197157  1  0  1.057287  0  5.250536  0  0  0.985452  0  5.743815  0  0  1.024923  0  5.730999  0  0  0.474642  0.95766  0  5.752972  0
S  S115  1  0.58702258  0.70513756  0.54802852  1  0  1.057384  0  5.250553  0  0  0.985539  0  5.743811  0  0  1.02501  0  5.730994  0  0  0.47475  0.957745  0  5.752972  0
N  N116  1  0.26752453  0.27946370  0.01048248  1  0  -0.365596  0  3.273346  0  0  -0.299301  0  3.547136  0  0  -0.319243  0  3.56507  0  0  -0.328531  -0.285656  0  3.534641  0
N  N117  1  0.73246814  0.72053446  0.98951906  1  0  -0.365524  0  3.273433  0  0  -0.299201  0  3.547227  0  0  -0.319138  0  3.565153  0  0  -0.328462  -0.285554  0  3.534732  0
N  N118  1  0.14052404  0.20327284  0.87694342  1  0  -0.372611  0  3.289831  0  0  -0.307523  0  3.563336  0  0  -0.327601  0  3.582267  0  0  -0.33396  -0.293761  0  3.5502  0
N  N119  1  0.85948616  0.79672273  0.12305644  1  0  -0.372667  0  3.290135  0  0  -0.307566  0  3.5636  0  0  -0.327647  0  3.582535  0  0  -0.334009  -0.293803  0  3.550461  0
O  O120  1  0.03325887  0.08992663  0.12136659  1  0  -0.69066  0  2.071259  0  0  -0.612553  0  2.323273  0  0  -0.642929  0  2.310032  0  0  -0.333788  -0.591104  0  2.331613  0
O  O121  1  0.96674311  0.91006375  0.87863550  1  0  -0.690632  0  2.071121  0  0  -0.612539  0  2.323133  0  0  -0.642915  0  2.309889  0  0  -0.333852  -0.591095  0  2.331477  0
O  O122  1  0.20471236  0.12404366  0.21653916  1  0  -0.595729  0  1.926827  0  0  -0.555328  0  2.155837  0  0  -0.578193  0  2.147762  0  0  -0.315443  -0.539294  0  2.160796  0
O  O123  1  0.79528975  0.87595623  0.78345453  1  0  -0.595676  0  1.926733  0  0  -0.555313  0  2.155724  0  0  -0.57818  0  2.147648  0  0  -0.315424  -0.53928  0  2.160684  0
O  O124  1  0.26999540  0.24741616  0.43919690  1  0  -0.580441  0  1.91842  0  0  -0.537968  0  2.154666  0  0  -0.557397  0  2.143252  0  0  -0.313988  -0.524142  0  2.162112  0
O  O125  1  0.73000731  0.75259238  0.56079867  1  0  -0.58056  0  1.918482  0  0  -0.538076  0  2.154699  0  0  -0.557503  0  2.143278  0  0  -0.314054  -0.524248  0  2.162143  0
O  O126  1  0.39298141  0.41927458  0.42781963  1  0  -0.58305  0  1.949303  0  0  -0.534973  0  2.185817  0  0  -0.555361  0  2.175772  0  0  -0.310232  -0.520444  0  2.192248  0
O  O127  1  0.60702678  0.58072963  0.57217825  1  0  -0.583051  0  1.949322  0  0  -0.535017  0  2.185882  0  0  -0.555405  0  2.175838  0  0  -0.310316  -0.520487  0  2.192313  0
O  O128  1  0.53723342  0.06036594  0.90003397  1  0  -0.691963  0  2.082397  0  0  -0.609813  0  2.353324  0  0  -0.640625  0  2.338681  0  0  -0.339405  -0.58806  0  2.362553  0
O  O129  1  0.46277108  0.93962790  0.09996733  1  0  -0.692031  0  2.082444  0  0  -0.60984  0  2.353322  0  0  -0.640665  0  2.338712  0  0  -0.339388  -0.588082  0  2.362563  0
O  O130  1  0.68075387  0.20261480  0.87851103  1  0  -0.592711  0  1.976997  0  0  -0.541191  0  2.202388  0  0  -0.565492  0  2.195006  0  0  -0.301195  -0.524295  0  2.206922  0
O  O131  1  0.31924352  0.79738422  0.12148659  1  0  -0.592842  0  1.976854  0  0  -0.541306  0  2.20224  0  0  -0.565616  0  2.194882  0  0  -0.301277  -0.524405  0  2.206786  0
O  O132  1  0.24087080  0.92224972  0.95960668  1  0  -0.853317  0  1.878694  0  0  -0.787266  0  2.078164  0  0  -0.810519  0  2.041969  0  0  -0.600693  -0.770676  0  2.103206  0
O  O133  1  0.75912152  0.07775277  0.04039484  1  0  -0.853327  0  1.878773  0  0  -0.7873  0  2.078148  0  0  -0.810556  0  2.041947  0  0  -0.600708  -0.77072  0  2.103216  0
