# generated using pymatgen
data_LaH5WC5SO8
_symmetry_space_group_name_H-M   'P 1'
_cell_length_a   7.50224952
_cell_length_b   7.63057972
_cell_length_c   17.16842392
_cell_angle_alpha   91.27858320
_cell_angle_beta   89.99997478
_cell_angle_gamma   89.99979131
_symmetry_Int_Tables_number   1
_chemical_formula_structural   LaH5WC5SO8
_chemical_formula_sum   'La4 H20 W4 C20 S4 O32'
_cell_volume   982.58769731
_cell_formula_units_Z   4
loop_
 _symmetry_equiv_pos_site_id
 _symmetry_equiv_pos_as_xyz
  1  'x, y, z'
loop_
 _atom_site_type_symbol
 _atom_site_label
 _atom_site_symmetry_multiplicity
 _atom_site_fract_x
 _atom_site_fract_y
 _atom_site_fract_z
 _atom_site_occupancy
 _atom_site_hle17_bader_spin_density
 _atom_site_hle17_ddec_charge
 _atom_site_hle17_ddec_spin_density
 _atom_site_hle17_ddec_sum_bond_order
 _atom_site_hle17_magmom
 _atom_site_hse06_10hf_bader_charge
 _atom_site_hse06_10hf_bader_spin_density
 _atom_site_hse06_10hf_ddec_charge
 _atom_site_hse06_10hf_ddec_spin_density
 _atom_site_hse06_10hf_ddec_sum_bond_order
 _atom_site_hse06_10hf_magmom
 _atom_site_hse06_bader_charge
 _atom_site_hse06_bader_spin_density
 _atom_site_hse06_ddec_charge
 _atom_site_hse06_ddec_spin_density
 _atom_site_hse06_ddec_sum_bond_order
 _atom_site_hse06_magmom
 _atom_site_pbe_bader_spin_density
 _atom_site_pbe_cm5_charge
 _atom_site_pbe_ddec_charge
 _atom_site_pbe_ddec_spin_density
 _atom_site_pbe_ddec_sum_bond_order
 _atom_site_pbe_magmom
La  La0  1  0.41259871  0.73597052  0.34412363  1  0  2.296231  0  1.726183  0  2.332296  0  2.202634  0  2.243204  0  2.390539  0  2.302499  0  2.139685  0  0  1.35661  2.12764  0  2.313486  0
La  La1  1  0.91259653  0.76403446  0.65587734  1  0  2.296268  0  1.726123  0  2.332366  0  2.202682  0  2.243125  0  2.390512  0  2.302546  0  2.139604  0  0  1.356638  2.127689  0  2.313399  0
La  La2  1  0.58739899  0.26402753  0.65587949  1  0  2.296257  0  1.726183  0  2.332316  0  2.202658  0  2.243201  0  2.390537  0  2.30252  0  2.13968  0  0  1.356597  2.127649  0  2.313502  0
La  La3  1  0.08739984  0.23596882  0.34412350  1  0  2.296244  0  1.726199  0  2.332267  0  2.20264  0  2.243224  0  2.390529  0  2.302511  0  2.139701  0  0  1.3566  2.127632  0  2.313519  0
H  H4  1  0.13332499  0.16078990  0.11847314  1  0  0.124883  0  0.949515  0  0.15385  0  0.132064  0  1.012104  0  0.171549  0  0.135963  0  1.009304  0  0  0.114533  0.129158  0  1.014306  0
H  H5  1  0.63332496  0.33921283  0.88152698  1  0  0.124885  0  0.949557  0  0.15375  0  0.132073  0  1.012143  0  0.171591  0  0.135974  0  1.009336  0  0  0.114544  0.129168  0  1.014345  0
H  H6  1  0.86667672  0.83921075  0.88152651  1  0  0.124912  0  0.949444  0  0.153832  0  0.13205  0  1.012096  0  0.17152  0  0.135958  0  1.009272  0  0  0.114549  0.129143  0  1.014295  0
H  H7  1  0.36667408  0.66079045  0.11847269  1  0  0.124886  0  0.949528  0  0.153855  0  0.132075  0  1.012105  0  0.171698  0  0.135965  0  1.009323  0  0  0.114537  0.129169  0  1.014308  0
H  H8  1  0.05066668  0.15659251  0.97733992  1  0  0.091507  0  0.973038  0  0.105385  0  0.101822  0  1.032757  0  0.108658  0  0.103569  0  1.034246  0  0  0.101081  0.100319  0  1.032383  0
H  H9  1  0.55066752  0.34340921  0.02266079  1  0  0.091482  0  0.973077  0  0.105354  0  0.101815  0  1.03278  0  0.108668  0  0.103539  0  1.034294  0  0  0.101095  0.100311  0  1.032407  0
H  H10  1  0.94933503  0.84340815  0.02266031  1  0  0.091533  0  0.973074  0  0.105338  0  0.101848  0  1.032784  0  0.108636  0  0.103594  0  1.034276  0  0  0.101108  0.100344  0  1.03241  0
H  H11  1  0.44933285  0.65659276  0.97733945  1  0  0.091528  0  0.973072  0  0.105332  0  0.101853  0  1.032774  0  0.108645  0  0.103593  0  1.03427  0  0  0.101114  0.10035  0  1.032401  0
H  H12  1  0.26601297  0.06691488  0.87781511  1  0  0.109116  0  0.981773  0  0.095538  0  0.116923  0  1.046725  0  0.098958  0  0.120898  0  1.043344  0  0  0.10718  0.114029  0  1.049206  0
H  H13  1  0.76601472  0.43308475  0.12218497  1  0  0.109156  0  0.981748  0  0.095543  0  0.116945  0  1.046709  0  0.098956  0  0.120924  0  1.043324  0  0  0.107168  0.114029  0  1.049216  0
H  H14  1  0.73398873  0.93308577  0.12218513  1  0  0.109146  0  0.981681  0  0.095538  0  0.116932  0  1.046657  0  0.098972  0  0.120916  0  1.043273  0  0  0.107161  0.114038  0  1.049139  0
H  H15  1  0.23398832  0.56691591  0.87781468  1  0  0.109088  0  0.981804  0  0.095512  0  0.116894  0  1.046757  0  0.098929  0  0.120872  0  1.04338  0  0  0.107179  0.114  0  1.049238  0
H  H16  1  0.58480101  0.43589483  0.23153802  1  0  0.437212  0  0.857733  0  0.641168  0  0.406018  0  0.921934  0  0.706941  0  0.416501  0  0.906619  0  0  0.304552  0.398565  0  0.932786  0
H  H17  1  0.08479938  0.06410545  0.76846093  1  0  0.43722  0  0.857723  0  0.641174  0  0.406033  0  0.921914  0  0.706946  0  0.41651  0  0.906609  0  0  0.304529  0.39858  0  0.932765  0
H  H18  1  0.41520070  0.56410452  0.76846103  1  0  0.437248  0  0.857681  0  0.641175  0  0.406067  0  0.921861  0  0.706948  0  0.416542  0  0.906559  0  0  0.30455  0.398613  0  0.932715  0
H  H19  1  0.91519965  0.93589389  0.23153813  1  0  0.43723  0  0.857707  0  0.641167  0  0.406062  0  0.921869  0  0.70694  0  0.416531  0  0.906576  0  0  0.304567  0.39861  0  0.932719  0
H  H20  1  0.68974387  0.61608324  0.22454435  1  0  0.432893  0  0.868671  0  0.652879  0  0.402899  0  0.931435  0  0.666575  0  0.413279  0  0.916356  0  0  0.301428  0.395464  0  0.942226  0
H  H21  1  0.18973839  0.88391729  0.77545487  1  0  0.432931  0  0.868632  0  0.652965  0  0.40294  0  0.931399  0  0.666603  0  0.413325  0  0.916311  0  0  0.301427  0.395501  0  0.942197  0
H  H22  1  0.31026050  0.38391741  0.77545530  1  0  0.432928  0  0.868631  0  0.652898  0  0.402917  0  0.931424  0  0.666592  0  0.413305  0  0.916332  0  0  0.301435  0.395478  0  0.942219  0
H  H23  1  0.81025931  0.11608206  0.22454476  1  0  0.432916  0  0.868639  0  0.652898  0  0.402904  0  0.931431  0  0.666593  0  0.413297  0  0.916333  0  0  0.301437  0.395466  0  0.942226  0
W  W24  1  0.55514215  0.25066222  0.41407629  1  0  2.369782  0  4.399585  0  2.824855  0  2.367828  0  4.983138  0  2.930076  0  2.474243  0  4.930614  0  0  1.670825  2.283092  0  5.036823  0
W  W25  1  0.05514270  0.24933424  0.58592380  1  0  2.369749  0  4.399527  0  2.824617  0  2.36778  0  4.983094  0  2.930086  0  2.4742  0  4.930559  0  0  1.670755  2.283041  0  5.03678  0
W  W26  1  0.44485555  0.74933450  0.58592333  1  0  2.369759  0  4.399598  0  2.824583  0  2.367826  0  4.983129  0  2.930079  0  2.47422  0  4.930625  0  0  1.670793  2.283077  0  5.036829  0
W  W27  1  0.94485634  0.75066249  0.41407640  1  0  2.369854  0  4.399464  0  2.824845  0  2.367904  0  4.983005  0  2.930128  0  2.47431  0  4.930494  0  0  1.670841  2.283168  0  5.036697  0
C  C28  1  0.39704208  0.06386933  0.09622973  1  0  -0.169187  0  3.694352  0  -0.277348  0  -0.147291  0  3.943132  0  -0.291816  0  -0.155604  0  3.963897  0  0  -0.014168  -0.142089  0  3.929423  0
C  C29  1  0.89704034  0.43613245  0.90376976  1  0  -0.169197  0  3.694298  0  -0.277383  0  -0.147313  0  3.943089  0  -0.291444  0  -0.15563  0  3.963866  0  0  -0.01416  -0.142105  0  3.929374  0
C  C30  1  0.60295963  0.93613002  0.90376991  1  0  -0.169096  0  3.694227  0  -0.277395  0  -0.147214  0  3.94301  0  -0.292014  0  -0.155531  0  3.963786  0  0  -0.014134  -0.14201  0  3.929305  0
C  C31  1  0.10296003  0.56386952  0.09622990  1  0  -0.169136  0  3.694218  0  -0.277411  0  -0.147234  0  3.943023  0  -0.291872  0  -0.155551  0  3.963802  0  0  -0.014146  -0.142035  0  3.929318  0
C  C32  1  0.22848855  0.11621967  0.07435376  1  0  -0.048702  0  3.716936  0  0.033661  0  -0.078107  0  3.970239  0  0.029137  0  -0.075468  0  3.98786  0  0  -0.077128  -0.079535  0  3.958426  0
C  C33  1  0.72848832  0.38378272  0.92564576  1  0  -0.048719  0  3.716865  0  0.033743  0  -0.078124  0  3.970173  0  0.028665  0  -0.075485  0  3.987791  0  0  -0.07716  -0.07956  0  3.958367  0
C  C34  1  0.77151316  0.88378099  0.92564589  1  0  -0.048735  0  3.716701  0  0.033697  0  -0.078104  0  3.970016  0  0.029325  0  -0.075462  0  3.987641  0  0  -0.07715  -0.079533  0  3.958211  0
C  C35  1  0.27151072  0.61622056  0.07435333  1  0  -0.048778  0  3.716863  0  0.033711  0  -0.078181  0  3.970181  0  0.029036  0  -0.075543  0  3.987796  0  0  -0.077158  -0.079615  0  3.958376  0
C  C36  1  0.18263783  0.11355231  0.99474973  1  0  -0.051021  0  3.751351  0  -0.033184  0  -0.062909  0  4.005804  0  -0.032339  0  -0.066324  0  4.027417  0  0  -0.084955  -0.060623  0  3.991583  0
C  C37  1  0.68263720  0.38645024  0.00524980  1  0  -0.050962  0  3.751306  0  -0.033164  0  -0.062873  0  4.00575  0  -0.032358  0  -0.066267  0  4.027372  0  0  -0.084942  -0.060583  0  3.991524  0
C  C38  1  0.81736521  0.88644835  0.00524992  1  0  -0.051016  0  3.751405  0  -0.033199  0  -0.062907  0  4.005844  0  -0.032307  0  -0.066325  0  4.027463  0  0  -0.084931  -0.060619  0  3.991624  0
C  C39  1  0.31736450  0.61355172  0.99474928  1  0  -0.051001  0  3.751291  0  -0.033168  0  -0.06289  0  4.005743  0  -0.032288  0  -0.066295  0  4.027355  0  0  -0.084969  -0.060602  0  3.991523  0
C  C40  1  0.52492787  0.00040038  0.04052280  1  0  0.050519  0  3.761286  0  0.030695  0  0.060433  0  3.988207  0  0.03075  0  0.060736  0  4.012373  0  0  0.000517  0.060389  0  3.971848  0
C  C41  1  0.02492844  0.49960012  0.95947674  1  0  0.050534  0  3.761341  0  0.030693  0  0.060476  0  3.988277  0  0.030738  0  0.060777  0  4.012451  0  0  0.000539  0.060435  0  3.971915  0
C  C42  1  0.47507250  0.99959897  0.95947684  1  0  0.050465  0  3.761303  0  -0.025429  0  0.060384  0  3.988241  0  -0.031197  0  0.060686  0  4.012408  0  0  0.000489  0.060347  0  3.971879  0
C  C43  1  0.97507326  0.50040184  0.04052175  1  0  0.050525  0  3.761337  0  -0.025441  0  0.060386  0  3.98834  0  -0.031209  0  0.060688  0  4.012513  0  0  0.0005  0.060348  0  3.971973  0
C  C44  1  0.30328977  0.06005567  0.93871521  1  0  -0.084156  0  3.681002  0  -0.01982  0  -0.111439  0  3.934806  0  -0.017468  0  -0.111327  0  3.952112  0  0  -0.08249  -0.111515  0  3.923249  0
C  C45  1  0.80329155  0.43994513  0.06128428  1  0  -0.084192  0  3.68105  0  -0.019789  0  -0.111432  0  3.934842  0  -0.017418  0  -0.111324  0  3.952142  0  0  -0.082475  -0.11149  0  3.923301  0
C  C46  1  0.69671060  0.93994367  0.06128443  1  0  -0.084194  0  3.681004  0  -0.019791  0  -0.111438  0  3.93477  0  -0.017493  0  -0.111337  0  3.952088  0  0  -0.082486  -0.11151  0  3.923214  0
C  C47  1  0.19671015  0.56005814  0.93871481  1  0  -0.084145  0  3.681006  0  -0.01982  0  -0.111431  0  3.934811  0  -0.017535  0  -0.111327  0  3.952121  0  0  -0.082486  -0.111505  0  3.923256  0
S  S48  1  0.45614158  0.09241649  0.19602213  1  0  1.356646  0  5.587036  0  3.247081  0  1.253348  0  6.104528  0  3.321956  0  1.304087  0  6.08115  0  0  0.553572  1.218325  0  6.119351  0
S  S49  1  0.95614139  0.40758507  0.80397734  1  0  1.356597  0  5.587003  0  3.247079  0  1.253315  0  6.104494  0  3.322052  0  1.304034  0  6.081126  0  0  0.553548  1.218292  0  6.119314  0
S  S50  1  0.54385879  0.90758155  0.80397866  1  0  1.356637  0  5.587017  0  3.247056  0  1.253375  0  6.104497  0  3.321927  0  1.304087  0  6.081133  0  0  0.553563  1.218351  0  6.119323  0
S  S51  1  0.04385765  0.59241558  0.19602114  1  0  1.356673  0  5.587019  0  3.247043  0  1.253428  0  6.104484  0  3.321927  0  1.304123  0  6.081121  0  0  0.553549  1.218405  0  6.119303  0
O  O52  1  0.44870513  0.04440012  0.39468009  1  0  -0.966456  0  1.672865  0  -1.075272  0  -0.951824  0  1.977629  0  -1.111349  0  -0.995722  0  1.961743  0  0  -0.618015  -0.91801  0  1.987888  0
O  O53  1  0.94871030  0.45559886  0.60532053  1  0  -0.96645  0  1.672884  0  -1.075222  0  -0.951799  0  1.977617  0  -1.111279  0  -0.995692  0  1.961725  0  0  -0.617954  -0.917985  0  1.98788  0
O  O54  1  0.55128857  0.95559661  0.60532069  1  0  -0.966469  0  1.672935  0  -1.075201  0  -0.951837  0  1.977697  0  -1.111284  0  -0.995726  0  1.961805  0  0  -0.617973  -0.918018  0  1.987957  0
O  O55  1  0.05128741  0.54439655  0.39467908  1  0  -0.966484  0  1.672854  0  -1.075258  0  -0.951853  0  1.977609  0  -1.111341  0  -0.995745  0  1.961721  0  0  -0.618013  -0.918036  0  1.987872  0
O  O56  1  0.09665981  0.90943014  0.37294972  1  0  -1.022884  0  1.675582  0  -1.129132  0  -0.996185  0  1.977401  0  -1.164702  0  -1.043503  0  1.961724  0  0  -0.641635  -0.959949  0  1.98756  0
O  O57  1  0.59665830  0.59056550  0.62705239  1  0  -1.022872  0  1.675625  0  -1.128934  0  -0.996207  0  1.9775  0  -1.164688  0  -1.043526  0  1.961822  0  0  -0.641627  -0.959971  0  1.987663  0
O  O58  1  0.90334190  0.09056791  0.62705340  1  0  -1.022872  0  1.675635  0  -1.128913  0  -0.99622  0  1.97754  0  -1.164704  0  -1.043542  0  1.961864  0  0  -0.641654  -0.959984  0  1.987699  0
O  O59  1  0.40333808  0.40942992  0.37294896  1  0  -1.022845  0  1.675632  0  -1.129121  0  -0.99616  0  1.977471  0  -1.164658  0  -1.043479  0  1.961791  0  0  -0.641632  -0.959924  0  1.987631  0
O  O60  1  0.61034444  0.21266896  0.19802695  1  0  -0.675491  0  2.03643  0  -1.367835  0  -0.608708  0  2.276381  0  -1.396583  0  -0.631561  0  2.261223  0  0  -0.307252  -0.592645  0  2.286273  0
O  O61  1  0.11034729  0.28733254  0.80197317  1  0  -0.675495  0  2.036328  0  -1.367809  0  -0.608746  0  2.276295  0  -1.396558  0  -0.631566  0  2.261121  0  0  -0.307255  -0.592688  0  2.286206  0
O  O62  1  0.38965593  0.78732907  0.80197326  1  0  -0.675489  0  2.036428  0  -1.367848  0  -0.608772  0  2.27642  0  -1.396583  0  -0.631577  0  2.261233  0  0  -0.30726  -0.5927  0  2.286298  0
O  O63  1  0.88965308  0.71266811  0.19802590  1  0  -0.67548  0  2.036344  0  -1.367841  0  -0.608798  0  2.276352  0  -1.396589  0  -0.631556  0  2.261139  0  0  -0.307249  -0.592738  0  2.286269  0
O  O64  1  0.50305397  0.91955280  0.22624105  1  0  -0.706714  0  2.022083  0  -1.364073  0  -0.648873  0  2.289855  0  -1.400957  0  -0.676567  0  2.27582  0  0  -0.367808  -0.629012  0  2.298845  0
O  O65  1  0.00304828  0.58044709  0.77375646  1  0  -0.706648  0  2.022084  0  -1.364146  0  -0.648807  0  2.289841  0  -1.400997  0  -0.676502  0  2.275811  0  0  -0.367786  -0.628949  0  2.298832  0
O  O66  1  0.49695040  0.08044523  0.77375799  1  0  -0.706741  0  2.02206  0  -1.364044  0  -0.648888  0  2.289785  0  -1.400869  0  -0.676581  0  2.275757  0  0  -0.367807  -0.629027  0  2.298774  0
O  O67  1  0.99694809  0.41955356  0.22624145  1  0  -0.706751  0  2.02208  0  -1.364068  0  -0.648886  0  2.289799  0  -1.400942  0  -0.676587  0  2.275778  0  0  -0.367799  -0.629027  0  2.298787  0
O  O68  1  0.30013754  0.17039573  0.23480197  1  0  -0.748704  0  2.111472  0  -1.38532  0  -0.699928  0  2.398275  0  -1.417478  0  -0.7292  0  2.385209  0  0  -0.3829  -0.678643  0  2.406137  0
O  O69  1  0.80013767  0.32959854  0.76519863  1  0  -0.748709  0  2.111431  0  -1.38533  0  -0.699932  0  2.398239  0  -1.417503  0  -0.729202  0  2.385176  0  0  -0.382916  -0.678647  0  2.406102  0
O  O70  1  0.69986016  0.82960230  0.76519707  1  0  -0.748732  0  2.11148  0  -1.385346  0  -0.699971  0  2.398293  0  -1.4175  0  -0.729244  0  2.385234  0  0  -0.382936  -0.678691  0  2.406157  0
O  O71  1  0.19985737  0.67039950  0.23480216  1  0  -0.748719  0  2.111474  0  -1.385292  0  -0.699965  0  2.398292  0  -1.417459  0  -0.729235  0  2.385238  0  0  -0.382908  -0.678681  0  2.406157  0
O  O72  1  0.57326423  0.56406179  0.23812609  1  0  -0.876534  0  1.859611  0  -1.278217  0  -0.832104  0  2.056965  0  -1.36024  0  -0.856624  0  2.025018  0  0  -0.638923  -0.814212  0  2.079041  0
O  O73  1  0.07326124  0.93593785  0.76187315  1  0  -0.876575  0  1.859628  0  -1.278301  0  -0.832131  0  2.056901  0  -1.360272  0  -0.856649  0  2.024951  0  0  -0.638905  -0.814244  0  2.078979  0
O  O74  1  0.42673614  0.43593755  0.76187180  1  0  -0.876594  0  1.859564  0  -1.278248  0  -0.832148  0  2.056894  0  -1.360294  0  -0.856667  0  2.024945  0  0  -0.638935  -0.814254  0  2.078974  0
O  O75  1  0.92673780  0.06406149  0.23812649  1  0  -0.876559  0  1.859563  0  -1.278228  0  -0.832141  0  2.056914  0  -1.360254  0  -0.856661  0  2.024967  0  0  -0.638952  -0.814247  0  2.078992  0
O  O76  1  0.41648019  0.71066655  0.48347728  1  0  -0.967879  0  1.663184  0  -1.081909  0  -0.962389  0  1.979249  0  -1.119359  0  -1.003815  0  1.958199  0  0  -0.650574  -0.929315  0  1.992438  0
O  O77  1  0.91648206  0.78933710  0.51652310  1  0  -0.967943  0  1.663187  0  -1.081905  0  -0.962452  0  1.979248  0  -1.119332  0  -1.003881  0  1.958198  0  0  -0.650585  -0.929378  0  1.992438  0
O  O78  1  0.58351752  0.28933280  0.51652294  1  0  -0.967939  0  1.663228  0  -1.081906  0  -0.962448  0  1.979294  0  -1.119366  0  -1.003881  0  1.958245  0  0  -0.650566  -0.929373  0  1.992482  0
O  O79  1  0.08351565  0.21066749  0.48347717  1  0  -0.967892  0  1.663185  0  -1.081896  0  -0.962396  0  1.979257  0  -1.119349  0  -1.003833  0  1.958206  0  0  -0.650549  -0.929325  0  1.992445  0
O  O80  1  0.72987016  0.75811006  0.36937068  1  0  -0.951078  0  1.645596  0  -1.077222  0  -0.944194  0  1.96049  0  -1.111922  0  -0.986054  0  1.940185  0  0  -0.644448  -0.911407  0  1.973809  0
O  O81  1  0.22986936  0.74189688  0.63062860  1  0  -0.951078  0  1.645608  0  -1.077221  0  -0.94421  0  1.960504  0  -1.111911  0  -0.986063  0  1.940194  0  0  -0.644466  -0.911419  0  1.973821  0
O  O82  1  0.27012887  0.24188929  0.63063071  1  0  -0.951047  0  1.645579  0  -1.077197  0  -0.94416  0  1.96048  0  -1.111931  0  -0.986021  0  1.940169  0  0  -0.644438  -0.911369  0  1.973795  0
O  O83  1  0.77012834  0.25810247  0.36937104  1  0  -0.95108  0  1.645643  0  -1.077156  0  -0.944209  0  1.960561  0  -1.111906  0  -0.986065  0  1.940247  0  0  -0.644454  -0.911419  0  1.973877  0
