# generated using pymatgen
data_AlH5C12(ClO2)3
_symmetry_space_group_name_H-M   'P 1'
_cell_length_a   6.84973802
_cell_length_b   16.30946453
_cell_length_c   20.12471710
_cell_angle_alpha   109.39237123
_cell_angle_beta   90.00000128
_cell_angle_gamma   89.99969412
_symmetry_Int_Tables_number   1
_chemical_formula_structural   AlH5C12(ClO2)3
_chemical_formula_sum   'Al4 H20 C48 Cl12 O24'
_cell_volume   2120.69411712
_cell_formula_units_Z   4
loop_
 _symmetry_equiv_pos_site_id
 _symmetry_equiv_pos_as_xyz
  1  'x, y, z'
loop_
 _atom_site_type_symbol
 _atom_site_label
 _atom_site_symmetry_multiplicity
 _atom_site_fract_x
 _atom_site_fract_y
 _atom_site_fract_z
 _atom_site_occupancy
 _atom_site_pbe_bader_charge
 _atom_site_pbe_bader_spin_density
 _atom_site_pbe_cm5_charge
 _atom_site_pbe_ddec_charge
 _atom_site_pbe_ddec_spin_density
 _atom_site_pbe_ddec_sum_bond_order
 _atom_site_pbe_magmom
Al  Al0  1  0.00651707  0.50467999  0.50646039  1  2.506145  0  0.401714  1.644012  0  2.557924  0
Al  Al1  1  0.99348177  0.00468111  0.00646023  1  2.506116  0  0.401734  1.644055  0  2.557733  0
Al  Al2  1  0.50741505  0.50571934  0.50392318  1  2.503865  0  0.400599  1.642582  0  2.555753  0
Al  Al3  1  0.49258231  0.00571875  0.00392020  1  2.50377  0  0.400633  1.642509  0  2.555874  0
H  H4  1  0.03501928  0.67697345  0.24507214  1  0.106878  0  0.105621  0.126068  0  0.997534  0
H  H5  1  0.96497177  0.17697303  0.74507348  1  0.106877  0  0.105637  0.126064  0  0.997487  0
H  H6  1  0.46650157  0.66667049  0.39321070  1  0.098063  0  0.102766  0.118626  0  1.035459  0
H  H7  1  0.53348236  0.16667331  0.89321137  1  0.098063  0  0.102734  0.118658  0  1.03549  0
H  H8  1  0.92752183  0.95581406  0.20461820  1  0.146879  0  0.112188  0.132093  0  0.989565  0
H  H9  1  0.07247174  0.45581213  0.70462118  1  0.147357  0  0.112164  0.132058  0  0.989674  0
H  H10  1  0.03167484  0.65594653  0.71360371  1  0.111181  0  0.094853  0.107374  0  1.113294  0
H  H11  1  0.96832666  0.15594894  0.21360516  1  0.1112  0  0.094797  0.107309  0  1.113365  0
H  H12  1  0.27276250  0.72137602  0.67125534  1  0.155104  0  0.114081  0.114562  0  0.96844  0
H  H13  1  0.72723530  0.22137294  0.17125215  1  0.155099  0  0.114057  0.1145  0  0.968534  0
H  H14  1  0.29522852  0.81586609  0.82950475  1  0.16442  0  0.110304  0.109374  0  1.014623  0
H  H15  1  0.70478281  0.31586288  0.32950105  1  0.164193  0  0.110332  0.109393  0  1.014606  0
H  H16  1  0.30374891  0.74064853  0.33073082  1  0.61187  0  0.322102  0.355424  0  0.907764  0
H  H17  1  0.69624726  0.24065313  0.83073559  1  0.611891  0  0.322063  0.355269  0  0.907825  0
H  H18  1  0.13053823  0.70100946  0.82395853  1  0.624792  0  0.293662  0.31942  0  0.992409  0
H  H19  1  0.86946424  0.20100126  0.32395565  1  0.624871  0  0.293655  0.319416  0  0.992245  0
H  H20  1  0.25181783  0.60433937  0.49161159  1  0.615396  0  0.341077  0.416851  0  0.874718  0
H  H21  1  0.74818001  0.10434245  0.99161107  1  0.61532  0  0.341039  0.416826  0  0.874698  0
H  H22  1  0.75390104  0.39536690  0.50147550  1  0.62027  0  0.343856  0.424954  0  0.864644  0
H  H23  1  0.24609609  0.89536942  0.00147457  1  0.620322  0  0.343864  0.424854  0  0.864824  0
C  C24  1  0.25435790  0.38416628  0.39783880  1  1.628173  0  0.266526  0.664751  0  4.09602  0
C  C25  1  0.74563952  0.88416755  0.89783222  1  1.628111  0  0.266321  0.66455  0  4.096354  0
C  C26  1  0.26066744  0.42181304  0.58293258  1  1.63744  0  0.271478  0.65935  0  4.093663  0
C  C27  1  0.73933233  0.92181317  0.08293335  1  1.637111  0  0.271434  0.65908  0  4.093758  0
C  C28  1  0.75658742  0.62288298  0.61449306  1  1.585597  0  0.271819  0.651656  0  4.080028  0
C  C29  1  0.24341152  0.12288304  0.11449341  1  1.585534  0  0.271881  0.651685  0  4.080174  0
C  C30  1  0.76010453  0.58361307  0.42316058  1  1.597382  0  0.269836  0.662869  0  4.068024  0
C  C31  1  0.23989937  0.08361357  0.92316454  1  1.597533  0  0.26979  0.662893  0  4.068227  0
C  C32  1  0.91026591  0.67610494  0.27856472  1  0.022869  0  -0.099589  -0.201158  0  4.008611  0
C  C33  1  0.08972809  0.17610481  0.77856929  1  0.023044  0  -0.099511  -0.201039  0  4.008454  0
C  C34  1  0.92376013  0.63013490  0.32581548  1  0.051406  0  0.006261  0.112522  0  4.035461  0
C  C35  1  0.07623588  0.13013113  0.82581529  1  0.051238  0  0.0062  0.112414  0  4.035603  0
C  C36  1  0.76285327  0.62765412  0.36876402  1  0.027613  0  -0.019377  -0.079463  0  3.968296  0
C  C37  1  0.23713841  0.12765591  0.86876331  1  0.027407  0  -0.019376  -0.079387  0  3.968172  0
C  C38  1  0.59130193  0.67013425  0.36078557  1  0.019394  0  -0.102139  -0.220039  0  3.989141  0
C  C39  1  0.40869508  0.17013595  0.86078735  1  0.019363  0  -0.102182  -0.220237  0  3.989183  0
C  C40  1  0.57661642  0.71534592  0.31325125  1  0.496853  0  0.078895  0.268671  0  4.077977  0
C  C41  1  0.42337712  0.21535068  0.81325308  1  0.496759  0  0.078931  0.268732  0  4.078107  0
C  C42  1  0.73980511  0.71989716  0.27219007  1  -0.001093  0  -0.018399  0.00087  0  4.002239  0
C  C43  1  0.26018836  0.21989741  0.77219192  1  -0.001325  0  -0.018442  0.000809  0  4.002077  0
C  C44  1  0.83961838  0.84937398  0.23898158  1  0.069751  0  0.017544  0.116419  0  4.024067  0
C  C45  1  0.16036625  0.34937390  0.73898193  1  0.067068  0  0.017524  0.116432  0  4.02408  0
C  C46  1  0.84280216  0.89616384  0.19239864  1  0.033379  0  -0.088769  -0.161822  0  3.9808  0
C  C47  1  0.15718336  0.39616148  0.69240103  1  0.033431  0  -0.088715  -0.161727  0  3.980981  0
C  C48  1  0.73558945  0.86724315  0.12996547  1  0.033629  0  -0.009735  -0.060071  0  3.963968  0
C  C49  1  0.26440806  0.36724544  0.62996789  1  0.03319  0  -0.009713  -0.060137  0  3.963889  0
C  C50  1  0.62853326  0.78963209  0.11307629  1  0.08184  0  0.013147  0.063866  0  4.017754  0
C  C51  1  0.37146663  0.28963368  0.61307914  1  0.081572  0  0.013083  0.063812  0  4.017692  0
C  C52  1  0.63110008  0.74157081  0.15960137  1  0.14428  0  0.016275  0.059926  0  4.001051  0
C  C53  1  0.36889894  0.24157302  0.65960423  1  0.144615  0  0.016223  0.059922  0  4.001081  0
C  C54  1  0.73530828  0.77097739  0.22353053  1  0.040027  0  -0.008297  -0.008607  0  3.944979  0
C  C55  1  0.26468165  0.27097785  0.72353134  1  0.040206  0  -0.008251  -0.008655  0  3.944865  0
C  C56  1  0.59258157  0.80305788  0.78059774  1  -0.000494  0  -0.006915  0.039969  0  3.932919  0
C  C57  1  0.40741530  0.30305566  0.28059635  1  -0.000794  0  -0.006922  0.040066  0  3.932588  0
C  C58  1  0.74945611  0.81630109  0.82713547  1  0.016971  0  -0.012203  -0.170094  0  3.894333  0
C  C59  1  0.25055084  0.31629617  0.32713727  1  0.017189  0  -0.012211  -0.170119  0  3.894184  0
C  C60  1  0.90320833  0.75539541  0.80255332  1  0.527938  0  0.104405  0.328196  0  3.988677  0
C  C61  1  0.09679495  0.25539112  0.30255420  1  0.527229  0  0.104341  0.328049  0  3.989072  0
C  C62  1  0.90804825  0.69907222  0.73199639  1  -0.01095  0  -0.100895  -0.245278  0  3.962365  0
C  C63  1  0.09195421  0.19907269  0.23199685  1  -0.010808  0  -0.1009  -0.245239  0  3.962289  0
C  C64  1  0.75196788  0.68928682  0.68603358  1  0.056711  0  -0.006414  -0.022892  0  3.996557  0
C  C65  1  0.24803760  0.18928770  0.18603289  1  0.056768  0  -0.006497  -0.023014  0  3.996699  0
C  C66  1  0.58896281  0.73963846  0.71429751  1  -0.021611  0  -0.031919  -0.032849  0  3.984478  0
C  C67  1  0.41103916  0.23963253  0.21429448  1  -0.021638  0  -0.0318  -0.032729  0  3.984496  0
C  C68  1  0.37285096  0.73005418  0.71540536  1  0.046894  0  -0.02525  0.028508  0  3.688256  0
C  C69  1  0.62715843  0.23005509  0.21540232  1  0.046715  0  -0.025125  0.028717  0  3.68857  0
C  C70  1  0.37376291  0.81528412  0.78217235  1  0.082282  0  -0.04398  0.000729  0  3.799315  0
C  C71  1  0.62624696  0.31526650  0.28216736  1  0.082871  0  -0.044114  0.000542  0  3.799552  0
Cl  Cl72  1  0.34118464  0.63161667  0.74268123  1  -0.282777  0  -0.006388  -0.108088  0  1.427163  0
Cl  Cl73  1  0.65882447  0.13161256  0.24267649  1  -0.28279  0  -0.0064  -0.108119  0  1.427157  0
Cl  Cl74  1  0.28769046  0.90722294  0.76066979  1  -0.236077  0  -0.048202  -0.11089  0  1.37597  0
Cl  Cl75  1  0.71231832  0.40722154  0.26066769  1  -0.236176  0  -0.048255  -0.110976  0  1.375686  0
Cl  Cl76  1  0.14134659  0.57541128  0.32525620  1  -0.202966  0  0.017195  -0.055131  0  1.605126  0
Cl  Cl77  1  0.85864715  0.07540706  0.82525493  1  -0.202997  0  0.017172  -0.055136  0  1.605069  0
Cl  Cl78  1  0.96679966  0.89040858  0.31744162  1  -0.202027  0  -0.006696  -0.068639  0  1.455066  0
Cl  Cl79  1  0.03319328  0.39040636  0.81744358  1  -0.199527  0  -0.006698  -0.068647  0  1.455115  0
Cl  Cl80  1  0.50533461  0.75001194  0.03428410  1  -0.183238  0  0.005808  -0.047572  0  1.543022  0
Cl  Cl81  1  0.49467740  0.25001771  0.53428904  1  -0.183184  0  0.005842  -0.047524  0  1.542996  0
Cl  Cl82  1  0.51024785  0.64375230  0.13770192  1  -0.17287  0  0.003076  -0.052293  0  1.550855  0
Cl  Cl83  1  0.48976253  0.14375582  0.63770577  1  -0.172881  0  0.003025  -0.052361  0  1.550807  0
O  O84  1  0.42432320  0.44384093  0.56485875  1  -1.246491  0  -0.229203  -0.59284  0  2.387502  0
O  O85  1  0.57567630  0.94384053  0.06485387  1  -1.246068  0  -0.229181  -0.592661  0  2.387459  0
O  O86  1  0.09006533  0.41095629  0.42606784  1  -1.251219  0  -0.231982  -0.586896  0  2.369373  0
O  O87  1  0.90993762  0.91095808  0.92606691  1  -1.251167  0  -0.231935  -0.586862  0  2.369453  0
O  O88  1  0.92267872  0.56929881  0.44777359  1  -1.262366  0  -0.235035  -0.603618  0  2.397217  0
O  O89  1  0.07731952  0.06929940  0.94777036  1  -1.262211  0  -0.235045  -0.60367  0  2.397352  0
O  O90  1  0.09249154  0.44199297  0.56667292  1  -1.253893  0  -0.227346  -0.575158  0  2.317497  0
O  O91  1  0.90751966  0.94199411  0.06667255  1  -1.253957  0  -0.227352  -0.575106  0  2.31744  0
O  O92  1  0.92440713  0.59544270  0.58972553  1  -1.258828  0  -0.232841  -0.580317  0  2.334729  0
O  O93  1  0.07559650  0.09544340  0.08972809  1  -1.258809  0  -0.232852  -0.58033  0  2.334799  0
O  O94  1  0.42301237  0.41084095  0.42283981  1  -1.254645  0  -0.235724  -0.594968  0  2.335712  0
O  O95  1  0.57699350  0.91084884  0.92283506  1  -1.254624  0  -0.235633  -0.594928  0  2.335766  0
O  O96  1  0.25649858  0.55772424  0.51151583  1  -1.423982  0  -0.450809  -0.977279  0  2.131909  0
O  O97  1  0.74349525  0.05772335  0.01151685  1  -1.423917  0  -0.450757  -0.977258  0  2.131874  0
O  O98  1  0.59178124  0.60060955  0.58467445  1  -1.247748  0  -0.230833  -0.579786  0  2.334193  0
O  O99  1  0.40820919  0.10060692  0.08467201  1  -1.247708  0  -0.230895  -0.579749  0  2.334222  0
O  O100  1  0.59186901  0.56622333  0.44234188  1  -1.257176  0  -0.23541  -0.59472  0  2.349223  0
O  O101  1  0.40812051  0.06622548  0.94234001  1  -1.257168  0  -0.235296  -0.594614  0  2.349429  0
O  O102  1  0.75617816  0.45351907  0.49850964  1  -1.423805  0  -0.449571  -0.980422  0  2.144566  0
O  O103  1  0.24382286  0.95352083  0.99850760  1  -1.423842  0  -0.449604  -0.980299  0  2.144774  0
O  O104  1  0.40997185  0.75698506  0.30533032  1  -1.128387  0  -0.353546  -0.450868  0  2.327267  0
O  O105  1  0.59001098  0.25699037  0.80533466  1  -1.128329  0  -0.353473  -0.450627  0  2.327517  0
O  O106  1  0.03956514  0.74806529  0.84908888  1  -1.142582  0  -0.337522  -0.407725  0  2.33413  0
O  O107  1  0.96044701  0.24806033  0.34908705  1  -1.142181  0  -0.337448  -0.407621  0  2.334197  0
