# generated using pymatgen
data_ZnH18C24Br2(N3O2)2
_symmetry_space_group_name_H-M   'P 1'
_cell_length_a   5.77332527
_cell_length_b   25.18164992
_cell_length_c   27.02211503
_cell_angle_alpha   89.31766070
_cell_angle_beta   83.87431502
_cell_angle_gamma   83.42695753
_symmetry_Int_Tables_number   1
_chemical_formula_structural   ZnH18C24Br2(N3O2)2
_chemical_formula_sum   'Zn6 H108 C144 Br12 N36 O24'
_cell_volume   3880.41818275
_cell_formula_units_Z   6
loop_
 _symmetry_equiv_pos_site_id
 _symmetry_equiv_pos_as_xyz
  1  'x, y, z'
loop_
 _atom_site_type_symbol
 _atom_site_label
 _atom_site_symmetry_multiplicity
 _atom_site_fract_x
 _atom_site_fract_y
 _atom_site_fract_z
 _atom_site_occupancy
 _atom_site_pbe_bader_charge
 _atom_site_pbe_bader_spin_density
 _atom_site_pbe_cm5_charge
 _atom_site_pbe_ddec_charge
 _atom_site_pbe_ddec_spin_density
 _atom_site_pbe_ddec_sum_bond_order
 _atom_site_pbe_magmom
Zn  Zn0  1  0.40999843  0.75468271  0.27525873  1  1.03935  0  0.518892  0.554316  0  2.644724  0
Zn  Zn1  1  0.43845167  0.24529166  0.72467960  1  1.040575  0  0.519603  0.555665  0  2.643231  0
Zn  Zn2  1  0.43444177  0.25462103  0.22489912  1  1.040035  0  0.519416  0.55546  0  2.644408  0
Zn  Zn3  1  0.91479576  0.74537286  0.77521275  1  1.038685  0  0.519156  0.554841  0  2.644854  0
Zn  Zn4  1  0.62622846  0.50010481  0.49989442  1  1.029494  0  0.507235  0.545464  0  2.662654  0
Zn  Zn5  1  0.87647975  0.00016595  0.99991155  1  1.027221  0  0.507254  0.545523  0  2.662401  0
H  H6  1  0.43087409  0.64624398  0.23652173  1  0.152881  0  0.102709  0.080224  0  1.065233  0
H  H7  1  0.31212565  0.35371655  0.76341276  1  0.128253  0  0.102455  0.079574  0  1.064194  0
H  H8  1  0.41665782  0.14612664  0.26367205  1  0.126453  0  0.102789  0.080158  0  1.06435  0
H  H9  1  0.82692737  0.85376227  0.73644870  1  0.149157  0  0.102704  0.079608  0  1.064096  0
H  H10  1  0.21026603  0.56684670  0.24834420  1  0.147979  0  0.108524  0.114897  0  1.048008  0
H  H11  1  0.02443672  0.43314892  0.75144639  1  0.148786  0  0.10859  0.115233  0  1.048153  0
H  H12  1  0.20766837  0.06677060  0.25169132  1  0.150287  0  0.108673  0.114951  0  1.049004  0
H  H13  1  0.52637576  0.93307142  0.74829090  1  0.151078  0  0.108826  0.115216  0  1.047958  0
H  H14  1  0.71311885  0.65968080  0.35380525  1  0.118806  0  0.10883  0.120619  0  1.007493  0
H  H15  1  0.72478500  0.34015625  0.64618514  1  0.103529  0  0.109123  0.120937  0  1.007178  0
H  H16  1  0.81589418  0.15980077  0.14641765  1  0.123241  0  0.109026  0.121348  0  1.007093  0
H  H17  1  0.12300211  0.84021159  0.85384680  1  0.101285  0  0.10914  0.121085  0  1.007755  0
H  H18  1  0.95551901  0.73520616  0.33825865  1  0.113845  0  0.10412  0.077962  0  1.040241  0
H  H19  1  0.02664545  0.26463480  0.66186597  1  0.122448  0  0.104145  0.077995  0  1.040028  0
H  H20  1  0.04285105  0.23526355  0.16211799  1  0.118883  0  0.104316  0.077723  0  1.040473  0
H  H21  1  0.44112930  0.76472632  0.83820062  1  0.125416  0  0.104377  0.077907  0  1.039509  0
H  H22  1  0.88167696  0.59087751  0.45404218  1  0.133086  0  0.109509  0.083666  0  1.019792  0
H  H23  1  0.92616764  0.40931638  0.54581271  1  0.094204  0  0.109969  0.083541  0  1.019484  0
H  H24  1  0.08570901  0.09088617  0.04594800  1  0.130935  0  0.109785  0.083384  0  1.019303  0
H  H25  1  0.22202350  0.90942168  0.95413276  1  0.098421  0  0.110014  0.083883  0  1.019763  0
H  H26  1  0.25158230  0.59867389  0.39732238  1  0.110746  0  0.111446  0.123596  0  1.001064  0
H  H27  1  0.24716062  0.40155724  0.60256576  1  0.127336  0  0.111599  0.124115  0  1.000483  0
H  H28  1  0.39875305  0.09860720  0.10272068  1  0.146069  0  0.111898  0.123948  0  0.99984  0
H  H29  1  0.59991460  0.90142160  0.89745127  1  0.150503  0  0.111638  0.123977  0  0.999645  0
H  H30  1  0.29203394  0.42903110  0.37053681  1  0.164059  0  0.109552  0.121156  0  1.048698  0
H  H31  1  0.09217733  0.57123352  0.62913604  1  0.15145  0  0.109458  0.121001  0  1.048768  0
H  H32  1  0.41270520  0.92891242  0.12918425  1  0.16317  0  0.109779  0.121302  0  1.049535  0
H  H33  1  0.47217064  0.07106509  0.87057792  1  0.154394  0  0.109633  0.120788  0  1.048802  0
H  H34  1  0.91872611  0.42847528  0.42734562  1  0.135503  0  0.106247  0.082301  0  1.035695  0
H  H35  1  0.77491498  0.57175093  0.57235789  1  0.116268  0  0.105946  0.081577  0  1.036702  0
H  H36  1  0.09620521  0.92846829  0.07236928  1  0.113945  0  0.106156  0.082447  0  1.03626  0
H  H37  1  0.09823070  0.07181747  0.92736330  1  0.116465  0  0.106118  0.081998  0  1.035318  0
H  H38  1  0.97535107  0.28292693  0.29170754  1  0.14655  0  0.101441  0.0882  0  1.054558  0
H  H39  1  0.55089353  0.71713390  0.70842076  1  0.150629  0  0.101567  0.088204  0  1.05408  0
H  H40  1  0.01706252  0.78292456  0.20874076  1  0.151341  0  0.101263  0.08831  0  1.053766  0
H  H41  1  0.00785466  0.21689152  0.79115025  1  0.153768  0  0.101387  0.087522  0  1.055588  0
H  H42  1  0.72858408  0.36582755  0.32207159  1  0.138681  0  0.111991  0.119359  0  1.033188  0
H  H43  1  0.41757917  0.63430227  0.67782896  1  0.156503  0  0.111681  0.118424  0  1.033188  0
H  H44  1  0.80083934  0.86570468  0.17819518  1  0.147371  0  0.111991  0.119306  0  1.033215  0
H  H45  1  0.84442089  0.13403725  0.82175577  1  0.154017  0  0.112008  0.119191  0  1.03192  0
H  H46  1  0.25062256  0.45591863  0.24436629  1  0.11556  0  0.111362  0.124722  0  1.033363  0
H  H47  1  0.95190711  0.54403009  0.75540687  1  0.152963  0  0.111511  0.125012  0  1.033331  0
H  H48  1  0.24628242  0.95607737  0.25535170  1  0.116301  0  0.111548  0.125098  0  1.032735  0
H  H49  1  0.45744225  0.04382075  0.74454210  1  0.142296  0  0.111018  0.124259  0  1.033479  0
H  H50  1  0.46967169  0.36841117  0.21412548  1  0.110323  0  0.10635  0.077055  0  1.036866  0
H  H51  1  0.05289132  0.63147633  0.78591997  1  0.111998  0  0.106249  0.076641  0  1.037979  0
H  H52  1  0.43508439  0.86869091  0.28577179  1  0.090743  0  0.106843  0.077553  0  1.036393  0
H  H53  1  0.58910446  0.13128601  0.71414422  1  0.106951  0  0.106368  0.077249  0  1.036959  0
H  H54  1  0.97423633  0.33832703  0.44052961  1  0.132969  0  0.106095  0.112506  0  1.038108  0
H  H55  1  0.75465580  0.66180649  0.55963414  1  0.119736  0  0.106312  0.112673  0  1.037355  0
H  H56  1  0.16544350  0.83815488  0.05919228  1  0.127463  0  0.105888  0.111942  0  1.038806  0
H  H57  1  0.06092779  0.16190938  0.94084891  1  0.122385  0  0.105624  0.112336  0  1.038433  0
H  H58  1  0.77646087  0.30929100  0.52090487  1  0.097018  0  0.096287  0.099075  0  1.023845  0
H  H59  1  0.60791898  0.69070605  0.47923466  1  0.086941  0  0.096077  0.09857  0  1.024319  0
H  H60  1  0.04928103  0.80892809  0.97871351  1  0.093623  0  0.096424  0.099255  0  1.022365  0
H  H61  1  0.83608983  0.19102792  0.02141361  1  0.105425  0  0.096707  0.099438  0  1.023298  0
H  H62  1  0.98851811  0.24253419  0.57361008  1  0.114851  0  0.089814  0.09636  0  1.042236  0
H  H63  1  0.80574370  0.75742641  0.42642775  1  0.108264  0  0.089731  0.096222  0  1.043324  0
H  H64  1  0.31517939  0.74218902  0.92617555  1  0.112432  0  0.089867  0.096124  0  1.042644  0
H  H65  1  0.98374840  0.25758196  0.07401539  1  0.11066  0  0.090091  0.096622  0  1.041901  0
H  H66  1  0.40448564  0.20696672  0.54724735  1  0.075451  0  0.096512  0.103977  0  1.017728  0
H  H67  1  0.15999309  0.79302158  0.45265829  1  0.095381  0  0.096619  0.103752  0  1.017585  0
H  H68  1  0.70465748  0.70689653  0.95273317  1  0.075913  0  0.096493  0.103403  0  1.018261  0
H  H69  1  0.36464601  0.29276720  0.04739018  1  0.070803  0  0.096252  0.103526  0  1.018492  0
H  H70  1  0.60470546  0.23833774  0.46697279  1  0.090752  0  0.109326  0.11193  0  1.032164  0
H  H71  1  0.31155476  0.76180956  0.53293494  1  0.098942  0  0.109863  0.112877  0  1.031647  0
H  H72  1  0.82323030  0.73840749  0.03309327  1  0.114982  0  0.109535  0.112484  0  1.032001  0
H  H73  1  0.59420641  0.26137598  0.96693247  1  0.112739  0  0.109582  0.112605  0  1.031461  0
H  H74  1  0.14847761  0.54489459  0.14433107  1  0.100853  0  0.111113  0.117833  0  1.013024  0
H  H75  1  0.83740058  0.45479010  0.85556895  1  0.107136  0  0.11087  0.117613  0  1.012197  0
H  H76  1  0.04384093  0.04510275  0.35561418  1  0.098289  0  0.111024  0.117804  0  1.012462  0
H  H77  1  0.44360644  0.95493467  0.64428479  1  0.101244  0  0.111126  0.118021  0  1.012427  0
H  H78  1  0.43340831  0.47708575  0.09510734  1  0.11605  0  0.100976  0.099078  0  1.033023  0
H  H79  1  0.00659138  0.52238462  0.90481638  1  0.103694  0  0.101415  0.099911  0  1.03278  0
H  H80  1  0.28055335  0.97738995  0.40467936  1  0.116123  0  0.101212  0.099381  0  1.033253  0
H  H81  1  0.66165622  0.02266715  0.59517991  1  0.109114  0  0.101457  0.09957  0  1.033032  0
H  H82  1  0.34105603  0.38456251  0.08825642  1  0.095798  0  0.100845  0.10357  0  1.023022  0
H  H83  1  0.81662061  0.61503630  0.91166850  1  0.079167  0  0.100603  0.103805  0  1.023252  0
H  H84  1  0.18197857  0.88482133  0.41159660  1  0.078332  0  0.100516  0.103432  0  1.023981  0
H  H85  1  0.47769701  0.11527336  0.58842931  1  0.103618  0  0.100718  0.103995  0  1.024181  0
H  H86  1  0.95570641  0.35824660  0.12661219  1  0.071505  0  0.094174  0.099923  0  1.025856  0
H  H87  1  0.44370822  0.64171993  0.87328027  1  0.104109  0  0.094205  0.099727  0  1.025993  0
H  H88  1  0.83523121  0.85831741  0.37325129  1  0.112889  0  0.094098  0.099772  0  1.025997  0
H  H89  1  0.06639932  0.14178445  0.62685902  1  0.07421  0  0.093855  0.099344  0  1.025398  0
H  H90  1  0.67038036  0.42620961  0.17350567  1  0.11626  0  0.107761  0.110125  0  1.035216  0
H  H91  1  0.27195260  0.57397222  0.82634644  1  0.106641  0  0.107957  0.110098  0  1.034803  0
H  H92  1  0.59599489  0.92617108  0.32643546  1  0.105986  0  0.107762  0.109963  0  1.034987  0
H  H93  1  0.84822309  0.07390719  0.67368339  1  0.104118  0  0.107655  0.109858  0  1.03536  0
H  H94  1  0.65917303  0.55268984  0.03863589  1  0.1552  0  0.1085  0.118704  0  1.043781  0
H  H95  1  0.25091312  0.44732825  0.96141432  1  0.161971  0  0.109204  0.119754  0  1.043636  0
H  H96  1  0.44794026  0.05235564  0.46201740  1  0.149456  0  0.108949  0.118882  0  1.045007  0
H  H97  1  0.96130652  0.94755091  0.53864466  1  0.154057  0  0.108822  0.119221  0  1.043956  0
H  H98  1  0.74245725  0.60608302  0.11144902  1  0.110854  0  0.099798  0.101693  0  1.028933  0
H  H99  1  0.46045346  0.39392773  0.88859707  1  0.100723  0  0.1  0.101705  0  1.028654  0
H  H100  1  0.60605265  0.10546008  0.38924941  1  0.109261  0  0.100436  0.102681  0  1.028705  0
H  H101  1  0.09881524  0.89415361  0.61134394  1  0.107758  0  0.100041  0.101995  0  1.029429  0
H  H102  1  0.45387349  0.67976631  0.14588351  1  0.134557  0  0.088043  0.094965  0  1.055965  0
H  H103  1  0.28018123  0.32014251  0.85424470  1  0.09972  0  0.088247  0.094593  0  1.056007  0
H  H104  1  0.35370562  0.17931560  0.35457411  1  0.116553  0  0.088238  0.095561  0  1.05666  0
H  H105  1  0.88491462  0.82026462  0.64567053  1  0.144915  0  0.088316  0.095145  0  1.055289  0
H  H106  1  0.07728197  0.70253613  0.10832512  1  0.117447  0  0.103289  0.112798  0  1.002801  0
H  H107  1  0.88878079  0.29736124  0.89178148  1  0.11377  0  0.103684  0.113113  0  1.002023  0
H  H108  1  0.93933337  0.20251582  0.39185239  1  0.125571  0  0.103379  0.11285  0  1.001729  0
H  H109  1  0.53113142  0.79735391  0.60812443  1  0.104099  0  0.103534  0.113343  0  1.00226  0
H  H110  1  0.99929521  0.65038535  0.03427999  1  0.101404  0  0.10863  0.111353  0  1.030935  0
H  H111  1  0.68409630  0.34968279  0.96565940  1  0.103433  0  0.108952  0.111692  0  1.030621  0
H  H112  1  0.78519929  0.15058219  0.46579281  1  0.099206  0  0.108513  0.110944  0  1.030918  0
H  H113  1  0.39993504  0.84958767  0.53426804  1  0.104608  0  0.10902  0.111454  0  1.030737  0
C  C114  1  0.27000070  0.64745350  0.26183328  1  0.423395  0  0.044689  0.095834  0  3.909676  0
C  C115  1  0.17775250  0.35248154  0.73809909  1  0.495325  0  0.04553  0.098321  0  3.90806  0
C  C116  1  0.28103182  0.14738003  0.23837055  1  0.439335  0  0.044932  0.096976  0  3.908771  0
C  C117  1  0.66733242  0.85252497  0.76177480  1  0.425397  0  0.045648  0.098565  0  3.907058  0
C  C118  1  0.14595546  0.60359417  0.26847053  1  0.017924  0  -0.071079  -0.12176  0  3.90769  0
C  C119  1  0.01681877  0.39636076  0.73138468  1  -0.003791  0  -0.071348  -0.123846  0  3.909454  0
C  C120  1  0.16355082  0.10356060  0.23166185  1  0.057511  0  -0.071186  -0.122376  0  3.909918  0
C  C121  1  0.49923912  0.89632990  0.76842901  1  0.012889  0  -0.071537  -0.123614  0  3.910057  0
C  C122  1  0.94267065  0.60692027  0.30208054  1  -0.003493  0  0.016679  0.048474  0  3.940795  0
C  C123  1  0.85045808  0.39303466  0.69777664  1  -0.009359  0  0.016069  0.048645  0  3.940693  0
C  C124  1  0.99383924  0.10695057  0.19805275  1  -0.037633  0  0.016355  0.048147  0  3.941271  0
C  C125  1  0.29948501  0.89297018  0.80208921  1  0.004189  0  0.015385  0.048044  0  3.9419  0
C  C126  1  0.87094591  0.65498163  0.32761518  1  -0.002194  0  -0.073879  -0.141981  0  3.927883  0
C  C127  1  0.85181074  0.34492026  0.67235816  1  -0.012106  0  -0.073419  -0.141319  0  3.926967  0
C  C128  1  0.94749900  0.15504212  0.17260919  1  -0.025845  0  -0.073407  -0.141666  0  3.928058  0
C  C129  1  0.27599437  0.84492273  0.82762146  1  0.004017  0  -0.073568  -0.141913  0  3.927651  0
C  C130  1  0.00623110  0.69714891  0.31914112  1  0.501982  0  0.045288  0.091373  0  3.941817  0
C  C131  1  0.02051893  0.30272681  0.68090712  1  0.483046  0  0.044401  0.090904  0  3.94292  0
C  C132  1  0.07436630  0.19717549  0.18115849  1  0.509907  0  0.044871  0.090691  0  3.942239  0
C  C133  1  0.45355797  0.80278732  0.81910235  1  0.493122  0  0.044943  0.091559  0  3.940797  0
C  C134  1  0.81973282  0.55869308  0.31108427  1  1.100135  0  0.264928  0.378826  0  3.997621  0
C  C135  1  0.68898519  0.44135492  0.68871923  1  1.085252  0  0.265613  0.380244  0  3.998609  0
C  C136  1  0.88016277  0.05868590  0.18896220  1  1.109223  0  0.265021  0.37991  0  3.99792  0
C  C137  1  0.12845982  0.94120039  0.81113783  1  1.11134  0  0.265223  0.379877  0  3.998919  0
C  C138  1  0.83384251  0.46869726  0.30222940  1  1.11381  0  0.263019  0.370938  0  4.034345  0
C  C139  1  0.60546137  0.53138922  0.69751619  1  1.082392  0  0.262801  0.371348  0  4.03323  0
C  C140  1  0.88626762  0.96865881  0.19771189  1  1.113707  0  0.262361  0.370921  0  4.032562  0
C  C141  1  0.05302164  0.03117799  0.80226013  1  1.096483  0  0.262896  0.372244  0  4.034834  0
C  C142  1  0.52330858  0.51500143  0.34720693  1  1.10557  0  0.265928  0.385597  0  3.972613  0
C  C143  1  0.38547163  0.48519726  0.65257766  1  1.108093  0  0.267385  0.386181  0  3.972575  0
C  C144  1  0.62025829  0.01490754  0.15277612  1  1.090218  0  0.266254  0.385628  0  3.971618  0
C  C145  1  0.78866562  0.98497209  0.84729543  1  1.093682  0  0.266856  0.386872  0  3.970856  0
C  C146  1  0.97804415  0.55631902  0.43425121  1  0.45886  0  0.0455  0.095836  0  3.918304  0
C  C147  1  0.96835107  0.44388383  0.56557563  1  0.470105  0  0.044967  0.096729  0  3.919398  0
C  C148  1  0.16220865  0.05631141  0.06570815  1  0.465127  0  0.045457  0.097071  0  3.9182  0
C  C149  1  0.28422336  0.94391985  0.93432536  1  0.480648  0  0.044802  0.095578  0  3.919666  0
C  C150  1  0.18204438  0.56045747  0.40274147  1  0.067203  0  -0.073594  -0.136167  0  3.93872  0
C  C151  1  0.14491109  0.43976599  0.59710142  1  0.020301  0  -0.074163  -0.137697  0  3.941268  0
C  C152  1  0.33457445  0.06040163  0.09726404  1  -0.042273  0  -0.074087  -0.136627  0  3.939056  0
C  C153  1  0.49240897  0.93967786  0.90283200  1  0.014344  0  -0.073609  -0.136354  0  3.938194  0
C  C154  1  0.29913679  0.51430992  0.37918830  1  -0.033363  0  0.012441  0.04144  0  3.938601  0
C  C155  1  0.19259079  0.48593024  0.62059925  1  -0.032376  0  0.012371  0.041003  0  3.939987  0
C  C156  1  0.42816846  0.01422023  0.12075604  1  -0.031438  0  0.01206  0.040475  0  3.938379  0
C  C157  1  0.56387330  0.98577282  0.87927576  1  -0.067183  0  0.011462  0.04  0  3.93966  0
C  C158  1  0.20473854  0.46578742  0.38776574  1  -0.06273  0  -0.075447  -0.134081  0  3.93272  0
C  C159  1  0.05858915  0.53447143  0.61195158  1  0.052509  0  -0.075817  -0.133994  0  3.932101  0
C  C160  1  0.34254975  0.96569571  0.11204042  1  0.017144  0  -0.076207  -0.134435  0  3.933419  0
C  C161  1  0.42134768  0.03435320  0.88784302  1  0.019504  0  -0.075871  -0.133231  0  3.931795  0
C  C162  1  0.99994534  0.46508959  0.41936875  1  0.45581  0  0.039906  0.090559  0  3.920449  0
C  C163  1  0.88464995  0.53515029  0.58035886  1  0.438625  0  0.03969  0.091058  0  3.920668  0
C  C164  1  0.16941640  0.96504808  0.08042155  1  0.456167  0  0.040199  0.090818  0  3.922578  0
C  C165  1  0.21574946  0.03515585  0.91943727  1  0.461867  0  0.040766  0.090567  0  3.921821  0
C  C166  1  0.02979946  0.32196849  0.28154506  1  0.515175  0  0.052335  0.10593  0  3.895964  0
C  C167  1  0.63429130  0.67806794  0.71849684  1  0.481611  0  0.052111  0.105407  0  3.895814  0
C  C168  1  0.06172558  0.82199619  0.21872948  1  0.475105  0  0.05168  0.104454  0  3.89624  0
C  C169  1  0.10182178  0.17784084  0.78118709  1  0.478217  0  0.052683  0.106843  0  3.896046  0
C  C170  1  0.89135091  0.36847036  0.29823958  1  -0.024795  0  -0.066005  -0.122971  0  3.878215  0
C  C171  1  0.55917471  0.63160640  0.70166185  1  -0.018466  0  -0.065474  -0.120734  0  3.876659  0
C  C172  1  0.94001301  0.86843329  0.20192693  1  -0.004082  0  -0.06533  -0.121101  0  3.87806  0
C  C173  1  0.01003112  0.13136616  0.79800331  1  -0.0022  0  -0.066307  -0.122202  0  3.877643  0
C  C174  1  0.96868177  0.41771528  0.28458356  1  -0.003507  0  0.016259  0.048661  0  3.933361  0
C  C175  1  0.67205485  0.58232034  0.71522093  1  -0.016533  0  0.015225  0.046814  0  3.935616  0
C  C176  1  0.00392685  0.91772668  0.21538300  1  -0.065691  0  0.015649  0.047561  0  3.935502  0
C  C177  1  0.13695876  0.08210707  0.78454141  1  -0.012317  0  0.016279  0.047078  0  3.935891  0
C  C178  1  0.18311145  0.41838618  0.25492806  1  -0.042354  0  -0.072485  -0.136481  0  3.913825  0
C  C179  1  0.85744718  0.58159067  0.74490562  1  -0.086894  0  -0.072  -0.136052  0  3.914557  0
C  C180  1  0.18909504  0.91850522  0.24493386  1  0.01268  0  -0.072646  -0.137076  0  3.916368  0
C  C181  1  0.35229459  0.08138904  0.75496312  1  -0.043797  0  -0.071806  -0.135276  0  3.915316  0
C  C182  1  0.30651938  0.37028966  0.23871253  1  0.471999  0  0.046424  0.094944  0  3.929527  0
C  C183  1  0.91640695  0.62965234  0.76127340  1  0.518321  0  0.046284  0.095422  0  3.929674  0
C  C184  1  0.29630848  0.87047487  0.26125857  1  0.484825  0  0.046079  0.094735  0  3.929638  0
C  C185  1  0.42758191  0.12946286  0.73865467  1  0.483457  0  0.04685  0.094901  0  3.928812  0
C  C186  1  0.29920144  0.28961611  0.45022394  1  0.123918  0  0.071339  0.059055  0  3.950822  0
C  C187  1  0.04062048  0.71053892  0.54981933  1  0.132244  0  0.071923  0.060398  0  3.951061  0
C  C188  1  0.50047407  0.78956750  0.04967768  1  0.147283  0  0.072091  0.060875  0  3.950907  0
C  C189  1  0.33850511  0.21036672  0.95032599  1  0.12352  0  0.07198  0.060035  0  3.951359  0
C  C190  1  0.06670606  0.30995261  0.46423669  1  -0.030614  0  -0.078173  -0.115689  0  3.96462  0
C  C191  1  0.84235461  0.69016021  0.53586629  1  -0.00778  0  -0.078782  -0.116672  0  3.963168  0
C  C192  1  0.28207559  0.80978921  0.03553860  1  0.022989  0  -0.078482  -0.115596  0  3.964791  0
C  C193  1  0.12601468  0.19021417  0.96450556  1  -0.016213  0  -0.078614  -0.117416  0  3.965827  0
C  C194  1  0.95691623  0.29300133  0.50916242  1  0.007884  0  -0.088083  -0.073738  0  3.982776  0
C  C195  1  0.76036676  0.70703039  0.49093961  1  0.00605  0  -0.087444  -0.071958  0  3.981426  0
C  C196  1  0.21793376  0.79273025  0.99056512  1  0.031765  0  -0.088118  -0.074614  0  3.980937  0
C  C197  1  0.00038461  0.20720953  0.00952783  1  -0.041877  0  -0.088138  -0.073253  0  3.982455  0
C  C198  1  0.07750088  0.25572888  0.53873060  1  -0.062794  0  -0.079691  -0.056212  0  3.945163  0
C  C199  1  0.87318766  0.74426928  0.46130022  1  -0.036227  0  -0.079582  -0.056502  0  3.944621  0
C  C200  1  0.36871725  0.75547803  0.96107892  1  -0.087627  0  -0.079845  -0.055663  0  3.944858  0
C  C201  1  0.08506153  0.24435565  0.03905085  1  0.002313  0  -0.079931  -0.056931  0  3.946181  0
C  C202  1  0.30989944  0.23536537  0.52371042  1  0.000441  0  -0.086897  -0.069615  0  3.981187  0
C  C203  1  0.07027666  0.76467098  0.47624275  1  -0.058033  0  -0.08701  -0.069177  0  3.978849  0
C  C204  1  0.58600118  0.73524732  0.97621635  1  -0.08545  0  -0.086596  -0.06848  0  3.980301  0
C  C205  1  0.29734787  0.26451077  0.02387846  1  -0.044269  0  -0.086971  -0.069122  0  3.980156  0
C  C206  1  0.42292739  0.25250926  0.47929599  1  -0.011596  0  -0.079283  -0.119453  0  3.972697  0
C  C207  1  0.15619685  0.74760608  0.52066971  1  -0.004088  0  -0.080211  -0.121659  0  3.97267  0
C  C208  1  0.65387644  0.75249053  0.02068114  1  0.003401  0  -0.07945  -0.120918  0  3.970978  0
C  C209  1  0.42646775  0.24731772  0.97934216  1  -0.000862  0  -0.079477  -0.120168  0  3.970795  0
C  C210  1  0.89733409  0.48823798  0.16145301  1  0.218743  0  0.072827  0.052737  0  3.96031  0
C  C211  1  0.54769817  0.51171113  0.83840968  1  0.185848  0  0.072268  0.05161  0  3.958409  0
C  C212  1  0.81019696  0.98831576  0.33850315  1  0.203329  0  0.072527  0.050468  0  3.961148  0
C  C213  1  0.13643507  0.01173907  0.66151483  1  0.265245  0  0.072523  0.051798  0  3.960507  0
C  C214  1  0.10959582  0.50405223  0.13979137  1  -0.094119  0  -0.077399  -0.115682  0  3.949224  0
C  C215  1  0.75390059  0.49569459  0.86009136  1  -0.0109  0  -0.07714  -0.115662  0  3.948429  0
C  C216  1  0.00082350  0.00422798  0.36011675  1  -0.048585  0  -0.076744  -0.113893  0  3.948492  0
C  C217  1  0.36436982  0.99582203  0.63982508  1  -0.032863  0  -0.077327  -0.116225  0  3.948606  0
C  C218  1  0.26748103  0.46623634  0.11305408  1  -0.027011  0  -0.082434  -0.061361  0  3.964211  0
C  C219  1  0.84790304  0.53339474  0.88686247  1  -0.008384  0  -0.083359  -0.062375  0  3.966052  0
C  C220  1  0.13245672  0.96647287  0.38679260  1  -0.052539  0  -0.083064  -0.062247  0  3.965499  0
C  C221  1  0.48490220  0.03360490  0.61313697  1  -0.016259  0  -0.083011  -0.060932  0  3.96499  0
C  C222  1  0.21371363  0.41380146  0.10863137  1  -0.041495  0  -0.07278  -0.046855  0  3.927036  0
C  C223  1  0.73822670  0.58590170  0.89128923  1  -0.056577  0  -0.072073  -0.047112  0  3.927229  0
C  C224  1  0.07471417  0.91399952  0.39122485  1  0.002897  0  -0.072285  -0.047113  0  3.928417  0
C  C225  1  0.37928326  0.08608158  0.60878607  1  -0.109069  0  -0.072844  -0.048851  0  3.92798  0
C  C226  1  0.99961248  0.39891135  0.13018311  1  0.024001  0  -0.087729  -0.07081  0  3.982248  0
C  C227  1  0.53096449  0.60098403  0.86973708  1  0.000754  0  -0.087944  -0.070669  0  3.982946  0
C  C228  1  0.88224403  0.89901061  0.36970721  1  -0.035663  0  -0.087798  -0.069979  0  3.982363  0
C  C229  1  0.15039036  0.10107126  0.63036609  1  0.040415  0  -0.086464  -0.068338  0  3.980591  0
C  C230  1  0.83902105  0.43634257  0.15665018  1  0.037584  0  -0.079135  -0.119611  0  3.976659  0
C  C231  1  0.43360575  0.56368682  0.84324190  1  0.001174  0  -0.078776  -0.118195  0  3.974632  0
C  C232  1  0.74768484  0.93637566  0.34328040  1  0.034375  0  -0.079088  -0.118959  0  3.975903  0
C  C233  1  0.02682739  0.06370230  0.65678110  1  -0.018563  0  -0.079509  -0.119562  0  3.977093  0
C  C234  1  0.32526745  0.59961777  0.03344585  1  0.147054  0  0.071633  0.056389  0  3.955535  0
C  C235  1  0.95862137  0.40044345  0.96652734  1  0.17527  0  0.072248  0.057756  0  3.953469  0
C  C236  1  0.10954465  0.09954679  0.46690734  1  0.205709  0  0.072373  0.057236  0  3.952968  0
C  C237  1  0.67482801  0.90049427  0.53344294  1  0.159737  0  0.071765  0.057205  0  3.952376  0
C  C238  1  0.53545663  0.58575813  0.05412977  1  -0.025087  0  -0.078745  -0.119841  0  3.953729  0
C  C239  1  0.17573694  0.41427130  0.94588403  1  -0.062866  0  -0.080288  -0.122813  0  3.955822  0
C  C240  1  0.34053015  0.08549480  0.44642046  1  0.005362  0  -0.079862  -0.120434  0  3.954299  0
C  C241  1  0.87109666  0.91440191  0.55411558  1  -0.048504  0  -0.079903  -0.121793  0  3.954899  0
C  C242  1  0.57944189  0.61544539  0.09461658  1  -0.073861  0  -0.089276  -0.073248  0  3.97072  0
C  C243  1  0.28999949  0.38455104  0.90543383  1  0.017664  0  -0.08889  -0.072594  0  3.969448  0
C  C244  1  0.42618476  0.11504714  0.40596932  1  -0.106945  0  -0.089672  -0.0748  0  3.971904  0
C  C245  1  0.94528633  0.88469587  0.59452337  1  -0.04818  0  -0.090121  -0.074584  0  3.971191  0
C  C246  1  0.41527845  0.65717543  0.11411870  1  -0.068355  0  -0.07848  -0.050725  0  3.935387  0
C  C247  1  0.18715255  0.34277055  0.88596892  1  -0.089338  0  -0.079008  -0.050276  0  3.932897  0
C  C248  1  0.28255114  0.15685271  0.38632922  1  0.005699  0  -0.078927  -0.051126  0  3.93529  0
C  C249  1  0.82335205  0.84286620  0.61395514  1  -0.071138  0  -0.077712  -0.048803  0  3.932378  0
C  C250  1  0.20539495  0.67014832  0.09290766  1  -0.063018  0  -0.08403  -0.068968  0  3.966894  0
C  C251  1  0.96897230  0.32980545  0.90716499  1  -0.059555  0  -0.084078  -0.069459  0  3.96674  0
C  C252  1  0.05129096  0.17006176  0.40737802  1  -0.141876  0  -0.083681  -0.068625  0  3.967267  0
C  C253  1  0.62645664  0.82982347  0.59275669  1  -0.075267  0  -0.084593  -0.070428  0  3.967676  0
C  C254  1  0.16013107  0.64153423  0.05188187  1  0.031313  0  -0.080138  -0.126675  0  3.980303  0
C  C255  1  0.85380939  0.35850845  0.94810625  1  0.002739  0  -0.080313  -0.126608  0  3.979687  0
C  C256  1  0.96381134  0.14155498  0.44833870  1  0.003375  0  -0.079689  -0.125907  0  3.980952  0
C  C257  1  0.55200993  0.85849804  0.55183131  1  0.020132  0  -0.079936  -0.126432  0  3.980392  0
Br  Br258  1  0.48506149  0.78291030  0.35614059  1  -0.613845  0  -0.270125  -0.464935  0  1.237125  0
Br  Br259  1  0.62196464  0.21709356  0.64372440  1  -0.613954  0  -0.270113  -0.465186  0  1.237057  0
Br  Br260  1  0.58930790  0.28286211  0.14392906  1  -0.61448  0  -0.269819  -0.464915  0  1.23606  0
Br  Br261  1  0.01735657  0.71709434  0.85612652  1  -0.614048  0  -0.269941  -0.46467  0  1.236523  0
Br  Br262  1  0.70335787  0.72078241  0.21127777  1  -0.573678  0  -0.247452  -0.424895  0  1.358019  0
Br  Br263  1  0.63502322  0.27932709  0.78844970  1  -0.574349  0  -0.247693  -0.425108  0  1.357038  0
Br  Br264  1  0.66401722  0.22087660  0.28886624  1  -0.57305  0  -0.247368  -0.42513  0  1.359247  0
Br  Br265  1  0.17447186  0.77920913  0.71124869  1  -0.574055  0  -0.24759  -0.42493  0  1.357674  0
Br  Br266  1  0.50558355  0.41479158  0.48768153  1  -0.585812  0  -0.264259  -0.42948  0  1.296612  0
Br  Br267  1  0.40791500  0.58538483  0.51216456  1  -0.586178  0  -0.26405  -0.42936  0  1.297297  0
Br  Br268  1  0.74362814  0.91484874  0.01217444  1  -0.585182  0  -0.264427  -0.42965  0  1.295358  0
Br  Br269  1  0.67006629  0.08541113  0.98779747  1  -0.58689  0  -0.264479  -0.429604  0  1.296349  0
N  N270  1  0.20230815  0.69352171  0.28692939  1  -1.277936  0  -0.329825  -0.198433  0  3.576657  0
N  N271  1  0.18092846  0.30638039  0.71306734  1  -1.26156  0  -0.330123  -0.199665  0  3.578484  0
N  N272  1  0.23837648  0.19346902  0.21332993  1  -1.266365  0  -0.330485  -0.199275  0  3.577125  0
N  N273  1  0.64595343  0.80645582  0.78688394  1  -1.277015  0  -0.330149  -0.199621  0  3.576398  0
N  N274  1  0.61307405  0.56188428  0.33955911  1  -1.177513  0  -0.294545  -0.385678  0  3.17488  0
N  N275  1  0.51377630  0.43825231  0.66027332  1  -1.175537  0  -0.295451  -0.386504  0  3.175476  0
N  N276  1  0.70190016  0.06183686  0.16051543  1  -1.165889  0  -0.294387  -0.385277  0  3.17507  0
N  N277  1  0.92500572  0.93805783  0.83964369  1  -1.180009  0  -0.294576  -0.386078  0  3.173458  0
N  N278  1  0.62683773  0.46744941  0.32955517  1  -1.180681  0  -0.293156  -0.379489  0  3.208466  0
N  N279  1  0.42450489  0.53273831  0.67018349  1  -1.175036  0  -0.293461  -0.379385  0  3.207116  0
N  N280  1  0.70648737  0.96735242  0.17038285  1  -1.173812  0  -0.292623  -0.379108  0  3.204663  0
N  N281  1  0.84485869  0.03250264  0.82961069  1  -1.175438  0  -0.29324  -0.380175  0  3.207692  0
N  N282  1  0.93470451  0.51325227  0.29124008  1  -1.195109  0  -0.299827  -0.395404  0  3.268953  0
N  N283  1  0.73935046  0.48675447  0.70851450  1  -1.195617  0  -0.299913  -0.396173  0  3.268748  0
N  N284  1  0.97574626  0.01326322  0.20871706  1  -1.199527  0  -0.299716  -0.396568  0  3.270502  0
N  N285  1  0.19818649  0.98658619  0.79128056  1  -1.210621  0  -0.299921  -0.396333  0  3.27111  0
N  N286  1  0.88928606  0.50944993  0.44257007  1  -1.267  0  -0.33089  -0.203507  0  3.56687  0
N  N287  1  0.84129005  0.49076549  0.55721438  1  -1.265601  0  -0.329898  -0.202827  0  3.566754  0
N  N288  1  0.08192256  0.00944832  0.05731410  1  -1.260647  0  -0.330805  -0.203664  0  3.567089  0
N  N289  1  0.14898221  0.99083988  0.94262998  1  -1.260205  0  -0.330527  -0.202699  0  3.568354  0
N  N290  1  0.23090208  0.32280585  0.25150541  1  -1.252145  0  -0.327076  -0.197957  0  3.578472  0
N  N291  1  0.80612610  0.67716058  0.74857189  1  -1.250768  0  -0.326621  -0.198253  0  3.578287  0
N  N292  1  0.23316363  0.82294402  0.24866999  1  -1.238254  0  -0.325908  -0.197045  0  3.576741  0
N  N293  1  0.30411433  0.17696695  0.75125810  1  -1.252582  0  -0.327268  -0.198543  0  3.576118  0
N  N294  1  0.42092413  0.30882411  0.40419401  1  0.394232  0  0.055248  0.51594  0  4.19843  0
N  N295  1  0.13587667  0.69138431  0.59582108  1  0.383874  0  0.053828  0.513637  0  4.199632  0
N  N296  1  0.57534345  0.80887927  0.09576269  1  0.363606  0  0.05345  0.513064  0  4.200783  0
N  N297  1  0.47814804  0.19106590  0.90416154  1  0.381555  0  0.05596  0.517053  0  4.197868  0
N  N298  1  0.73183170  0.52683700  0.19078995  1  0.342395  0  0.051453  0.50762  0  4.198979  0
N  N299  1  0.44945612  0.47327276  0.80900141  1  0.352108  0  0.052352  0.509816  0  4.197647  0
N  N300  1  0.67328877  0.02685248  0.30925053  1  0.341348  0  0.051201  0.508607  0  4.195339  0
N  N301  1  0.00896444  0.97325390  0.69085660  1  0.338504  0  0.05174  0.510286  0  4.196959  0
N  N302  1  0.27480048  0.56908138  0.99080132  1  0.358139  0  0.058319  0.517543  0  4.195794  0
N  N303  1  0.83510211  0.43101650  0.00914642  1  0.359368  0  0.057812  0.516864  0  4.195795  0
N  N304  1  0.01528088  0.06907173  0.50944246  1  0.364442  0  0.056387  0.515583  0  4.194925  0
N  N305  1  0.59377479  0.93107431  0.49085627  1  0.368293  0  0.057946  0.51801  0  4.192303  0
O  O306  1  0.30316400  0.33730992  0.37585618  1  -0.485919  0  -0.132863  -0.340929  0  1.977061  0
O  O307  1  0.01854612  0.66289789  0.62421915  1  -0.489851  0  -0.132035  -0.33968  0  1.975821  0
O  O308  1  0.42862658  0.83729171  0.12404368  1  -0.491476  0  -0.131966  -0.339605  0  1.977283  0
O  O309  1  0.38744357  0.16272635  0.87591867  1  -0.493855  0  -0.13252  -0.340721  0  1.974373  0
O  O310  1  0.63579476  0.29614047  0.39593190  1  -0.490804  0  -0.127529  -0.338301  0  1.981722  0
O  O311  1  0.32992873  0.70410023  0.60397983  1  -0.480053  0  -0.126598  -0.337096  0  1.982317  0
O  O312  1  0.78193290  0.79635271  0.10411593  1  -0.473462  0  -0.126607  -0.33717  0  1.981424  0
O  O313  1  0.68064132  0.20352681  0.89571361  1  -0.476647  0  -0.128331  -0.339259  0  1.98176  0
O  O314  1  0.78062088  0.57338366  0.19408483  1  -0.478451  0  -0.120213  -0.33108  0  1.998971  0
O  O315  1  0.54709957  0.42664048  0.80571227  1  -0.474833  0  -0.120335  -0.331507  0  1.997905  0
O  O316  1  0.72477204  0.07344808  0.30594823  1  -0.47317  0  -0.120013  -0.331584  0  1.998284  0
O  O317  1  0.10379496  0.92667702  0.69420239  1  -0.475207  0  -0.120208  -0.332063  0  1.999265  0
O  O318  1  0.54860689  0.51114260  0.21180274  1  -0.495211  0  -0.135444  -0.346984  0  1.981601  0
O  O319  1  0.27198411  0.48918651  0.78792159  1  -0.503688  0  -0.136082  -0.348857  0  1.982637  0
O  O320  1  0.51097912  0.01105550  0.28832238  1  -0.496842  0  -0.135527  -0.347478  0  1.980136  0
O  O321  1  0.81011462  0.98905973  0.71185010  1  -0.497567  0  -0.135933  -0.34885  0  1.981962  0
O  O322  1  0.10352455  0.58657004  0.96873952  1  -0.482624  0  -0.128975  -0.343541  0  1.974996  0
O  O323  1  0.65904099  0.41360278  0.03119380  1  -0.479129  0  -0.128501  -0.342556  0  1.974413  0
O  O324  1  0.82131156  0.08653758  0.53122804  1  -0.478461  0  -0.128001  -0.342102  0  1.974082  0
O  O325  1  0.43920463  0.91374903  0.46890230  1  -0.483156  0  -0.128371  -0.342946  0  1.973493  0
O  O326  1  0.40554513  0.52759415  0.97872263  1  -0.463475  0  -0.124085  -0.330744  0  1.969299  0
O  O327  1  0.91264936  0.47245421  0.02125703  1  -0.464456  0  -0.124149  -0.331123  0  1.969194  0
O  O328  1  0.13367785  0.02764171  0.52172866  1  -0.477976  0  -0.123686  -0.330745  0  1.970755  0
O  O329  1  0.68394145  0.97242805  0.47868647  1  -0.457735  0  -0.124031  -0.331224  0  1.968973  0
