# generated using pymatgen
data_CdH11C13(NO)5
_symmetry_space_group_name_H-M   'P 1'
_cell_length_a   10.35614204
_cell_length_b   12.63674369
_cell_length_c   13.59360000
_cell_angle_alpha   116.24383854
_cell_angle_beta   90.00000000
_cell_angle_gamma   114.19000310
_symmetry_Int_Tables_number   1
_chemical_formula_structural   CdH11C13(NO)5
_chemical_formula_sum   'Cd4 H44 C52 N20 O20'
_cell_volume   1419.34245095
_cell_formula_units_Z   4
loop_
 _symmetry_equiv_pos_site_id
 _symmetry_equiv_pos_as_xyz
  1  'x, y, z'
loop_
 _atom_site_type_symbol
 _atom_site_label
 _atom_site_symmetry_multiplicity
 _atom_site_fract_x
 _atom_site_fract_y
 _atom_site_fract_z
 _atom_site_occupancy
 _atom_site_pbe_bader_charge
 _atom_site_pbe_bader_spin_density
 _atom_site_pbe_cm5_charge
 _atom_site_pbe_ddec_charge
 _atom_site_pbe_ddec_spin_density
 _atom_site_pbe_ddec_sum_bond_order
 _atom_site_pbe_magmom
Cd  Cd0  1  0.20847693  0.24240576  0.39950726  1  1.258762  0  0.770608  0.889729  0  2.121068  0
Cd  Cd1  1  0.96610293  0.75765116  0.10044037  1  1.258498  0  0.770392  0.88997  0  2.119948  0
Cd  Cd2  1  0.79152414  0.75759463  0.60049217  1  1.258803  0  0.770606  0.889739  0  2.121066  0
Cd  Cd3  1  0.03389718  0.24234923  0.89955979  1  1.258483  0  0.77039  0.889967  0  2.119958  0
H  H4  1  0.99605599  0.47582439  0.07713445  1  0.110184  0  0.118999  0.06339  0  1.021993  0
H  H5  1  0.52030761  0.52427519  0.42296019  1  0.107693  0  0.119298  0.063816  0  1.021714  0
H  H6  1  0.00394216  0.52417402  0.92286490  1  0.110196  0  0.119023  0.063432  0  1.022001  0
H  H7  1  0.47969297  0.47572421  0.57703957  1  0.107659  0  0.119292  0.063814  0  1.02169  0
H  H8  1  0.66186446  0.19138409  0.38634206  1  0.110567  0  0.105943  0.106102  0  1.028104  0
H  H9  1  0.47052911  0.80869267  0.11370494  1  0.105914  0  0.106011  0.106725  0  1.027802  0
H  H10  1  0.33813612  0.80861531  0.61365769  1  0.110669  0  0.105941  0.106083  0  1.028119  0
H  H11  1  0.52946954  0.19130673  0.88629481  1  0.105908  0  0.10602  0.106749  0  1.027775  0
H  H12  1  0.86556335  0.13316457  0.10307765  1  0.120714  0  0.104312  0.114313  0  1.021734  0
H  H13  1  0.73229776  0.86664142  0.39688453  1  0.109134  0  0.10438  0.114145  0  1.022229  0
H  H14  1  0.13443580  0.86683582  0.89692251  1  0.120705  0  0.104314  0.11432  0  1.021694  0
H  H15  1  0.26769993  0.13335798  0.60311522  1  0.109104  0  0.104399  0.114173  0  1.022303  0
H  H16  1  0.46195371  0.15562101  0.08892935  1  0.090737  0  0.104584  0.108516  0  1.000921  0
H  H17  1  0.30625855  0.84424846  0.41105745  1  0.11233  0  0.104779  0.10858  0  1.000486  0
H  H18  1  0.53804541  0.84437740  0.91107000  1  0.090735  0  0.104588  0.108522  0  1.000926  0
H  H19  1  0.69374156  0.15575194  0.58894418  1  0.112358  0  0.104786  0.108614  0  1.000446  0
H  H20  1  0.66778462  0.13429925  0.00055885  1  0.095852  0  0.100389  0.109716  0  1.018599  0
H  H21  1  0.53338561  0.86549186  0.49940678  1  0.092781  0  0.100512  0.110186  0  1.018524  0
H  H22  1  0.33221499  0.86570015  0.99944091  1  0.095851  0  0.100388  0.109719  0  1.01858  0
H  H23  1  0.46661547  0.13450853  0.50059412  1  0.092699  0  0.100502  0.11015  0  1.01854  0
H  H24  1  0.23155469  0.54434127  0.55173231  1  0.12692  0  0.136004  0.097627  0  1.002132  0
H  H25  1  0.68739737  0.45569482  0.94835904  1  0.134331  0  0.135986  0.09754  0  1.002422  0
H  H26  1  0.76844445  0.45565912  0.44826785  1  0.126887  0  0.135983  0.097592  0  1.002141  0
H  H27  1  0.31260225  0.54430458  0.05163924  1  0.134344  0  0.135982  0.097521  0  1.002401  0
H  H28  1  0.12077999  0.65479946  0.48587234  1  0.558671  0  0.307106  0.294859  0  0.996866  0
H  H29  1  0.46612882  0.34525846  0.01420811  1  0.558116  0  0.307  0.294941  0  0.997376  0
H  H30  1  0.87921962  0.34519994  0.51412741  1  0.558672  0  0.307098  0.294845  0  0.996873  0
H  H31  1  0.53387032  0.65474193  0.98579205  1  0.558117  0  0.307012  0.294977  0  0.997333  0
H  H32  1  0.25880869  0.24009079  0.17448477  1  0.514887  0  0.303017  0.312996  0  0.996481  0
H  H33  1  0.01878902  0.75996911  0.32556340  1  0.516316  0  0.303147  0.313479  0  0.996869  0
H  H34  1  0.74119142  0.75990960  0.82551466  1  0.51488  0  0.302998  0.312972  0  0.996525  0
H  H35  1  0.98121109  0.24003128  0.67443603  1  0.516319  0  0.303154  0.313486  0  0.996857  0
H  H36  1  0.20908780  0.21624477  0.04044975  1  0.494021  0  0.302477  0.314912  0  0.977077  0
H  H37  1  0.99299560  0.78385282  0.45961980  1  0.521641  0  0.302572  0.315141  0  0.9766  0
H  H38  1  0.79091231  0.78375562  0.95955115  1  0.493985  0  0.302481  0.314918  0  0.977053  0
H  H39  1  0.00700401  0.21614658  0.54037922  1  0.521635  0  0.302559  0.315124  0  0.976615  0
H  H40  1  0.14985827  0.98624246  0.36429383  1  0.653593  0  0.295502  0.392664  0  0.940323  0
H  H41  1  0.16362362  0.01386604  0.13568015  1  0.647643  0  0.295175  0.392524  0  0.940288  0
H  H42  1  0.85014281  0.01375793  0.63570633  1  0.653593  0  0.295502  0.392675  0  0.940308  0
H  H43  1  0.83637599  0.98613336  0.86431887  1  0.647607  0  0.295176  0.39254  0  0.94027  0
H  H44  1  0.00427776  0.99206461  0.36260138  1  0.637426  0  0.299376  0.398047  0  0.92753  0
H  H45  1  0.01219464  0.00798934  0.13735753  1  0.648668  0  0.299022  0.397315  0  0.928386  0
H  H46  1  0.99572235  0.00793578  0.63739805  1  0.63743  0  0.299374  0.398062  0  0.927512  0
H  H47  1  0.98780547  0.99201105  0.86264263  1  0.64867  0  0.299022  0.397327  0  0.928371  0
C  C48  1  0.04810383  0.46427431  0.13889658  1  1.076268  0  0.161777  0.245504  0  4.050298  0
C  C49  1  0.58389671  0.53582923  0.36119895  1  1.076302  0  0.16171  0.244644  0  4.050216  0
C  C50  1  0.95189921  0.53572806  0.86110440  1  1.076259  0  0.161781  0.245536  0  4.050284  0
C  C51  1  0.41610340  0.46417116  0.63880121  1  1.07632  0  0.161706  0.244648  0  4.050215  0
C  C52  1  0.15640679  0.34459888  0.16618951  1  1.058744  0  0.247601  0.423861  0  4.097103  0
C  C53  1  0.81191814  0.65549177  0.33391911  1  1.089555  0  0.246838  0.422512  0  4.097726  0
C  C54  1  0.84359282  0.65540052  0.83381024  1  1.058734  0  0.247609  0.423901  0  4.097137  0
C  C55  1  0.18808100  0.34450862  0.66608105  1  1.089518  0  0.24684  0.422499  0  4.097786  0
C  C56  1  0.66350877  0.17830756  0.30168678  1  -0.064838  0  -0.081494  -0.114997  0  3.955697  0
C  C57  1  0.48516786  0.82165712  0.19832518  1  -0.106774  0  -0.081641  -0.116563  0  3.957882  0
C  C58  1  0.33649132  0.82169085  0.69831256  1  -0.064943  0  -0.081487  -0.114929  0  3.955704  0
C  C59  1  0.51483128  0.17834327  0.80167571  1  -0.106595  0  -0.081646  -0.116583  0  3.957835  0
C  C60  1  0.77722565  0.16314716  0.25165777  1  -0.00066  0  -0.024983  -0.049936  0  3.993139  0
C  C61  1  0.61401458  0.83673124  0.24834079  1  0.016286  0  -0.024949  -0.050813  0  3.994205  0
C  C62  1  0.22277446  0.83685323  0.74834092  1  -0.000679  0  -0.024983  -0.049958  0  3.993158  0
C  C63  1  0.38598406  0.16326816  0.75165896  1  0.016268  0  -0.02494  -0.050787  0  3.994184  0
C  C64  1  0.54979162  0.17523481  0.24320043  1  -0.04948  0  -0.022862  -0.044915  0  3.998912  0
C  C65  1  0.37448781  0.82469912  0.25679595  1  -0.022104  0  -0.022901  -0.043194  0  3.995934  0
C  C66  1  0.45020800  0.82476459  0.75680006  1  -0.04947  0  -0.022876  -0.04498  0  3.998911  0
C  C67  1  0.62551084  0.17530028  0.74320527  1  -0.022163  0  -0.022898  -0.043158  0  3.995895  0
C  C68  1  0.43171525  0.19603487  0.29895520  1  1.532092  0  0.20059  0.569846  0  4.213446  0
C  C69  1  0.23568258  0.80402801  0.20105005  1  1.537105  0  0.200473  0.569759  0  4.211553  0
C  C70  1  0.56828533  0.80396453  0.70104529  1  1.532106  0  0.200635  0.569984  0  4.213247  0
C  C71  1  0.76431753  0.19597238  0.79895084  1  1.537116  0  0.200487  0.569759  0  4.211472  0
C  C72  1  0.16712113  0.42032948  0.28307634  1  0.487384  0  0.079325  -0.039093  0  4.002116  0
C  C73  1  0.74687594  0.57974629  0.21701734  1  0.480285  0  0.079168  -0.039087  0  4.001937  0
C  C74  1  0.83288094  0.57967290  0.71692464  1  0.487525  0  0.079328  -0.039152  0  4.002155  0
C  C75  1  0.25312320  0.42025410  0.78298282  1  0.480312  0  0.079164  -0.039077  0  4.001912  0
C  C76  1  0.77690695  0.14503997  0.14199657  1  -0.070737  0  -0.077114  -0.073175  0  3.912683  0
C  C77  1  0.63175171  0.85474915  0.35796530  1  -0.062168  0  -0.077474  -0.07323  0  3.913275  0
C  C78  1  0.22309316  0.85496042  0.85800212  1  -0.070725  0  -0.077138  -0.073205  0  3.912623  0
C  C79  1  0.36824448  0.14524727  0.64203396  1  -0.062167  0  -0.077532  -0.073337  0  3.913393  0
C  C80  1  0.55076977  0.15760471  0.13386481  1  -0.055691  0  -0.078011  -0.079737  0  3.951899  0
C  C81  1  0.39305841  0.84221715  0.36610243  1  -0.083968  0  -0.078046  -0.080932  0  3.952047  0
C  C82  1  0.44922984  0.84239469  0.86613568  1  -0.055687  0  -0.078018  -0.079773  0  3.951901  0
C  C83  1  0.60694219  0.15778423  0.63389961  1  -0.084103  0  -0.078047  -0.081004  0  3.952001  0
C  C84  1  0.11830440  0.51677582  0.31548421  1  0.906335  0  0.216059  0.294624  0  4.0794  0
C  C85  1  0.60161764  0.48330987  0.18460104  1  0.910082  0  0.215534  0.294538  0  4.080783  0
C  C86  1  0.88169571  0.48322457  0.68451522  1  0.90621  0  0.216099  0.294746  0  4.079285  0
C  C87  1  0.39838247  0.51669052  0.81539912  1  0.910109  0  0.215532  0.29454  0  4.080745  0
C  C88  1  0.66479725  0.14395192  0.08412522  1  -0.018144  0  -0.088654  -0.076523  0  3.979209  0
C  C89  1  0.52071947  0.85583920  0.41584188  1  -0.010217  0  -0.088888  -0.07627  0  3.978883  0
C  C90  1  0.33520289  0.85605046  0.91587576  1  -0.018135  0  -0.088625  -0.076464  0  3.979138  0
C  C91  1  0.47928014  0.14416020  0.58415861  1  -0.010065  0  -0.088863  -0.076172  0  3.978849  0
C  C92  1  0.20260556  0.51699304  0.46423463  1  1.042381  0  0.158841  0.188701  0  3.938798  0
C  C93  1  0.68576077  0.48307777  0.03585406  1  1.025926  0  0.158205  0.189005  0  3.938726  0
C  C94  1  0.79739552  0.48300735  0.53576553  1  1.042418  0  0.158877  0.188751  0  3.938814  0
C  C95  1  0.31423838  0.51692262  0.96414536  1  1.025909  0  0.158193  0.189054  0  3.938699  0
C  C96  1  0.90323529  0.17474484  0.31688673  1  1.537395  0  0.204019  0.575259  0  4.200364  0
C  C97  1  0.72852131  0.82525555  0.18315242  1  1.530224  0  0.204151  0.577119  0  4.199574  0
C  C98  1  0.09676529  0.82525456  0.68311302  1  1.537377  0  0.204004  0.575253  0  4.200414  0
C  C99  1  0.27147880  0.17474484  0.81684774  1  1.530214  0  0.204144  0.577121  0  4.199601  0
N  N100  1  0.20111619  0.25230540  0.12280557  1  -1.2736  0  -0.564217  -0.574812  0  3.381271  0
N  N101  1  0.94890765  0.74778326  0.37726913  1  -1.321679  0  -0.563638  -0.574612  0  3.382427  0
N  N102  1  0.79888441  0.74769598  0.87719500  1  -1.273587  0  -0.564196  -0.574789  0  3.381228  0
N  N103  1  0.05109246  0.25221713  0.62273103  1  -1.321702  0  -0.563633  -0.574599  0  3.382437  0
N  N104  1  0.21939281  0.42181130  0.37819832  1  -1.200434  0  -0.346679  -0.333179  0  3.429539  0
N  N105  1  0.79770725  0.57825852  0.12190100  1  -1.180309  0  -0.346243  -0.333397  0  3.427916  0
N  N106  1  0.78060972  0.57819008  0.62180225  1  -1.200443  0  -0.346725  -0.333221  0  3.429543  0
N  N107  1  0.20229333  0.42174088  0.87809875  1  -1.180305  0  -0.346239  -0.333416  0  3.427951  0
N  N108  1  0.14298964  0.57735693  0.43126953  1  -1.271265  0  -0.368853  -0.285594  0  3.557128  0
N  N109  1  0.56574386  0.42272876  0.06880616  1  -1.277877  0  -0.367726  -0.28561  0  3.559308  0
N  N110  1  0.85701047  0.42264346  0.56873063  1  -1.271277  0  -0.368819  -0.285553  0  3.557183  0
N  N111  1  0.43425625  0.57727163  0.93119401  1  -1.277886  0  -0.367728  -0.285663  0  3.559251  0
N  N112  1  0.09370217  0.36994457  0.09586733  1  -1.243323  0  -0.352745  -0.428684  0  3.434218  0
N  N113  1  0.72383925  0.63014310  0.40422535  1  -1.252352  0  -0.352968  -0.427822  0  3.433976  0
N  N114  1  0.90629744  0.63005483  0.90413242  1  -1.243349  0  -0.352785  -0.428748  0  3.434251  0
N  N115  1  0.27616086  0.36985729  0.59577555  1  -1.252333  0  -0.352951  -0.427818  0  3.434009  0
N  N116  1  0.05820213  0.54256190  0.24631925  1  -1.20484  0  -0.337255  -0.381734  0  3.310504  0
N  N117  1  0.51571703  0.45754958  0.25376409  1  -1.206959  0  -0.337091  -0.381461  0  3.311024  0
N  N118  1  0.94179748  0.45743750  0.75368050  1  -1.204795  0  -0.337296  -0.381863  0  3.31046  0
N  N119  1  0.48428258  0.54244982  0.74623566  1  -1.206961  0  -0.337085  -0.381453  0  3.311027  0
O  O120  1  0.45340159  0.25477610  0.40528894  1  -1.151091  0  -0.319309  -0.546994  0  2.180347  0
O  O121  1  0.19870214  0.74530265  0.09471254  1  -1.146731  0  -0.318995  -0.54678  0  2.179303  0
O  O122  1  0.54659899  0.74522330  0.59471082  1  -1.151146  0  -0.319335  -0.547059  0  2.180265  0
O  O123  1  0.80129893  0.25469774  0.90528836  1  -1.146758  0  -0.319014  -0.546794  0  2.179273  0
O  O124  1  0.30957039  0.15519551  0.23662917  1  -1.205003  0  -0.326675  -0.590795  0  2.316638  0
O  O125  1  0.15438857  0.84489018  0.26334794  1  -1.204225  0  -0.326722  -0.590938  0  2.317311  0
O  O126  1  0.69043019  0.84480389  0.76337058  1  -1.205021  0  -0.326692  -0.59085  0  2.316603  0
O  O127  1  0.84561154  0.15511021  0.73665223  1  -1.204209  0  -0.326718  -0.590934  0  2.317291  0
O  O128  1  0.92236277  0.22666116  0.42388647  1  -1.182015  0  -0.323656  -0.580701  0  2.224865  0
O  O129  1  0.69579173  0.77348305  0.07616913  1  -1.182414  0  -0.324029  -0.581542  0  2.223516  0
O  O130  1  0.07763734  0.77333923  0.57611296  1  -1.182031  0  -0.323665  -0.580715  0  2.224856  0
O  O131  1  0.30420791  0.22651834  0.92383144  1  -1.182447  0  -0.324038  -0.581555  0  2.223528  0
O  O132  1  0.99137955  0.13780345  0.26357093  1  -1.176107  0  -0.317791  -0.561997  0  2.325641  0
O  O133  1  0.85360725  0.86217611  0.23646628  1  -1.172424  0  -0.317703  -0.562813  0  2.327482  0
O  O134  1  0.00862153  0.86219694  0.73642923  1  -1.176079  0  -0.317762  -0.561992  0  2.325665  0
O  O135  1  0.14639383  0.13782428  0.76353388  1  -1.172408  0  -0.31769  -0.562809  0  2.327507  0
O  O136  1  0.10586203  0.04487420  0.40636852  1  -1.244477  0  -0.586124  -0.737781  0  2.07184  0
O  O137  1  0.06100534  0.95522836  0.09357726  1  -1.249821  0  -0.585449  -0.73689  0  2.073405  0
O  O138  1  0.89413758  0.95512520  0.59363049  1  -1.244497  0  -0.586113  -0.73779  0  2.071806  0
O  O139  1  0.93899477  0.04477204  0.90642290  1  -1.249773  0  -0.585449  -0.736922  0  2.073349  0
