# generated using pymatgen
data_ErH7C8SO9
_symmetry_space_group_name_H-M   'P 1'
_cell_length_a   6.34972844
_cell_length_b   8.53919005
_cell_length_c   10.57967396
_cell_angle_alpha   90.20948402
_cell_angle_beta   100.13131956
_cell_angle_gamma   107.70816591
_symmetry_Int_Tables_number   1
_chemical_formula_structural   ErH7C8SO9
_chemical_formula_sum   'Er2 H14 C16 S2 O18'
_cell_volume   536.94453887
_cell_formula_units_Z   2
loop_
 _symmetry_equiv_pos_site_id
 _symmetry_equiv_pos_as_xyz
  1  'x, y, z'
loop_
 _atom_site_type_symbol
 _atom_site_label
 _atom_site_symmetry_multiplicity
 _atom_site_fract_x
 _atom_site_fract_y
 _atom_site_fract_z
 _atom_site_occupancy
 _atom_site_hle17_bader_spin_density
 _atom_site_hle17_ddec_charge
 _atom_site_hle17_ddec_spin_density
 _atom_site_hle17_ddec_sum_bond_order
 _atom_site_hle17_magmom
 _atom_site_hse06_10hf_bader_spin_density
 _atom_site_hse06_10hf_ddec_charge
 _atom_site_hse06_10hf_ddec_spin_density
 _atom_site_hse06_10hf_ddec_sum_bond_order
 _atom_site_hse06_10hf_magmom
 _atom_site_hse06_bader_spin_density
 _atom_site_hse06_ddec_charge
 _atom_site_hse06_ddec_spin_density
 _atom_site_hse06_ddec_sum_bond_order
 _atom_site_hse06_magmom
 _atom_site_pbe_bader_spin_density
 _atom_site_pbe_cm5_charge
 _atom_site_pbe_ddec_charge
 _atom_site_pbe_ddec_spin_density
 _atom_site_pbe_ddec_sum_bond_order
 _atom_site_pbe_magmom
Er  Er0  1  0.15478507  0.25049415  0.61821890  1  0  2.313106  0  1.584079  0  0  2.254539  0  1.897597  0  0  2.299348  0  1.858719  0  0  1.533162  2.141001  0  2.07631  0
Er  Er1  1  0.84521425  0.74950433  0.38178173  1  0  2.31311  0  1.584072  0  0  2.254574  0  1.897578  0  0  2.299381  0  1.858704  0  0  1.533186  2.141008  0  2.076334  0
H  H2  1  0.61729768  0.41083039  0.14403570  1  0  0.109922  0  0.939576  0  0  0.117052  0  1.00424  0  0  0.120635  0  1.002354  0  0  0.115098  0.114512  0  1.005423  0
H  H3  1  0.38270579  0.58917794  0.85596636  1  0  0.109942  0  0.939487  0  0  0.117068  0  1.004169  0  0  0.120652  0  1.002284  0  0  0.11509  0.114527  0  1.005353  0
H  H4  1  0.65782487  0.36597329  0.91889111  1  0  0.116132  0  0.947102  0  0  0.127254  0  1.005361  0  0  0.13093  0  1.002573  0  0  0.11464  0.124124  0  1.008144  0
H  H5  1  0.34218234  0.63403627  0.08111228  1  0  0.116112  0  0.947077  0  0  0.127296  0  1.00528  0  0  0.130936  0  1.002538  0  0  0.114659  0.124166  0  1.008074  0
H  H6  1  0.18381311  0.15383015  0.05719385  1  0  0.125583  0  0.946347  0  0  0.13294  0  1.008097  0  0  0.136717  0  1.005855  0  0  0.115493  0.129784  0  1.010566  0
H  H7  1  0.81618668  0.84617326  0.94280591  1  0  0.125545  0  0.946385  0  0  0.132899  0  1.008143  0  0  0.136677  0  1.005899  0  0  0.115472  0.129745  0  1.010609  0
H  H8  1  0.52316461  0.08418900  0.67781742  1  0  0.465965  0  0.803466  0  0  0.438649  0  0.862395  0  0  0.448207  0  0.848321  0  0  0.320547  0.431074  0  0.873424  0
H  H9  1  0.47682995  0.91580578  0.32218269  1  0  0.466035  0  0.803568  0  0  0.438718  0  0.862346  0  0  0.448274  0  0.848274  0  0  0.320595  0.431136  0  0.873385  0
H  H10  1  0.29372194  0.95642663  0.60740921  1  0  0.449836  0  0.84738  0  0  0.418309  0  0.912112  0  0  0.428611  0  0.897032  0  0  0.305905  0.410523  0  0.923275  0
H  H11  1  0.70627102  0.04356815  0.39258980  1  0  0.449777  0  0.847458  0  0  0.418219  0  0.912251  0  0  0.42852  0  0.897171  0  0  0.305883  0.410437  0  0.923409  0
H  H12  1  0.65406739  0.35809053  0.70952239  1  0  0.450116  0  0.844451  0  0  0.4226  0  0.901741  0  0  0.433249  0  0.886263  0  0  0.304012  0.414306  0  0.913653  0
H  H13  1  0.34592825  0.64190302  0.29047688  1  0  0.45015  0  0.844411  0  0  0.422633  0  0.901706  0  0  0.433281  0  0.886232  0  0  0.304017  0.414337  0  0.913622  0
H  H14  1  0.58176738  0.50901999  0.64783968  1  0  0.445671  0  0.84684  0  0  0.417401  0  0.90559  0  0  0.427343  0  0.891065  0  0  0.305646  0.409804  0  0.916467  0
H  H15  1  0.41823518  0.49097480  0.35216033  1  0  0.445638  0  0.846903  0  0  0.417355  0  0.905678  0  0  0.427303  0  0.891141  0  0  0.305627  0.409757  0  0.916556  0
C  C16  1  0.02343682  0.22377167  0.20161747  1  0  -0.133488  0  3.687672  0  0  -0.11504  0  3.936808  0  0  -0.121853  0  3.957825  0  0  -0.007319  -0.111048  0  3.92439  0
C  C17  1  0.97655982  0.77622804  0.79838289  1  0  -0.133477  0  3.687622  0  0  -0.115019  0  3.936748  0  0  -0.121832  0  3.957766  0  0  -0.007296  -0.111037  0  3.924335  0
C  C18  1  0.86885482  0.30245379  0.22804601  1  0  -0.035928  0  3.665045  0  0  -0.027395  0  3.89854  0  0  -0.028984  0  3.916783  0  0  0.006459  -0.026751  0  3.888239  0
C  C19  1  0.13114393  0.69754716  0.77195269  1  0  -0.035936  0  3.664944  0  0  -0.027413  0  3.898468  0  0  -0.028997  0  3.916711  0  0  0.006463  -0.026767  0  3.888163  0
C  C20  1  0.73747938  0.35063718  0.12389425  1  0  -0.043909  0  3.67153  0  0  -0.067995  0  3.928787  0  0  -0.070312  0  3.947118  0  0  -0.0671  -0.066874  0  3.917078  0
C  C21  1  0.26252358  0.64936992  0.87610870  1  0  -0.043897  0  3.671485  0  0  -0.067999  0  3.928809  0  0  -0.07031  0  3.947119  0  0  -0.06711  -0.066875  0  3.917098  0
C  C22  1  0.76122473  0.32608623  0.99762724  1  0  -0.039033  0  3.654965  0  0  -0.065126  0  3.900061  0  0  -0.062567  0  3.917474  0  0  -0.06586  -0.066734  0  3.889643  0
C  C23  1  0.23877931  0.67391964  0.00237486  1  0  -0.039055  0  3.655039  0  0  -0.065204  0  3.900143  0  0  -0.062624  0  3.917579  0  0  -0.065904  -0.066823  0  3.889728  0
C  C24  1  0.92541848  0.25730662  0.97362131  1  0  -0.043309  0  3.727647  0  0  -0.017269  0  3.95929  0  0  -0.025907  0  3.982165  0  0  -0.006685  -0.012564  0  3.945333  0
C  C25  1  0.07458607  0.74270048  0.02637897  1  0  -0.043298  0  3.72765  0  0  -0.017246  0  3.959287  0  0  -0.025867  0  3.982148  0  0  -0.006709  -0.012534  0  3.945328  0
C  C26  1  0.05421579  0.20501775  0.07605932  1  0  -0.05092  0  3.694549  0  0  -0.088288  0  3.943219  0  0  -0.08617  0  3.962358  0  0  -0.068808  -0.089853  0  3.931931  0
C  C27  1  0.94578664  0.79498812  0.92394072  1  0  -0.050922  0  3.694638  0  0  -0.088294  0  3.943306  0  0  -0.086179  0  3.962445  0  0  -0.068824  -0.089859  0  3.932015  0
C  C28  1  0.84656223  0.34517131  0.36232706  1  0  0.746752  0  3.812519  0  0  0.69668  0  4.111021  0  0  0.732987  0  4.096025  0  0  0.248804  0.670939  0  4.11662  0
C  C29  1  0.15344132  0.65482964  0.63767119  1  0  0.74679  0  3.812458  0  0  0.696713  0  4.110966  0  0  0.733011  0  4.095982  0  0  0.248869  0.670979  0  4.116555  0
C  C30  1  0.98501422  0.24994465  0.84409721  1  0  0.644024  0  3.927469  0  0  0.592359  0  4.235606  0  0  0.626017  0  4.22798  0  0  0.200248  0.570736  0  4.230898  0
C  C31  1  0.01497978  0.75005259  0.15590475  1  0  0.643908  0  3.927632  0  0  0.592229  0  4.235769  0  0  0.625876  0  4.228163  0  0  0.200266  0.570598  0  4.231065  0
S  S32  1  0.21083684  0.16126733  0.32262296  1  0  1.363197  0  5.554585  0  0  1.262053  0  6.07501  0  0  1.310782  0  6.04973  0  0  0.54329  1.227362  0  6.083564  0
S  S33  1  0.78916088  0.83873115  0.67737561  1  0  1.363286  0  5.554444  0  0  1.262107  0  6.074926  0  0  1.310839  0  6.049622  0  0  0.543287  1.227434  0  6.083459  0
O  O34  1  0.08155889  0.01789007  0.38433154  1  0  -0.802387  0  2.188324  0  0  -0.763205  0  2.482163  0  0  -0.784128  0  2.465262  0  0  -0.406382  -0.732486  0  2.489199  0
O  O35  1  0.91843671  0.98210718  0.61566775  1  0  -0.802421  0  2.188437  0  0  -0.763163  0  2.482181  0  0  -0.784127  0  2.465361  0  0  -0.406347  -0.732466  0  2.489219  0
O  O36  1  0.30579545  0.30227406  0.42119675  1  0  -0.76287  0  2.0603  0  0  -0.711503  0  2.315824  0  0  -0.732423  0  2.299842  0  0  -0.374352  -0.6875  0  2.327926  0
O  O37  1  0.69420123  0.69772196  0.57880265  1  0  -0.762883  0  2.06021  0  0  -0.711544  0  2.31575  0  0  -0.732446  0  2.299757  0  0  -0.374364  -0.687539  0  2.327846  0
O  O38  1  0.37646053  0.12654915  0.25854280  1  0  -0.616949  0  1.97707  0  0  -0.557592  0  2.21225  0  0  -0.580264  0  2.201956  0  0  -0.30371  -0.542721  0  2.220603  0
O  O39  1  0.62353135  0.87344686  0.74145610  1  0  -0.617023  0  1.977047  0  0  -0.557633  0  2.212201  0  0  -0.580302  0  2.201899  0  0  -0.303706  -0.542758  0  2.220537  0
O  O40  1  0.85893057  0.24290022  0.44931818  1  0  -0.7414  0  2.082623  0  0  -0.697  0  2.327307  0  0  -0.721261  0  2.313569  0  0  -0.380545  -0.669608  0  2.339682  0
O  O41  1  0.14106926  0.75709950  0.55067968  1  0  -0.741427  0  2.082685  0  0  -0.697045  0  2.327366  0  0  -0.721307  0  2.313631  0  0  -0.380585  -0.669653  0  2.339738  0
O  O42  1  0.81825507  0.48211037  0.38254796  1  0  -0.708352  0  2.089153  0  0  -0.673982  0  2.357492  0  0  -0.699133  0  2.345115  0  0  -0.392003  -0.643541  0  2.369136  0
O  O43  1  0.18175593  0.51789304  0.61745391  1  0  -0.708345  0  2.08919  0  0  -0.67396  0  2.35752  0  0  -0.699102  0  2.345137  0  0  -0.391977  -0.643526  0  2.369158  0
O  O44  1  0.17276100  0.22757704  0.83735334  1  0  -0.696284  0  1.979352  0  0  -0.660298  0  2.220719  0  0  -0.685277  0  2.212889  0  0  -0.388723  -0.632683  0  2.226513  0
O  O45  1  0.82723360  0.77241405  0.16264582  1  0  -0.69619  0  1.979475  0  0  -0.660182  0  2.220836  0  0  -0.685159  0  2.213013  0  0  -0.388693  -0.632556  0  2.226628  0
O  O46  1  0.85728119  0.26926517  0.74079594  1  0  -0.711943  0  2.044903  0  0  -0.664952  0  2.282468  0  0  -0.689377  0  2.272293  0  0  -0.343723  -0.639668  0  2.288563  0
O  O47  1  0.14272024  0.73073454  0.25920397  1  0  -0.711872  0  2.044827  0  0  -0.664907  0  2.282429  0  0  -0.689334  0  2.272266  0  0  -0.343729  -0.639616  0  2.28853  0
O  O48  1  0.36930501  0.07434985  0.63610747  1  0  -0.927466  0  1.889851  0  0  -0.889161  0  2.087438  0  0  -0.907019  0  2.055666  0  0  -0.658158  -0.865382  0  2.116797  0
O  O49  1  0.63068847  0.92564617  0.36388970  1  0  -0.927508  0  1.889977  0  0  -0.889172  0  2.087432  0  0  -0.907024  0  2.055658  0  0  -0.658175  -0.865381  0  2.116795  0
O  O50  1  0.52880253  0.40762421  0.69335088  1  0  -0.916058  0  1.858231  0  0  -0.881014  0  2.052675  0  0  -0.900136  0  2.021596  0  0  -0.649971  -0.856738  0  2.081075  0
O  O51  1  0.47119470  0.59236935  0.30664573  1  0  -0.916049  0  1.858193  0  0  -0.881041  0  2.052689  0  0  -0.900152  0  2.021589  0  0  -0.649959  -0.856747  0  2.081074  0
