# generated using pymatgen
data_Zn2H23C25N5O13
_symmetry_space_group_name_H-M   'P 1'
_cell_length_a   7.43531341
_cell_length_b   14.19611735
_cell_length_c   16.18022703
_cell_angle_alpha   73.93582491
_cell_angle_beta   76.70815485
_cell_angle_gamma   74.81952720
_symmetry_Int_Tables_number   1
_chemical_formula_structural   Zn2H23C25N5O13
_chemical_formula_sum   'Zn4 H46 C50 N10 O26'
_cell_volume   1560.91583795
_cell_formula_units_Z   2
loop_
 _symmetry_equiv_pos_site_id
 _symmetry_equiv_pos_as_xyz
  1  'x, y, z'
loop_
 _atom_site_type_symbol
 _atom_site_label
 _atom_site_symmetry_multiplicity
 _atom_site_fract_x
 _atom_site_fract_y
 _atom_site_fract_z
 _atom_site_occupancy
 _atom_site_hle17_bader_spin_density
 _atom_site_hle17_ddec_charge
 _atom_site_hle17_ddec_spin_density
 _atom_site_hle17_ddec_sum_bond_order
 _atom_site_hle17_magmom
 _atom_site_hse06_10hf_bader_spin_density
 _atom_site_hse06_10hf_ddec_charge
 _atom_site_hse06_10hf_ddec_spin_density
 _atom_site_hse06_10hf_ddec_sum_bond_order
 _atom_site_hse06_10hf_magmom
 _atom_site_hse06_bader_spin_density
 _atom_site_hse06_ddec_charge
 _atom_site_hse06_ddec_spin_density
 _atom_site_hse06_ddec_sum_bond_order
 _atom_site_hse06_magmom
 _atom_site_pbe_bader_spin_density
 _atom_site_pbe_cm5_charge
 _atom_site_pbe_ddec_charge
 _atom_site_pbe_ddec_spin_density
 _atom_site_pbe_ddec_sum_bond_order
 _atom_site_pbe_magmom
Zn  Zn0  1  0.87574644  0.98063204  0.17559884  1  0  1.040814  0  1.826495  0  0  0.866036  0  2.269218  0  0  0.911935  0  2.217357  0  0  0.669661  0.833993  0  2.304668  0
Zn  Zn1  1  0.96765371  0.48058474  0.67553123  1  0  1.041754  0  1.82533  0  0  0.867055  0  2.26787  0  0  0.912926  0  2.216011  0  0  0.670079  0.83503  0  2.303326  0
Zn  Zn2  1  0.61722408  0.18486405  0.67259521  1  0  1.049163  0  1.827741  0  0  0.876209  0  2.270316  0  0  0.921723  0  2.218474  0  0  0.671386  0.844454  0  2.305772  0
Zn  Zn3  1  0.52547538  0.68480135  0.17256744  1  0  1.049262  0  1.825909  0  0  0.877007  0  2.267616  0  0  0.922522  0  2.21581  0  0  0.671378  0.845257  0  2.303047  0
H  H4  1  0.56258081  0.95786671  0.25526431  1  0  0.408128  0  0.903323  0  0  0.376711  0  0.967776  0  0  0.388858  0  0.950122  0  0  0.283437  0.36813  0  0.98023  0
H  H5  1  0.22413250  0.45765460  0.75523971  1  0  0.408042  0  0.903391  0  0  0.376454  0  0.968005  0  0  0.388611  0  0.950332  0  0  0.283452  0.367862  0  0.980475  0
H  H6  1  0.50949457  0.02695224  0.16121479  1  0  0.421546  0  0.887913  0  0  0.389245  0  0.953372  0  0  0.401488  0  0.935669  0  0  0.28235  0.380583  0  0.965887  0
H  H7  1  0.30203982  0.52687764  0.66119625  1  0  0.421331  0  0.888322  0  0  0.387932  0  0.955428  0  0  0.400224  0  0.937661  0  0  0.281041  0.379252  0  0.967955  0
H  H8  1  0.03431167  0.85887697  0.06910003  1  0  0.421489  0  0.879623  0  0  0.390508  0  0.943533  0  0  0.400714  0  0.928589  0  0  0.290494  0.383315  0  0.954057  0
H  H9  1  0.03799836  0.35873011  0.56906288  1  0  0.422176  0  0.87853  0  0  0.390566  0  0.943354  0  0  0.400798  0  0.928398  0  0  0.291087  0.383359  0  0.953881  0
H  H10  1  0.86945116  0.81117342  0.13444243  1  0  0.431344  0  0.862794  0  0  0.399143  0  0.928111  0  0  0.410485  0  0.911476  0  0  0.292652  0.391091  0  0.93993  0
H  H11  1  0.18481850  0.31112490  0.63459560  1  0  0.431914  0  0.86184  0  0  0.399709  0  0.927104  0  0  0.411077  0  0.910462  0  0  0.293724  0.391639  0  0.938924  0
H  H12  1  0.98373540  0.14054034  0.68954008  1  0  0.421433  0  0.889716  0  0  0.389071  0  0.954923  0  0  0.401555  0  0.936931  0  0  0.281621  0.380252  0  0.967617  0
H  H13  1  0.18629802  0.64065743  0.18949029  1  0  0.4239  0  0.886201  0  0  0.391086  0  0.95222  0  0  0.403602  0  0.934178  0  0  0.282407  0.382249  0  0.96493  0
H  H14  1  0.92954747  0.21198821  0.59629275  1  0  0.400422  0  0.916429  0  0  0.368091  0  0.983463  0  0  0.380068  0  0.965908  0  0  0.281216  0.359589  0  0.995916  0
H  H15  1  0.26235426  0.71209901  0.09623480  1  0  0.401188  0  0.91532  0  0  0.368198  0  0.983551  0  0  0.380213  0  0.965933  0  0  0.280906  0.359691  0  0.996013  0
H  H16  1  0.45572672  0.31123380  0.77570095  1  0  0.42474  0  0.874533  0  0  0.393282  0  0.938731  0  0  0.403496  0  0.92392  0  0  0.29311  0.386066  0  0.94919  0
H  H17  1  0.45725871  0.81129259  0.27565922  1  0  0.424072  0  0.875369  0  0  0.393112  0  0.939053  0  0  0.403328  0  0.924208  0  0  0.292979  0.385904  0  0.94952  0
H  H18  1  0.61971973  0.35916859  0.70863985  1  0  0.430191  0  0.866888  0  0  0.398523  0  0.931257  0  0  0.409847  0  0.914686  0  0  0.292708  0.390474  0  0.943038  0
H  H19  1  0.31236513  0.85907636  0.20862162  1  0  0.429008  0  0.86852  0  0  0.397518  0  0.93247  0  0  0.408819  0  0.915944  0  0  0.29231  0.38947  0  0.944246  0
H  H20  1  0.23022011  0.14200032  0.44781909  1  0  0.293007  0  0.877677  0  0  0.28473  0  0.926867  0  0  0.290504  0  0.923338  0  0  0.326243  0.280597  0  0.929476  0
H  H21  1  0.18004135  0.64214926  0.94790334  1  0  0.293599  0  0.877355  0  0  0.285751  0  0.926029  0  0  0.291532  0  0.922409  0  0  0.326468  0.281621  0  0.928666  0
H  H22  1  0.72909475  0.26549520  0.89378895  1  0  0.130421  0  0.942247  0  0  0.135852  0  1.007422  0  0  0.140435  0  1.003758  0  0  0.117151  0.13254  0  1.010162  0
H  H23  1  0.11108926  0.76537879  0.39361122  1  0  0.13063  0  0.939874  0  0  0.135554  0  1.005818  0  0  0.140141  0  1.002105  0  0  0.116353  0.132219  0  1.008586  0
H  H24  1  0.64577331  0.13607171  0.02998056  1  0  0.101311  0  0.950454  0  0  0.109137  0  1.011448  0  0  0.112573  0  1.00866  0  0  0.122344  0.106639  0  1.01351  0
H  H25  1  0.18771111  0.63598140  0.52981284  1  0  0.102562  0  0.949424  0  0  0.110245  0  1.010532  0  0  0.113697  0  1.007742  0  0  0.12281  0.107723  0  1.012604  0
H  H26  1  0.29022489  0.19937104  0.95516126  1  0  0.132616  0  0.926475  0  0  0.140119  0  0.98678  0  0  0.144973  0  0.983347  0  0  0.118056  0.13658  0  0.989418  0
H  H27  1  0.55438342  0.69955155  0.45526504  1  0  0.133074  0  0.926492  0  0  0.141211  0  0.986065  0  0  0.145983  0  0.982703  0  0  0.118451  0.137681  0  0.988705  0
H  H28  1  0.75401658  0.90966637  0.96191467  1  0  0.127967  0  0.948277  0  0  0.133231  0  1.013746  0  0  0.138012  0  1.00984  0  0  0.112388  0.129701  0  1.016723  0
H  H29  1  0.37452624  0.40937567  0.46200090  1  0  0.127348  0  0.949291  0  0  0.132332  0  1.01501  0  0  0.137049  0  1.011196  0  0  0.112013  0.128861  0  1.017939  0
H  H30  1  0.83733642  0.04239788  0.82690727  1  0  0.101482  0  0.955426  0  0  0.10834  0  1.018211  0  0  0.111844  0  1.015413  0  0  0.122167  0.105748  0  1.020353  0
H  H31  1  0.29328131  0.54215022  0.32703591  1  0  0.099544  0  0.955801  0  0  0.106643  0  1.018497  0  0  0.110098  0  1.015728  0  0  0.121081  0.104086  0  1.020626  0
H  H32  1  0.20339335  0.96669840  0.89204886  1  0  0.128947  0  0.932605  0  0  0.135249  0  0.995091  0  0  0.140227  0  0.991344  0  0  0.115145  0.131642  0  0.997893  0
H  H33  1  0.93774896  0.46680424  0.39204516  1  0  0.12838  0  0.93304  0  0  0.135012  0  0.995161  0  0  0.139969  0  0.991437  0  0  0.114814  0.131426  0  0.997942  0
H  H34  1  0.84004266  0.97302955  0.63698149  1  0  0.08705  0  0.92401  0  0  0.09669  0  0.983038  0  0  0.099555  0  0.98073  0  0  0.117007  0.094559  0  0.984804  0
H  H35  1  0.55021023  0.47276132  0.13690189  1  0  0.085036  0  0.9242  0  0  0.094361  0  0.983715  0  0  0.097223  0  0.981422  0  0  0.115946  0.092232  0  0.985482  0
H  H36  1  0.79276118  0.84210021  0.57074730  1  0  0.100724  0  0.95308  0  0  0.11037  0  1.011852  0  0  0.112399  0  1.012864  0  0  0.105791  0.108917  0  1.011258  0
H  H37  1  0.79499107  0.34196330  0.07066234  1  0  0.100608  0  0.953161  0  0  0.110225  0  1.011932  0  0  0.112206  0  1.012991  0  0  0.106194  0.108789  0  1.011335  0
H  H38  1  0.51963484  0.88339531  0.48996547  1  0  0.126718  0  0.969406  0  0  0.133158  0  1.033062  0  0  0.136542  0  1.030577  0  0  0.112537  0.130647  0  1.034963  0
H  H39  1  0.10764329  0.38340668  0.98997387  1  0  0.126938  0  0.969464  0  0  0.132994  0  1.033772  0  0  0.136487  0  1.031153  0  0  0.111939  0.130404  0  1.035749  0
H  H40  1  0.38185239  0.17785308  0.54366323  1  0  0.097331  0  0.934194  0  0  0.105209  0  0.99888  0  0  0.108653  0  0.995489  0  0  0.12089  0.102632  0  1.001506  0
H  H41  1  0.89658586  0.67782399  0.04370937  1  0  0.097409  0  0.933387  0  0  0.105464  0  0.997983  0  0  0.108892  0  0.994585  0  0  0.121126  0.102881  0  1.000607  0
H  H42  1  0.92822033  0.19486813  0.44569866  1  0  0.100831  0  0.976862  0  0  0.109448  0  1.042249  0  0  0.112402  0  1.039779  0  0  0.107549  0.107229  0  1.04413  0
H  H43  1  0.43217477  0.69504278  0.94566148  1  0  0.101339  0  0.975513  0  0  0.109646  0  1.041437  0  0  0.112507  0  1.039064  0  0  0.107648  0.107503  0  1.043212  0
H  H44  1  0.68610119  0.27315546  0.34812589  1  0  0.098456  0  0.962943  0  0  0.108033  0  1.021975  0  0  0.110242  0  1.023187  0  0  0.103798  0.106454  0  1.021286  0
H  H45  1  0.69398300  0.77308112  0.84791604  1  0  0.099673  0  0.962429  0  0  0.109088  0  1.021452  0  0  0.111328  0  1.02264  0  0  0.10395  0.107468  0  1.020797  0
H  H46  1  0.66676476  0.18327267  0.23728739  1  0  0.086235  0  0.918595  0  0  0.096327  0  0.9765  0  0  0.099369  0  0.973284  0  0  0.120328  0.094042  0  0.978916  0
H  H47  1  0.91336023  0.68300797  0.73699346  1  0  0.085396  0  0.918954  0  0  0.095616  0  0.976786  0  0  0.098625  0  0.973591  0  0  0.120045  0.093367  0  0.979179  0
H  H48  1  0.10458058  0.94994464  0.31567125  1  0  0.100309  0  0.943084  0  0  0.104994  0  1.012422  0  0  0.108436  0  1.008563  0  0  0.126337  0.102362  0  1.015433  0
H  H49  1  0.62983884  0.44989481  0.81593125  1  0  0.100098  0  0.942752  0  0  0.104648  0  1.012164  0  0  0.108098  0  1.008275  0  0  0.125834  0.102003  0  1.015197  0
C  C50  1  0.07133888  0.32256543  0.83588658  1  0  0.652508  0  3.892115  0  0  0.594843  0  4.194396  0  0  0.628467  0  4.187525  0  0  0.215438  0.572142  0  4.198198  0
C  C51  1  0.76975980  0.82269900  0.33591882  1  0  0.654331  0  3.888515  0  0  0.597163  0  4.190451  0  0  0.630874  0  4.183465  0  0  0.216425  0.574419  0  4.19431  0
C  C52  1  0.01605006  0.24271737  0.91471726  1  0  -0.006069  0  3.705631  0  0  0.010455  0  3.949442  0  0  0.007691  0  3.968584  0  0  0.006425  0.012165  0  3.936588  0
C  C53  1  0.82586610  0.74275414  0.41471153  1  0  -0.007407  0  3.708006  0  0  0.008262  0  3.952889  0  0  0.005447  0  3.972005  0  0  0.00646  0.009999  0  3.94003  0
C  C54  1  0.83340386  0.22405225  0.93550307  1  0  -0.090216  0  3.65055  0  0  -0.116627  0  3.903829  0  0  -0.118594  0  3.920006  0  0  -0.063571  -0.115341  0  3.893068  0
C  C55  1  0.00648190  0.72396298  0.43539923  1  0  -0.088623  0  3.650022  0  0  -0.114377  0  3.903203  0  0  -0.116301  0  3.919407  0  0  -0.061802  -0.113079  0  3.892394  0
C  C56  1  0.78763436  0.15152241  0.01022693  1  0  0.128598  0  3.656524  0  0  0.100492  0  3.907882  0  0  0.105394  0  3.924676  0  0  0.054778  0.097219  0  3.896487  0
C  C57  1  0.05009664  0.65144680  0.51010892  1  0  0.12835  0  3.660147  0  0  0.100424  0  3.911244  0  0  0.105288  0  3.928061  0  0  0.055205  0.097182  0  3.899816  0
C  C58  1  0.09351226  0.11196968  0.03984066  1  0  0.085336  0  3.752083  0  0  0.089657  0  3.996867  0  0  0.089626  0  4.017205  0  0  0.105987  0.089479  0  3.983187  0
C  C59  1  0.75400018  0.61203600  0.53982457  1  0  0.08577  0  3.754881  0  0  0.089413  0  4.000365  0  0  0.089361  0  4.020678  0  0  0.106476  0.089246  0  3.986692  0
C  C60  1  0.14722314  0.18647961  0.96869527  1  0  -0.112327  0  3.681877  0  0  -0.146451  0  3.933167  0  0  -0.149262  0  3.951896  0  0  -0.068019  -0.144547  0  3.920748  0
C  C61  1  0.69682087  0.68661165  0.46872741  1  0  -0.114148  0  3.683173  0  0  -0.148511  0  3.935298  0  0  -0.151197  0  3.953998  0  0  -0.069474  -0.146645  0  3.92291  0
C  C62  1  0.23550976  0.04244374  0.09510127  1  0  0.615784  0  3.931216  0  0  0.557748  0  4.237325  0  0  0.59095  0  4.230331  0  0  0.210017  0.535349  0  4.241222  0
C  C63  1  0.62622628  0.54253902  0.59509737  1  0  0.61811  0  3.928264  0  0  0.560904  0  4.233405  0  0  0.594107  0  4.226387  0  0  0.21099  0.538511  0  4.237319  0
C  C64  1  0.42462385  0.84163107  0.01013525  1  0  0.655592  0  3.88688  0  0  0.599714  0  4.187286  0  0  0.633223  0  4.180058  0  0  0.21648  0.577083  0  4.191379  0
C  C65  1  0.72372044  0.34150624  0.51015856  1  0  0.654441  0  3.886143  0  0  0.598428  0  4.186981  0  0  0.63191  0  4.17984  0  0  0.216739  0.575827  0  4.190997  0
C  C66  1  0.47499547  0.92580607  0.93469253  1  0  -0.012724  0  3.71742  0  0  0.003337  0  3.961055  0  0  0.000267  0  3.980648  0  0  0.002075  0.005273  0  3.947853  0
C  C67  1  0.66456174  0.42567704  0.43473243  1  0  -0.011822  0  3.720764  0  0  0.004036  0  3.964713  0  0  0.000989  0  3.984276  0  0  0.001539  0.005951  0  3.951529  0
C  C68  1  0.65375898  0.94885303  0.91751444  1  0  -0.101306  0  3.669771  0  0  -0.126128  0  3.921405  0  0  -0.128714  0  3.938415  0  0  -0.068307  -0.124325  0  3.910042  0
C  C69  1  0.47992395  0.44863450  0.41758801  1  0  -0.098639  0  3.671267  0  0  -0.123231  0  3.923126  0  0  -0.125753  0  3.940119  0  0  -0.067424  -0.121494  0  3.911744  0
C  C70  1  0.69840188  0.02326260  0.84423906  1  0  0.125738  0  3.671052  0  0  0.097791  0  3.922165  0  0  0.102375  0  3.939414  0  0  0.053147  0.094751  0  3.910393  0
C  C71  1  0.43401078  0.52308600  0.34435710  1  0  0.123665  0  3.669062  0  0  0.095576  0  3.920277  0  0  0.100211  0  3.93747  0  0  0.051351  0.09249  0  3.908545  0
C  C72  1  0.39738533  0.05722540  0.81023058  1  0  0.093294  0  3.743033  0  0  0.097232  0  3.987487  0  0  0.097448  0  4.0074  0  0  0.112318  0.096883  0  3.974098  0
C  C73  1  0.73495374  0.55723801  0.31030737  1  0  0.089994  0  3.745791  0  0  0.093319  0  3.991178  0  0  0.093529  0  4.011136  0  0  0.10977  0.092976  0  3.977748  0
C  C74  1  0.34475653  0.98121131  0.88016386  1  0  -0.111452  0  3.683929  0  0  -0.145694  0  3.934432  0  0  -0.148511  0  3.953264  0  0  -0.070722  -0.143782  0  3.921934  0
C  C75  1  0.79373589  0.48122444  0.38021919  1  0  -0.111796  0  3.687066  0  0  -0.145991  0  3.93761  0  0  -0.148814  0  3.956474  0  0  -0.069966  -0.144073  0  3.925092  0
C  C76  1  0.25676015  0.12467526  0.75322345  1  0  0.619081  0  3.924334  0  0  0.559773  0  4.231837  0  0  0.593018  0  4.224965  0  0  0.211474  0.537392  0  4.235659  0
C  C77  1  0.86524721  0.62472421  0.25327726  1  0  0.6214  0  3.921839  0  0  0.562582  0  4.228898  0  0  0.595824  0  4.221965  0  0  0.21228  0.540215  0  4.232738  0
C  C78  1  0.72440404  0.98725607  0.60115127  1  0  0.097228  0  3.729648  0  0  0.061694  0  3.991149  0  0  0.066722  0  4.010165  0  0  0.033309  0.058523  0  3.978125  0
C  C79  1  0.68745943  0.48707453  0.10113164  1  0  0.100016  0  3.727273  0  0  0.065074  0  3.988636  0  0  0.070091  0  4.007668  0  0  0.034456  0.061888  0  3.975631  0
C  C80  1  0.69642100  0.91523699  0.56456758  1  0  -0.103656  0  3.769536  0  0  -0.113825  0  4.02176  0  0  -0.11978  0  4.045288  0  0  -0.084215  -0.109993  0  4.005824  0
C  C81  1  0.82424953  0.41512395  0.06452616  1  0  -0.103987  0  3.767487  0  0  -0.114178  0  4.02001  0  0  -0.120092  0  4.04352  0  0  -0.083857  -0.110362  0  4.004062  0
C  C82  1  0.54664253  0.93747707  0.51923599  1  0  -0.101349  0  3.663632  0  0  -0.126703  0  3.906737  0  0  -0.126471  0  3.924757  0  0  -0.071824  -0.126541  0  3.894587  0
C  C83  1  0.99714995  0.43744650  0.01924702  1  0  -0.101096  0  3.662707  0  0  -0.126331  0  3.905835  0  0  -0.12615  0  3.92381  0  0  -0.071701  -0.126119  0  3.893717  0
C  C84  1  0.43014612  0.03383482  0.51046026  1  0  0.212329  0  3.793942  0  0  0.212192  0  4.041489  0  0  0.216207  0  4.063752  0  0  0.102785  0.209094  0  4.026573  0
C  C85  1  0.02578040  0.53384802  0.01052014  1  0  0.213812  0  3.796437  0  0  0.213965  0  4.043416  0  0  0.217909  0  4.065737  0  0  0.103562  0.210906  0  4.028459  0
C  C86  1  0.46918279  0.10218587  0.54845962  1  0  0.025364  0  3.682872  0  0  -0.01361  0  3.943332  0  0  -0.010233  0  3.960938  0  0  0.0404  -0.015754  0  3.93153  0
C  C87  1  0.88018163  0.60213123  0.04852094  1  0  0.025356  0  3.682611  0  0  -0.013768  0  3.943064  0  0  -0.010361  0  3.960694  0  0  0.040221  -0.015895  0  3.931213  0
C  C88  1  0.18320652  0.00798313  0.44312606  1  0  0.551175  0  3.836423  0  0  0.506404  0  4.124256  0  0  0.535491  0  4.123853  0  0  0.246607  0.486705  0  4.124143  0
C  C89  1  0.36597059  0.50817501  0.94329154  1  0  0.553616  0  3.832199  0  0  0.507217  0  4.122479  0  0  0.536316  0  4.122005  0  0  0.247962  0.487594  0  4.122281  0
C  C90  1  0.03612373  0.06566285  0.38788422  1  0  -0.106084  0  3.765499  0  0  -0.081926  0  4.003951  0  0  -0.093119  0  4.027678  0  0  -0.007879  -0.074933  0  3.98821  0
C  C91  1  0.51081867  0.56580191  0.88799351  1  0  -0.10838  0  3.76191  0  0  -0.084113  0  4.001201  0  0  -0.095323  0  4.024928  0  0  -0.010045  -0.077141  0  3.985437  0
C  C92  1  0.91839110  0.15824130  0.39636420  1  0  -0.029979  0  3.69868  0  0  -0.061315  0  3.948253  0  0  -0.056441  0  3.966542  0  0  -0.068007  -0.064095  0  3.935751  0
C  C93  1  0.52792193  0.65835235  0.89635022  1  0  -0.028841  0  3.69598  0  0  -0.060133  0  3.945883  0  0  -0.055197  0  3.96426  0  0  -0.068523  -0.062958  0  3.933336  0
C  C94  1  0.78280112  0.20206896  0.34219403  1  0  -0.120154  0  3.745838  0  0  -0.128678  0  3.996281  0  0  -0.136927  0  4.018881  0  0  -0.085711  -0.123499  0  3.981078  0
C  C95  1  0.67398409  0.70202018  0.84205935  1  0  -0.121516  0  3.74477  0  0  -0.129664  0  3.994945  0  0  -0.137943  0  4.017502  0  0  -0.085031  -0.124456  0  3.979785  0
C  C96  1  0.77188224  0.15310585  0.28039712  1  0  0.128176  0  3.703738  0  0  0.094853  0  3.957093  0  0  0.102874  0  3.97406  0  0  0.050066  0.08977  0  3.945484  0
C  C97  1  0.79526515  0.65295905  0.78021321  1  0  0.130352  0  3.703643  0  0  0.096584  0  3.957036  0  0  0.104649  0  3.973956  0  0  0.051147  0.091456  0  3.945469  0
C  C98  1  0.01547193  0.02202795  0.32402034  1  0  0.136862  0  3.650071  0  0  0.095266  0  3.898068  0  0  0.103886  0  3.914404  0  0  0.060826  0.089749  0  3.887083  0
C  C99  1  0.63874942  0.52199823  0.82415509  1  0  0.136285  0  3.649514  0  0  0.094935  0  3.896972  0  0  0.103558  0  3.91334  0  0  0.060992  0.089437  0  3.885952  0
N  N100  1  0.91589234  0.09603238  0.06091124  1  0  -0.329297  0  3.279084  0  0  -0.26038  0  3.541989  0  0  -0.276202  0  3.559483  0  0  -0.314583  -0.249485  0  3.53  0
N  N101  1  0.92654480  0.59603300  0.56084668  1  0  -0.329503  0  3.281582  0  0  -0.260497  0  3.544619  0  0  -0.276262  0  3.562072  0  0  -0.315224  -0.249636  0  3.532655  0
N  N102  1  0.57252935  0.07587532  0.79156242  1  0  -0.323118  0  3.282291  0  0  -0.254202  0  3.542313  0  0  -0.269556  0  3.559668  0  0  -0.313795  -0.243616  0  3.530417  0
N  N103  1  0.55987592  0.57577975  0.29164621  1  0  -0.317011  0  3.277272  0  0  -0.248173  0  3.537214  0  0  -0.26349  0  3.554563  0  0  -0.308691  -0.237602  0  3.525316  0
N  N104  1  0.61081396  0.07895388  0.59358052  1  0  -0.308203  0  3.310925  0  0  -0.23789  0  3.58091  0  0  -0.255144  0  3.60245  0  0  -0.319634  -0.22617  0  3.566151  0
N  N105  1  0.71666464  0.57883060  0.09360337  1  0  -0.308386  0  3.308072  0  0  -0.238376  0  3.578372  0  0  -0.255634  0  3.599872  0  0  -0.319542  -0.226646  0  3.563623  0
N  N106  1  0.27961427  0.06659428  0.46395205  1  0  -0.433662  0  3.349304  0  0  -0.384513  0  3.584817  0  0  -0.405486  0  3.593746  0  0  -0.392199  -0.369944  0  3.578384  0
N  N107  1  0.19004549  0.56673670  0.96405651  1  0  -0.437094  0  3.351271  0  0  -0.387712  0  3.586768  0  0  -0.408568  0  3.59553  0  0  -0.393195  -0.373228  0  3.580413  0
N  N108  1  0.88808794  0.06526537  0.27080590  1  0  -0.307471  0  3.24869  0  0  -0.235835  0  3.514911  0  0  -0.254345  0  3.532802  0  0  -0.312194  -0.223429  0  3.502593  0
N  N109  1  0.77612979  0.56512463  0.77077584  1  0  -0.308016  0  3.250013  0  0  -0.235716  0  3.515541  0  0  -0.254239  0  3.533409  0  0  -0.311517  -0.223306  0  3.503246  0
O  O110  1  0.18187712  0.96652446  0.15001757  1  0  -0.640324  0  2.099041  0  0  -0.566705  0  2.343603  0  0  -0.59494  0  2.332704  0  0  -0.30237  -0.54698  0  2.350518  0
O  O111  1  0.70077598  0.46668169  0.65008358  1  0  -0.641974  0  2.094832  0  0  -0.569414  0  2.340024  0  0  -0.597662  0  2.329051  0  0  -0.303979  -0.549708  0  2.346992  0
O  O112  1  0.39553378  0.06321295  0.08182823  1  0  -0.588632  0  1.993509  0  0  -0.537378  0  2.214519  0  0  -0.56181  0  2.205296  0  0  -0.302885  -0.520341  0  2.220344  0
O  O113  1  0.45878838  0.56325943  0.58176541  1  0  -0.5907  0  1.993306  0  0  -0.539009  0  2.214174  0  0  -0.563452  0  2.204924  0  0  -0.30329  -0.52196  0  2.219991  0
O  O114  1  0.22510577  0.34914597  0.83074821  1  0  -0.639101  0  1.998452  0  0  -0.576804  0  2.215129  0  0  -0.602214  0  2.205055  0  0  -0.313935  -0.559028  0  2.221528  0
O  O115  1  0.59460186  0.84940407  0.33070413  1  0  -0.637752  0  1.998133  0  0  -0.57564  0  2.214813  0  0  -0.601088  0  2.20468  0  0  -0.312377  -0.557855  0  2.22125  0
O  O116  1  0.95649870  0.35745691  0.78237048  1  0  -0.610692  0  2.082408  0  0  -0.542387  0  2.341868  0  0  -0.570212  0  2.331283  0  0  -0.302999  -0.522984  0  2.348436  0
O  O117  1  0.90336085  0.85762295  0.28250833  1  0  -0.61251  0  2.080338  0  0  -0.543987  0  2.338928  0  0  -0.57197  0  2.328528  0  0  -0.304537  -0.524497  0  2.3454  0
O  O118  1  0.58351986  0.01924287  0.20865805  1  0  -0.843983  0  1.907433  0  0  -0.781724  0  2.107696  0  0  -0.803774  0  2.070219  0  0  -0.592435  -0.766138  0  2.133587  0
O  O119  1  0.18833439  0.51905071  0.70867959  1  0  -0.843597  0  1.908249  0  0  -0.780157  0  2.109544  0  0  -0.802292  0  2.072095  0  0  -0.591014  -0.764555  0  2.135477  0
O  O120  1  0.90034940  0.87531518  0.09689877  1  0  -0.812665  0  1.874362  0  0  -0.754828  0  2.068113  0  0  -0.77514  0  2.033128  0  0  -0.575166  -0.740437  0  2.092285  0
O  O121  1  0.12735410  0.37524260  0.59700482  1  0  -0.814074  0  1.872691  0  0  -0.755657  0  2.067735  0  0  -0.776081  0  2.03258  0  0  -0.576751  -0.741177  0  2.092008  0
O  O122  1  0.31050636  0.19910347  0.69634434  1  0  -0.641549  0  2.093913  0  0  -0.568015  0  2.338977  0  0  -0.596079  0  2.327979  0  0  -0.301677  -0.548472  0  2.345879  0
O  O123  1  0.79402380  0.69906680  0.19630559  1  0  -0.641856  0  2.094376  0  0  -0.567929  0  2.338434  0  0  -0.596126  0  2.327644  0  0  -0.300878  -0.548407  0  2.345401  0
O  O124  1  0.09729230  0.10283968  0.76732363  1  0  -0.590095  0  1.998918  0  0  -0.538659  0  2.221865  0  0  -0.563243  0  2.212578  0  0  -0.30334  -0.521494  0  2.227691  0
O  O125  1  0.03236888  0.60297914  0.26743110  1  0  -0.593368  0  1.996945  0  0  -0.54202  0  2.22005  0  0  -0.566575  0  2.210697  0  0  -0.305242  -0.524874  0  2.225908  0
O  O126  1  0.26661766  0.81781619  0.01695509  1  0  -0.659932  0  1.996734  0  0  -0.597661  0  2.214496  0  0  -0.622451  0  2.202093  0  0  -0.324207  -0.580356  0  2.222576  0
O  O127  1  0.89873708  0.31768057  0.51694861  1  0  -0.658906  0  1.994076  0  0  -0.597105  0  2.211947  0  0  -0.62186  0  2.199616  0  0  -0.323575  -0.57981  0  2.21998  0
O  O128  1  0.54814138  0.79874043  0.05850041  1  0  -0.603518  0  2.059777  0  0  -0.537248  0  2.318455  0  0  -0.564269  0  2.30754  0  0  -0.301119  -0.51848  0  2.325305  0
O  O129  1  0.59471275  0.29864348  0.55857545  1  0  -0.603134  0  2.062851  0  0  -0.535579  0  2.320214  0  0  -0.562708  0  2.30952  0  0  -0.300617  -0.516774  0  2.32695  0
O  O130  1  0.91024173  0.14952803  0.64132699  1  0  -0.838268  0  1.915258  0  0  -0.776719  0  2.122811  0  0  -0.798841  0  2.085848  0  0  -0.590923  -0.761097  0  2.148432  0
O  O131  1  0.29900146  0.64960735  0.14125737  1  0  -0.840799  0  1.911375  0  0  -0.778663  0  2.119105  0  0  -0.800885  0  2.082127  0  0  -0.591364  -0.762977  0  2.144727  0
O  O132  1  0.58741189  0.29468637  0.74498956  1  0  -0.818606  0  1.882585  0  0  -0.759476  0  2.081899  0  0  -0.780132  0  2.046922  0  0  -0.579209  -0.744884  0  2.106207  0
O  O133  1  0.37297750  0.79464126  0.24494946  1  0  -0.817117  0  1.883934  0  0  -0.758958  0  2.082513  0  0  -0.779535  0  2.047587  0  0  -0.578763  -0.744398  0  2.106776  0
O  O134  1  0.21572148  0.91558747  0.46523039  1  0  -0.506399  0  1.882317  0  0  -0.469225  0  2.085243  0  0  -0.489371  0  2.080324  0  0  -0.279209  -0.455177  0  2.088207  0
O  O135  1  0.40377612  0.41579584  0.96545845  1  0  -0.506638  0  1.881755  0  0  -0.46897  0  2.085784  0  0  -0.489177  0  2.080904  0  0  -0.279599  -0.45493  0  2.08871  0
