# generated using pymatgen
data_ZnH15C22N4O5
_symmetry_space_group_name_H-M   'P 1'
_cell_length_a   7.29180150
_cell_length_b   21.60806477
_cell_length_c   14.28874715
_cell_angle_alpha   90.00065405
_cell_angle_beta   82.77327296
_cell_angle_gamma   90.00010158
_symmetry_Int_Tables_number   1
_chemical_formula_structural   ZnH15C22N4O5
_chemical_formula_sum   'Zn4 H60 C88 N16 O20'
_cell_volume   2233.47505305
_cell_formula_units_Z   4
loop_
 _symmetry_equiv_pos_site_id
 _symmetry_equiv_pos_as_xyz
  1  'x, y, z'
loop_
 _atom_site_type_symbol
 _atom_site_label
 _atom_site_symmetry_multiplicity
 _atom_site_fract_x
 _atom_site_fract_y
 _atom_site_fract_z
 _atom_site_occupancy
 _atom_site_pbe_bader_charge
 _atom_site_pbe_bader_spin_density
 _atom_site_pbe_cm5_charge
 _atom_site_pbe_ddec_charge
 _atom_site_pbe_ddec_spin_density
 _atom_site_pbe_ddec_sum_bond_order
 _atom_site_pbe_magmom
Zn  Zn0  1  0.26765098  0.66180404  0.27003745  1  1.253153  0  0.690253  0.757514  0  2.331985  0
Zn  Zn1  1  0.23233841  0.16181106  0.22996054  1  1.253405  0  0.690297  0.757575  0  2.33207  0
Zn  Zn2  1  0.73232490  0.33818910  0.72996738  1  1.253521  0  0.690322  0.757497  0  2.332037  0
Zn  Zn3  1  0.76767997  0.83818902  0.77002986  1  1.25351  0  0.69035  0.757564  0  2.332209  0
H  H4  1  0.97832815  0.73299702  0.04940824  1  0.111787  0  0.10138  0.112603  0  1.020937  0
H  H5  1  0.52170415  0.23299496  0.45058410  1  0.111454  0  0.101334  0.112508  0  1.020908  0
H  H6  1  0.02166397  0.26699889  0.95059250  1  0.111634  0  0.10135  0.112523  0  1.020939  0
H  H7  1  0.47833512  0.76700466  0.54941004  1  0.111435  0  0.101368  0.112608  0  1.020897  0
H  H8  1  0.50073286  0.68123275  0.92109659  1  0.087941  0  0.103038  0.115108  0  1.04935  0
H  H9  1  0.99927409  0.18122323  0.57889411  1  0.088008  0  0.10305  0.115037  0  1.049516  0
H  H10  1  0.49925166  0.31877566  0.07890196  1  0.088158  0  0.103014  0.115081  0  1.049474  0
H  H11  1  0.00073051  0.81877454  0.42111100  1  0.088193  0  0.102994  0.11504  0  1.04956  0
H  H12  1  0.68477919  0.56569117  0.13826287  1  0.093987  0  0.104514  0.117788  0  1.022204  0
H  H13  1  0.81522268  0.06568454  0.36172831  1  0.093871  0  0.10455  0.117919  0  1.021968  0
H  H14  1  0.31518341  0.43431308  0.86174041  1  0.093401  0  0.104535  0.117827  0  1.022226  0
H  H15  1  0.18480925  0.93432618  0.63825303  1  0.093148  0  0.104526  0.117762  0  1.022099  0
H  H16  1  0.36403387  0.58814823  0.89245488  1  0.047758  0  0.09671  0.063509  0  0.996474  0
H  H17  1  0.13596963  0.08813333  0.60754194  1  0.0479  0  0.096644  0.063417  0  0.99656  0
H  H18  1  0.63594675  0.41186389  0.10754292  1  0.047822  0  0.096592  0.063268  0  0.996498  0
H  H19  1  0.86404615  0.91184870  0.39245763  1  0.047801  0  0.096658  0.063397  0  0.996551  0
H  H20  1  0.24288077  0.63502926  0.98338395  1  0.087695  0  0.104378  0.079775  0  0.997766  0
H  H21  1  0.25710758  0.13501960  0.51660903  1  0.087489  0  0.104285  0.079759  0  0.997756  0
H  H22  1  0.75707687  0.36498702  0.01660301  1  0.087519  0  0.10431  0.079798  0  0.997994  0
H  H23  1  0.74291257  0.86498048  0.48340898  1  0.087747  0  0.104286  0.079754  0  0.997848  0
H  H24  1  0.01852470  0.57282836  0.86466448  1  0.035971  0  0.094389  0.095111  0  1.003026  0
H  H25  1  0.48145986  0.07282390  0.63533433  1  0.036145  0  0.094342  0.094967  0  1.003099  0
H  H26  1  0.98141312  0.42719116  0.13533431  1  0.036085  0  0.094334  0.09486  0  1.003002  0
H  H27  1  0.51859008  0.92717202  0.36467053  1  0.036099  0  0.094334  0.094964  0  1.003016  0
H  H28  1  0.24508200  0.50051499  0.10553850  1  0.074027  0  0.097127  0.094769  0  1.04866  0
H  H29  1  0.25490537  0.00049648  0.39445861  1  0.074278  0  0.097095  0.094595  0  1.048854  0
H  H30  1  0.75485401  0.49951055  0.89446664  1  0.073668  0  0.097049  0.094607  0  1.048735  0
H  H31  1  0.74513797  0.99950128  0.60554053  1  0.073665  0  0.0971  0.094705  0  1.048583  0
H  H32  1  0.65613937  0.70499716  0.31660036  1  0.139112  0  0.125098  0.104413  0  0.99318  0
H  H33  1  0.84384203  0.20499952  0.18342199  1  0.139923  0  0.125109  0.104484  0  0.993046  0
H  H34  1  0.34386523  0.29498626  0.68340475  1  0.139486  0  0.125154  0.104527  0  0.993338  0
H  H35  1  0.15618374  0.79499084  0.81654727  1  0.140054  0  0.125166  0.104762  0  0.992565  0
H  H36  1  0.85531724  0.79763058  0.28125795  1  0.113665  0  0.116645  0.12954  0  1.015153  0
H  H37  1  0.64467681  0.29763860  0.21876987  1  0.113045  0  0.116621  0.129551  0  1.014961  0
H  H38  1  0.14467919  0.20235516  0.71877114  1  0.113012  0  0.116642  0.129543  0  1.014968  0
H  H39  1  0.35534455  0.70235269  0.78118590  1  0.112895  0  0.116689  0.129633  0  1.014884  0
H  H40  1  0.49902507  0.85058539  0.07479635  1  0.100518  0  0.122921  0.13671  0  0.969528  0
H  H41  1  0.00097727  0.35059336  0.42522165  1  0.100767  0  0.122918  0.136831  0  0.969468  0
H  H42  1  0.50094660  0.14942302  0.92525229  1  0.099837  0  0.122958  0.136888  0  0.96911  0
H  H43  1  0.99899659  0.64940626  0.57473718  1  0.099784  0  0.122919  0.136834  0  0.969112  0
H  H44  1  0.31749651  0.75257725  0.11569166  1  0.132599  0  0.126106  0.106546  0  0.986929  0
H  H45  1  0.18251494  0.25258395  0.38432252  1  0.132364  0  0.126139  0.10649  0  0.986934  0
H  H46  1  0.68250232  0.24742098  0.88432896  1  0.132377  0  0.126075  0.106385  0  0.986901  0
H  H47  1  0.81748517  0.74741336  0.61565497  1  0.132059  0  0.126199  0.1066  0  0.986873  0
H  H48  1  0.26720338  0.92457624  0.21299214  1  0.091033  0  0.115596  0.126466  0  0.998706  0
H  H49  1  0.23275363  0.42457042  0.28707963  1  0.091877  0  0.115508  0.126342  0  0.998722  0
H  H50  1  0.73272890  0.07542199  0.78709855  1  0.092934  0  0.115522  0.126343  0  0.998661  0
H  H51  1  0.76725341  0.57542180  0.71291208  1  0.092138  0  0.115543  0.12644  0  0.998663  0
H  H52  1  0.39148681  0.03391814  0.22542311  1  0.177434  0  0.121976  0.104936  0  1.035359  0
H  H53  1  0.10848287  0.53391236  0.27461544  1  0.177138  0  0.12193  0.104902  0  1.035217  0
H  H54  1  0.60849156  0.96607546  0.77461641  1  0.177286  0  0.121972  0.104964  0  1.03528  0
H  H55  1  0.89151373  0.46607847  0.72538889  1  0.177125  0  0.12199  0.104989  0  1.035301  0
H  H56  1  0.89175144  0.10944500  0.17287518  1  0.124812  0  0.124142  0.10195  0  1.008474  0
H  H57  1  0.60826234  0.60944387  0.32709476  1  0.125091  0  0.124128  0.101929  0  1.008579  0
H  H58  1  0.10830359  0.89055786  0.82707314  1  0.125583  0  0.124101  0.10196  0  1.008404  0
H  H59  1  0.39173543  0.39054927  0.67291029  1  0.12491  0  0.124122  0.101909  0  1.008567  0
H  H60  1  0.74796945  0.00635046  0.16192585  1  0.113386  0  0.11865  0.13338  0  1.003722  0
H  H61  1  0.75203869  0.50634920  0.33806419  1  0.113282  0  0.118691  0.133418  0  1.003635  0
H  H62  1  0.25204901  0.99365703  0.83805465  1  0.113352  0  0.118628  0.133307  0  1.003749  0
H  H63  1  0.24796819  0.49364117  0.66192327  1  0.113268  0  0.118701  0.13341  0  1.00357  0
C  C64  1  0.97397521  0.63722973  0.17391277  1  1.55567  0  0.200864  0.565634  0  4.216125  0
C  C65  1  0.52602442  0.13723191  0.32608240  1  1.555923  0  0.201006  0.565719  0  4.215824  0
C  C66  1  0.02601599  0.36276803  0.82608160  1  1.555642  0  0.200863  0.565493  0  4.215813  0
C  C67  1  0.47400334  0.86277835  0.67390880  1  1.555207  0  0.200727  0.565418  0  4.215853  0
C  C68  1  0.84586270  0.64772005  0.10133991  1  0.010871  0  -0.021655  -0.02048  0  4.01845  0
C  C69  1  0.65417011  0.14772773  0.39863787  1  0.013295  0  -0.021794  -0.020688  0  4.018606  0
C  C70  1  0.15413340  0.35227910  0.89865168  1  0.012647  0  -0.021837  -0.020578  0  4.018548  0
C  C71  1  0.34587414  0.85228855  0.60134359  1  0.012405  0  -0.02184  -0.020628  0  4.01859  0
C  C72  1  0.86663013  0.70037680  0.04392491  1  -0.054174  0  -0.093441  -0.144448  0  3.969555  0
C  C73  1  0.63339235  0.20037843  0.45606957  1  -0.054844  0  -0.093162  -0.143889  0  3.969307  0
C  C74  1  0.13336340  0.29962143  0.95607090  1  -0.054434  0  -0.09333  -0.144258  0  3.969201  0
C  C75  1  0.36662850  0.79962535  0.54393146  1  -0.05374  0  -0.093328  -0.144329  0  3.969057  0
C  C76  1  0.73966808  0.71227999  0.98084710  1  0.018606  0  -0.0251  -0.00986  0  4.017357  0
C  C77  1  0.76036286  0.21228290  0.51914020  1  0.018261  0  -0.025143  -0.010112  0  4.017326  0
C  C78  1  0.26034483  0.28771731  0.01914324  1  0.018749  0  -0.025111  -0.009832  0  4.017027  0
C  C79  1  0.23964805  0.78771857  0.48085720  1  0.018683  0  -0.025062  -0.009849  0  4.017036  0
C  C80  1  0.76015084  0.76975714  0.92201461  1  1.53371  0  0.185841  0.550158  0  4.240551  0
C  C81  1  0.73986726  0.26975681  0.57797803  1  1.533821  0  0.185866  0.550146  0  4.240307  0
C  C82  1  0.23986434  0.23024155  0.07798707  1  1.534533  0  0.185733  0.549907  0  4.240722  0
C  C83  1  0.26014893  0.73023957  0.42202013  1  1.533046  0  0.185864  0.550181  0  4.240352  0
C  C84  1  0.59506957  0.67077173  0.97204686  1  -0.0522  0  -0.107192  -0.24104  0  3.969073  0
C  C85  1  0.90495286  0.17076892  0.52793485  1  -0.051908  0  -0.107289  -0.240837  0  3.968886  0
C  C86  1  0.40492416  0.32923529  0.02794825  1  -0.052287  0  -0.107212  -0.241072  0  3.968897  0
C  C87  1  0.09506650  0.82923440  0.47205698  1  -0.051913  0  -0.107201  -0.240993  0  3.968913  0
C  C88  1  0.57531660  0.61821322  0.02941482  1  0.470752  0  0.080335  0.253701  0  4.075468  0
C  C89  1  0.92468933  0.11820522  0.47057623  1  0.471105  0  0.080349  0.253627  0  4.07528  0
C  C90  1  0.42467299  0.38179334  0.97058519  1  0.471036  0  0.080379  0.253877  0  4.074988  0
C  C91  1  0.07533372  0.88179347  0.52941704  1  0.470802  0  0.080471  0.253938  0  4.074786  0
C  C92  1  0.70017863  0.60695366  0.09441032  1  -0.056821  0  -0.088451  -0.196575  0  3.948952  0
C  C93  1  0.79982123  0.10694772  0.40558496  1  -0.058426  0  -0.088483  -0.196689  0  3.948858  0
C  C94  1  0.29980586  0.39304966  0.90559318  1  -0.057572  0  -0.088365  -0.196619  0  3.94916  0
C  C95  1  0.20020440  0.89305745  0.59440410  1  -0.057694  0  -0.088373  -0.196472  0  3.948722  0
C  C96  1  0.30090197  0.58845736  0.96702391  1  0.425869  0  -0.059636  -0.010317  0  3.914575  0
C  C97  1  0.19908981  0.08844711  0.53297067  1  0.425701  0  -0.059475  -0.010038  0  3.914646  0
C  C98  1  0.69907241  0.41156031  0.03297171  1  0.424224  0  -0.059445  -0.00995  0  3.914786  0
C  C99  1  0.80092264  0.91155343  0.46703098  1  0.424687  0  -0.059504  -0.010109  0  3.914813  0
C  C100  1  0.14909351  0.54139258  0.98366346  1  -0.055944  0  -0.015743  0.081047  0  3.977558  0
C  C101  1  0.35090702  0.04138361  0.51632854  1  -0.056188  0  -0.015741  0.080952  0  3.97797  0
C  C102  1  0.85086035  0.45862138  0.01633196  1  -0.05517  0  -0.015845  0.080643  0  3.978112  0
C  C103  1  0.64914476  0.95861879  0.48366502  1  -0.055717  0  -0.015857  0.080662  0  3.978357  0
C  C104  1  0.01155862  0.54043911  0.92375891  1  -0.032002  0  -0.094707  -0.132883  0  3.998567  0
C  C105  1  0.48843802  0.04043363  0.57623730  1  -0.031964  0  -0.09467  -0.132677  0  3.998746  0
C  C106  1  0.98837239  0.45958457  0.07623486  1  -0.030017  0  -0.094566  -0.132219  0  3.998686  0
C  C107  1  0.51161662  0.95956692  0.42376549  1  -0.030574  0  -0.094574  -0.132323  0  3.998409  0
C  C108  1  0.13644634  0.50045540  0.05996147  1  -0.011787  0  -0.095009  -0.121161  0  3.993793  0
C  C109  1  0.36356278  0.00044917  0.44002665  1  -0.012066  0  -0.094937  -0.120959  0  3.993866  0
C  C110  1  0.86349098  0.49955440  0.94002458  1  -0.011307  0  -0.094861  -0.120552  0  3.993289  0
C  C111  1  0.63650517  0.99955045  0.55997273  1  -0.011169  0  -0.094879  -0.120676  0  3.993494  0
C  C112  1  0.62733263  0.73763299  0.26242613  1  0.485213  0  0.05698  0.114891  0  3.914302  0
C  C113  1  0.87266466  0.23763794  0.23759203  1  0.484907  0  0.057045  0.114927  0  3.914261  0
C  C114  1  0.37266980  0.26235506  0.73758180  1  0.485422  0  0.056892  0.114543  0  3.914644  0
C  C115  1  0.12733649  0.76235428  0.76237698  1  0.48473  0  0.057088  0.114666  0  3.914086  0
C  C116  1  0.73631920  0.78981374  0.24380171  1  0.028873  0  -0.069169  -0.176169  0  3.882784  0
C  C117  1  0.76368234  0.28982285  0.25622056  1  0.029998  0  -0.069124  -0.176238  0  3.882801  0
C  C118  1  0.26366998  0.21017524  0.75622872  1  0.030346  0  -0.069115  -0.176099  0  3.88254  0
C  C119  1  0.23632158  0.71017214  0.74374353  1  0.030519  0  -0.069203  -0.176255  0  3.882898  0
C  C120  1  0.68758768  0.83236141  0.17696596  1  0.276085  0  0.106673  0.197647  0  4.035472  0
C  C121  1  0.81240808  0.33236655  0.32305893  1  0.27628  0  0.106754  0.197993  0  4.035481  0
C  C122  1  0.31239456  0.16763682  0.82307925  1  0.275591  0  0.106959  0.198325  0  4.034828  0
C  C123  1  0.18758530  0.66762612  0.67690363  1  0.276923  0  0.10671  0.197847  0  4.035473  0
C  C124  1  0.53638261  0.81912092  0.12885985  1  -0.014004  0  -0.067003  -0.178601  0  3.910914  0
C  C125  1  0.96362760  0.31913314  0.37115533  1  -0.015646  0  -0.067059  -0.179077  0  3.911242  0
C  C126  1  0.46360714  0.18088055  0.87117341  1  -0.013559  0  -0.067291  -0.179298  0  3.911169  0
C  C127  1  0.03635907  0.68086278  0.62881636  1  -0.016751  0  -0.066962  -0.178859  0  3.911061  0
C  C128  1  0.43674318  0.76499837  0.15075114  1  0.513051  0  0.058159  0.107877  0  3.907599  0
C  C129  1  0.06326234  0.26500633  0.34926223  1  0.514026  0  0.058158  0.108116  0  3.908123  0
C  C130  1  0.56324450  0.23499570  0.84927007  1  0.513272  0  0.058309  0.108238  0  3.908404  0
C  C131  1  0.93672979  0.73498634  0.65070952  1  0.515552  0  0.058029  0.108029  0  3.908142  0
C  C132  1  0.99845367  0.95731366  0.18572292  1  0.266452  0  0.107886  0.199133  0  4.030502  0
C  C133  1  0.50152468  0.45731174  0.31431057  1  0.265584  0  0.107845  0.19893  0  4.030741  0
C  C134  1  0.00152901  0.04268920  0.81431593  1  0.265457  0  0.107819  0.199178  0  4.030588  0
C  C135  1  0.49847453  0.54267955  0.68568459  1  0.265652  0  0.107973  0.19912  0  4.030955  0
C  C136  1  0.18221890  0.96493391  0.20292262  1  0.006071  0  -0.072287  -0.182016  0  3.906099  0
C  C137  1  0.31774730  0.46493168  0.29712364  1  0.005049  0  -0.072008  -0.181769  0  3.90615  0
C  C138  1  0.81776174  0.03506247  0.79712824  1  0.004394  0  -0.07209  -0.181981  0  3.906373  0
C  C139  1  0.68224773  0.53505822  0.70288138  1  0.005084  0  -0.072192  -0.182006  0  3.90642  0
C  C140  1  0.25142302  0.02447657  0.20978717  1  0.464114  0  0.052144  0.09899  0  3.907705  0
C  C141  1  0.24855543  0.52447024  0.29024159  1  0.464319  0  0.052114  0.0991  0  3.907836  0
C  C142  1  0.74857441  0.97552305  0.79023838  1  0.463687  0  0.052046  0.099018  0  3.907848  0
C  C143  1  0.75143880  0.47551919  0.70976625  1  0.464105  0  0.052107  0.098977  0  3.907963  0
C  C144  1  0.97193564  0.06777203  0.18041278  1  0.502825  0  0.062003  0.120781  0  3.90892  0
C  C145  1  0.52807396  0.56776972  0.31957495  1  0.501998  0  0.062083  0.120934  0  3.908803  0
C  C146  1  0.02809967  0.93222759  0.81956152  1  0.50164  0  0.06199  0.120802  0  3.908417  0
C  C147  1  0.47191153  0.43222157  0.68042503  1  0.501507  0  0.062045  0.120926  0  3.908452  0
C  C148  1  0.89225821  0.01004739  0.17312867  1  0.053698  0  -0.067797  -0.174357  0  3.892918  0
C  C149  1  0.60773755  0.51004580  0.32687043  1  0.054901  0  -0.067903  -0.174427  0  3.893008  0
C  C150  1  0.10775554  0.98995546  0.82685390  1  0.054536  0  -0.067771  -0.174382  0  3.892879  0
C  C151  1  0.39226054  0.48994873  0.67314311  1  0.055215  0  -0.068008  -0.174644  0  3.893276  0
N  N152  1  0.47825582  0.72543752  0.21796269  1  -1.234741  0  -0.312983  -0.221909  0  3.503046  0
N  N153  1  0.02174845  0.22544858  0.28205292  1  -1.235042  0  -0.313092  -0.222105  0  3.503553  0
N  N154  1  0.52174381  0.27454729  0.78205510  1  -1.235471  0  -0.313103  -0.221961  0  3.503624  0
N  N155  1  0.97824091  0.77454595  0.71792375  1  -1.235553  0  -0.313135  -0.222216  0  3.503607  0
N  N156  1  0.77352294  0.89058890  0.15903351  1  -0.41588  0  -0.124487  -0.1056  0  3.234322  0
N  N157  1  0.72647618  0.39059651  0.34099264  1  -0.417135  0  -0.124627  -0.105663  0  3.233884  0
N  N158  1  0.22645226  0.10940656  0.84101234  1  -0.417048  0  -0.124728  -0.105973  0  3.233722  0
N  N159  1  0.27351375  0.60939246  0.65898687  1  -0.416262  0  -0.12465  -0.105734  0  3.233941  0
N  N160  1  0.92657989  0.89629734  0.19109413  1  -0.454877  0  -0.131773  -0.11795  0  3.234536  0
N  N161  1  0.57340105  0.39629492  0.30894666  1  -0.453933  0  -0.131664  -0.117877  0  3.234242  0
N  N162  1  0.07338320  0.10370829  0.80895089  1  -0.453837  0  -0.13159  -0.117735  0  3.234141  0
N  N163  1  0.42658435  0.60369498  0.69103916  1  -0.454419  0  -0.131642  -0.11777  0  3.234408  0
N  N164  1  0.14684751  0.07515857  0.20020784  1  -1.247331  0  -0.319822  -0.217766  0  3.553653  0
N  N165  1  0.35314231  0.57515225  0.29979541  1  -1.24647  0  -0.319861  -0.217879  0  3.55337  0
N  N166  1  0.85316777  0.92484059  0.79977900  1  -1.24628  0  -0.319796  -0.217774  0  3.553142  0
N  N167  1  0.64683777  0.42483950  0.70022361  1  -1.246542  0  -0.319873  -0.217766  0  3.553039  0
O  O168  1  0.13272540  0.66506889  0.15817441  1  -1.171156  0  -0.331767  -0.547858  0  2.32612  0
O  O169  1  0.36728337  0.16508265  0.34182235  1  -1.171241  0  -0.331865  -0.547909  0  2.3258  0
O  O170  1  0.86724941  0.33493720  0.84184385  1  -1.171331  0  -0.331713  -0.547784  0  2.325788  0
O  O171  1  0.63276265  0.83493965  0.65815771  1  -1.170599  0  -0.331686  -0.54776  0  2.325779  0
O  O172  1  0.92445663  0.60466320  0.24532350  1  -1.188593  0  -0.322731  -0.562462  0  2.15837  0
O  O173  1  0.57552427  0.10467183  0.25466169  1  -1.188687  0  -0.322773  -0.562509  0  2.158489  0
O  O174  1  0.07554164  0.39532855  0.75466528  1  -1.188624  0  -0.322701  -0.562342  0  2.158282  0
O  O175  1  0.42449098  0.89533843  0.74533009  1  -1.188884  0  -0.322627  -0.562329  0  2.15839  0
O  O176  1  0.88947035  0.80702433  0.93026513  1  -1.173007  0  -0.334102  -0.569858  0  2.138231  0
O  O177  1  0.61057668  0.30703725  0.56969585  1  -1.173115  0  -0.334151  -0.569846  0  2.137746  0
O  O178  1  0.11056059  0.19296742  0.06971974  1  -1.173525  0  -0.334096  -0.56976  0  2.138296  0
O  O179  1  0.38945314  0.69296561  0.43030740  1  -1.17231  0  -0.334133  -0.56986  0  2.13771  0
O  O180  1  0.64267437  0.77713072  0.86149860  1  -1.155038  0  -0.34529  -0.551199  0  2.251182  0
O  O181  1  0.85733474  0.27712449  0.63849534  1  -1.155091  0  -0.34522  -0.551152  0  2.251174  0
O  O182  1  0.35734452  0.22288093  0.13850453  1  -1.155432  0  -0.345109  -0.551072  0  2.251185  0
O  O183  1  0.14265068  0.72287189  0.36151454  1  -1.155154  0  -0.345256  -0.551286  0  2.251105  0
O  O184  1  0.43846334  0.57544950  0.02715452  1  -1.080392  0  -0.173703  -0.187709  0  2.576612  0
O  O185  1  0.06153511  0.07543610  0.47284244  1  -1.080095  0  -0.173783  -0.187944  0  2.576431  0
O  O186  1  0.56149042  0.42457095  0.97285574  1  -1.079942  0  -0.1739  -0.188013  0  2.576196  0
O  O187  1  0.93850652  0.92456675  0.52714819  1  -1.079835  0  -0.173942  -0.18807  0  2.576341  0
