# generated using pymatgen
data_CoH19C17N5O4
_symmetry_space_group_name_H-M   'P 1'
_cell_length_a   8.33381990
_cell_length_b   9.01175244
_cell_length_c   11.31947617
_cell_angle_alpha   82.89553245
_cell_angle_beta   86.01092265
_cell_angle_gamma   78.83533562
_symmetry_Int_Tables_number   1
_chemical_formula_structural   CoH19C17N5O4
_chemical_formula_sum   'Co2 H38 C34 N10 O8'
_cell_volume   826.71769297
_cell_formula_units_Z   2
loop_
 _symmetry_equiv_pos_site_id
 _symmetry_equiv_pos_as_xyz
  1  'x, y, z'
loop_
 _atom_site_type_symbol
 _atom_site_label
 _atom_site_symmetry_multiplicity
 _atom_site_fract_x
 _atom_site_fract_y
 _atom_site_fract_z
 _atom_site_occupancy
 _atom_site_hle17_bader_spin_density
 _atom_site_hle17_ddec_charge
 _atom_site_hle17_ddec_spin_density
 _atom_site_hle17_ddec_sum_bond_order
 _atom_site_hle17_magmom
 _atom_site_hse06_10hf_bader_spin_density
 _atom_site_hse06_10hf_ddec_charge
 _atom_site_hse06_10hf_ddec_spin_density
 _atom_site_hse06_10hf_ddec_sum_bond_order
 _atom_site_hse06_10hf_magmom
 _atom_site_hse06_bader_spin_density
 _atom_site_hse06_ddec_charge
 _atom_site_hse06_ddec_spin_density
 _atom_site_hse06_ddec_sum_bond_order
 _atom_site_hse06_magmom
 _atom_site_pbe_bader_spin_density
 _atom_site_pbe_cm5_charge
 _atom_site_pbe_ddec_charge
 _atom_site_pbe_ddec_spin_density
 _atom_site_pbe_ddec_sum_bond_order
 _atom_site_pbe_magmom
Co  Co0  1  0.52327309  0.91423865  0.93004676  1  0  0.644688  0  2.554396  0  0  0.622266  0  3.035096  0  0  0.696271  0  2.959853  0  0  0.533215  0.576815  0  3.086403  0
Co  Co1  1  0.47672899  0.08576317  0.06995709  1  0  0.644592  0  2.554378  0  0  0.622713  0  3.034807  0  0  0.696065  0  2.959863  0  0  0.533211  0.576857  0  3.086324  0
H  H2  1  0.38468570  0.46528605  0.90720069  1  0  0.339919  0  0.893031  0  0  0.322139  0  0.957014  0  0  0.32957  0  0.951  0  0  0.310663  0.317  0  0.961096  0
H  H3  1  0.61531338  0.53470668  0.09280415  1  0  0.340044  0  0.892939  0  0  0.322232  0  0.95693  0  0  0.329661  0  0.950925  0  0  0.310751  0.317096  0  0.961008  0
H  H4  1  0.37812909  0.65098747  0.94668469  1  0  0.341807  0  0.938325  0  0  0.320543  0  1.00405  0  0  0.328834  0  0.996951  0  0  0.305171  0.314633  0  1.009194  0
H  H5  1  0.62187145  0.34900990  0.05331258  1  0  0.341889  0  0.938226  0  0  0.320616  0  1.003968  0  0  0.328911  0  0.996856  0  0  0.305186  0.31471  0  1.009109  0
H  H6  1  0.83089177  0.86715409  0.59330635  1  0  0.330759  0  0.880894  0  0  0.319862  0  0.935672  0  0  0.325912  0  0.931625  0  0  0.316957  0.315458  0  0.938568  0
H  H7  1  0.16910396  0.13284325  0.40669383  1  0  0.330731  0  0.880939  0  0  0.319848  0  0.935701  0  0  0.325897  0  0.931654  0  0  0.31696  0.315448  0  0.938595  0
H  H8  1  0.73526034  0.94194981  0.72288333  1  0  0.344802  0  0.933189  0  0  0.324351  0  0.998545  0  0  0.332621  0  0.991437  0  0  0.30521  0.318079  0  1.004411  0
H  H9  1  0.26473374  0.05804981  0.27711672  1  0  0.344764  0  0.933247  0  0  0.32433  0  0.998564  0  0  0.332602  0  0.99145  0  0  0.305224  0.318067  0  1.004421  0
H  H10  1  0.87963984  0.50531697  0.44567420  1  0  0.091184  0  0.980323  0  0  0.097835  0  1.053516  0  0  0.101125  0  1.050851  0  0  0.100042  0.095673  0  1.055193  0
H  H11  1  0.12035912  0.49468833  0.55432508  1  0  0.091242  0  0.980296  0  0  0.097858  0  1.053515  0  0  0.101146  0  1.050853  0  0  0.100063  0.095696  0  1.055193  0
H  H12  1  0.92778723  0.32398644  0.29103200  1  0  0.086318  0  0.960956  0  0  0.097865  0  1.019775  0  0  0.100842  0  1.018861  0  0  0.098357  0.095821  0  1.020078  0
H  H13  1  0.07221568  0.67602914  0.70896260  1  0  0.086419  0  0.960984  0  0  0.097985  0  1.019771  0  0  0.100966  0  1.018854  0  0  0.098371  0.095934  0  1.020078  0
H  H14  1  0.76798712  0.11514913  0.30518013  1  0  0.094415  0  0.967927  0  0  0.105688  0  1.029949  0  0  0.108617  0  1.0284  0  0  0.102237  0.103552  0  1.031341  0
H  H15  1  0.23202270  0.88486192  0.69481187  1  0  0.094326  0  0.967883  0  0  0.105644  0  1.029849  0  0  0.108564  0  1.028323  0  0  0.102223  0.103504  0  1.031239  0
H  H16  1  0.57830049  0.07650815  0.47976704  1  0  0.084643  0  0.968112  0  0  0.095884  0  1.028304  0  0  0.098817  0  1.026942  0  0  0.097918  0.093996  0  1.028856  0
H  H17  1  0.42171685  0.92348928  0.52022227  1  0  0.084702  0  0.968292  0  0  0.095972  0  1.028436  0  0  0.098901  0  1.027075  0  0  0.097963  0.094088  0  1.028973  0
H  H18  1  0.53211362  0.25685402  0.63385022  1  0  0.100011  0  0.955801  0  0  0.108476  0  1.021224  0  0  0.112132  0  1.018606  0  0  0.102607  0.105799  0  1.023245  0
H  H19  1  0.46789731  0.74312742  0.36614618  1  0  0.099955  0  0.955931  0  0  0.108447  0  1.021324  0  0  0.112099  0  1.018714  0  0  0.102602  0.105775  0  1.023342  0
H  H20  1  0.26003764  0.36639295  0.72982666  1  0  0.091387  0  0.928994  0  0  0.100265  0  0.994289  0  0  0.102573  0  0.993918  0  0  0.107127  0.098105  0  0.995292  0
H  H21  1  0.73995614  0.63362027  0.27017570  1  0  0.091426  0  0.929019  0  0  0.100265  0  0.994368  0  0  0.102573  0  0.993997  0  0  0.107103  0.098104  0  0.995374  0
H  H22  1  0.11099366  0.44451640  0.92003452  1  0  0.0721  0  0.956271  0  0  0.088584  0  1.019692  0  0  0.089848  0  1.019615  0  0  0.091479  0.087725  0  1.019753  0
H  H23  1  0.88899571  0.55548885  0.07997057  1  0  0.072125  0  0.956201  0  0  0.088573  0  1.019667  0  0  0.08986  0  1.019564  0  0  0.091508  0.087708  0  1.019732  0
H  H24  1  0.98179494  0.47109930  0.79876566  1  0  0.07359  0  0.930556  0  0  0.09227  0  0.989704  0  0  0.092253  0  0.991257  0  0  0.09135  0.092176  0  0.988642  0
H  H25  1  0.01820346  0.52889684  0.20123890  1  0  0.073575  0  0.930559  0  0  0.092259  0  0.98969  0  0  0.092253  0  0.99123  0  0  0.091344  0.092155  0  0.988642  0
H  H26  1  0.01565308  0.20338565  0.99753849  1  0  0.076176  0  0.923898  0  0  0.09562  0  0.981189  0  0  0.0965  0  0.981403  0  0  0.091039  0.094951  0  0.980979  0
H  H27  1  0.98434342  0.79661394  0.00246321  1  0  0.076199  0  0.92386  0  0  0.095635  0  0.981155  0  0  0.096517  0  0.981369  0  0  0.09105  0.094966  0  0.980939  0
H  H28  1  0.85073842  0.35787078  0.98198810  1  0  0.069835  0  0.963106  0  0  0.089137  0  1.022899  0  0  0.09041  0  1.022706  0  0  0.093647  0.088145  0  1.023143  0
H  H29  1  0.14925183  0.64212997  0.01801294  1  0  0.069889  0  0.963083  0  0  0.089193  0  1.022868  0  0  0.090467  0  1.022672  0  0  0.093651  0.088204  0  1.023106  0
H  H30  1  0.79085799  0.28899122  0.78668098  1  0  0.09001  0  0.942963  0  0  0.101042  0  1.003508  0  0  0.102727  0  1.004485  0  0  0.107582  0.099659  0  1.003158  0
H  H31  1  0.20913730  0.71100838  0.21331990  1  0  0.089897  0  0.942954  0  0  0.100999  0  1.00349  0  0  0.102693  0  1.004453  0  0  0.10755  0.099599  0  1.003162  0
H  H32  1  0.93792905  0.05197278  0.70928979  1  0  0.068096  0  0.955637  0  0  0.087421  0  1.016109  0  0  0.088082  0  1.017189  0  0  0.091792  0.086586  0  1.016032  0
H  H33  1  0.06207180  0.94802908  0.29071147  1  0  0.068134  0  0.955742  0  0  0.08744  0  1.016211  0  0  0.088094  0  1.017293  0  0  0.091814  0.086605  0  1.016138  0
H  H34  1  0.06718477  0.01258658  0.83073292  1  0  0.071392  0  0.932763  0  0  0.089023  0  0.995103  0  0  0.090056  0  0.994938  0  0  0.0901  0.08829  0  0.995072  0
H  H35  1  0.93281443  0.98741755  0.16926910  1  0  0.071426  0  0.932754  0  0  0.089034  0  0.99509  0  0  0.090063  0  0.994927  0  0  0.090104  0.088304  0  0.99506  0
H  H36  1  0.03874334  0.28760825  0.63821038  1  0  0.070393  0  0.949779  0  0  0.086434  0  1.016611  0  0  0.086546  0  1.017946  0  0  0.089022  0.086157  0  1.016096  0
H  H37  1  0.96125497  0.71240040  0.36179393  1  0  0.070374  0  0.949883  0  0  0.086453  0  1.016657  0  0  0.086566  0  1.017988  0  0  0.089037  0.086178  0  1.016139  0
H  H38  1  0.20472669  0.13338400  0.65112699  1  0  0.077968  0  0.942746  0  0  0.095052  0  1.003159  0  0  0.096504  0  1.00257  0  0  0.093068  0.093892  0  1.003792  0
H  H39  1  0.79527304  0.86662353  0.34887558  1  0  0.077998  0  0.942646  0  0  0.095033  0  1.00312  0  0  0.096483  0  1.002536  0  0  0.093049  0.093875  0  1.003753  0
C  C40  1  0.52112168  0.59415782  0.79903196  1  0  0.670338  0  3.838395  0  0  0.626803  0  4.114658  0  0  0.655903  0  4.11987  0  0  0.346928  0.607339  0  4.111138  0
C  C41  1  0.47887667  0.40583843  0.20096376  1  0  0.670408  0  3.838807  0  0  0.627006  0  4.114915  0  0  0.656099  0  4.120123  0  0  0.347008  0.607539  0  4.111404  0
C  C42  1  0.68429845  0.73855750  0.68779635  1  0  0.66667  0  3.854361  0  0  0.622203  0  4.136493  0  0  0.651301  0  4.141059  0  0  0.346479  0.603007  0  4.131554  0
C  C43  1  0.31570186  0.26144099  0.31220171  1  0  0.666658  0  3.854553  0  0  0.622199  0  4.136708  0  0  0.651292  0  4.141278  0  0  0.346474  0.602999  0  4.131774  0
C  C44  1  0.66237327  0.50886308  0.63354003  1  0  0.4302  0  3.852369  0  0  0.40301  0  4.12304  0  0  0.426026  0  4.131854  0  0  0.246949  0.388046  0  4.115132  0
C  C45  1  0.33762578  0.49112969  0.36646039  1  0  0.430007  0  3.852706  0  0  0.402789  0  4.123364  0  0  0.425801  0  4.132195  0  0  0.246854  0.387829  0  4.115452  0
C  C46  1  0.70126296  0.39372692  0.54803465  1  0  -0.02837  0  3.75371  0  0  -0.004718  0  3.979186  0  0  -0.011056  0  4.00254  0  0  -0.009932  -4.9e-05  0  3.962579  0
C  C47  1  0.29874329  0.60626588  0.45196274  1  0  -0.028208  0  3.753898  0  0  -0.00451  0  3.979305  0  0  -0.010813  0  4.002596  0  0  -0.009899  0.000154  0  3.962704  0
C  C48  1  0.81498681  0.41048302  0.45215878  1  0  -0.07768  0  3.72701  0  0  -0.101524  0  3.975099  0  0  -0.100763  0  3.994337  0  0  -0.083815  -0.103965  0  3.963859  0
C  C49  1  0.18502290  0.58951660  0.54783868  1  0  -0.077773  0  3.727217  0  0  -0.101615  0  3.975299  0  0  -0.100857  0  3.994542  0  0  -0.083859  -0.104057  0  3.964055  0
C  C50  1  0.84146111  0.30906299  0.36633970  1  0  -0.083577  0  3.788065  0  0  -0.095326  0  4.040592  0  0  -0.098792  0  4.061967  0  0  -0.097354  -0.092975  0  4.027036  0
C  C51  1  0.15854814  0.69093891  0.63365669  1  0  -0.083802  0  3.788358  0  0  -0.095567  0  4.04088  0  0  -0.099041  0  4.06226  0  0  -0.09742  -0.09321  0  4.027309  0
C  C52  1  0.75433675  0.19008614  0.37505378  1  0  -0.062206  0  3.751903  0  0  -0.079084  0  4.000081  0  0  -0.078961  0  4.020561  0  0  -0.090794  -0.079524  0  3.98647  0
C  C53  1  0.24567271  0.80991467  0.62493916  1  0  -0.061877  0  3.751822  0  0  -0.07878  0  4.000025  0  0  -0.078657  0  4.020501  0  0  -0.090621  -0.07922  0  3.986398  0
C  C54  1  0.64527534  0.16985510  0.47238882  1  0  -0.073536  0  3.780493  0  0  -0.085485  0  4.032122  0  0  -0.08883  0  4.053892  0  0  -0.09714  -0.083434  0  4.015978  0
C  C55  1  0.35473651  0.83014575  0.52760046  1  0  -0.073589  0  3.780575  0  0  -0.085576  0  4.03221  0  0  -0.088918  0  4.053975  0  0  -0.097139  -0.083521  0  4.016065  0
C  C56  1  0.61905267  0.27038412  0.55879362  1  0  -0.070567  0  3.702258  0  0  -0.093487  0  3.947358  0  0  -0.09295  0  3.966894  0  0  -0.083429  -0.092481  0  3.932525  0
C  C57  1  0.38095163  0.72960643  0.44120230  1  0  -0.070668  0  3.702537  0  0  -0.093652  0  3.947678  0  0  -0.093118  0  3.967217  0  0  -0.083556  -0.09265  0  3.932853  0
C  C58  1  0.73925238  0.11648497  0.91090686  1  0  0.659963  0  3.714909  0  0  0.610271  0  4.02078  0  0  0.651897  0  4.010361  0  0  0.235603  0.580929  0  4.02689  0
C  C59  1  0.26074124  0.88351693  0.08909212  1  0  0.659774  0  3.715134  0  0  0.61024  0  4.020869  0  0  0.651864  0  4.010456  0  0  0.235607  0.580886  0  4.026987  0
C  C60  1  0.31337540  0.18298629  0.86295021  1  0  0.636565  0  3.73026  0  0  0.59708  0  4.034604  0  0  0.637684  0  4.026978  0  0  0.224929  0.56825  0  4.040108  0
C  C61  1  0.68662059  0.81700986  0.13705360  1  0  0.636482  0  3.730304  0  0  0.597006  0  4.034661  0  0  0.637612  0  4.027031  0  0  0.224868  0.568178  0  4.040171  0
C  C62  1  0.18900267  0.28942735  0.78479688  1  0  -0.121571  0  3.642143  0  0  -0.124263  0  3.880522  0  0  -0.132418  0  3.895511  0  0  -0.086912  -0.118584  0  3.870413  0
C  C63  1  0.81100183  0.71057445  0.21520861  1  0  -0.121608  0  3.642194  0  0  -0.124254  0  3.880492  0  0  -0.132406  0  3.895477  0  0  -0.086862  -0.118567  0  3.870367  0
C  C64  1  0.05612255  0.38410612  0.85982955  1  0  -0.112463  0  3.655651  0  0  -0.157525  0  3.915533  0  0  -0.157278  0  3.928904  0  0  -0.163679  -0.157317  0  3.906096  0
C  C65  1  0.94387593  0.61589568  0.14017714  1  0  -0.112411  0  3.65572  0  0  -0.157448  0  3.915566  0  0  -0.157222  0  3.928933  0  0  -0.163681  -0.157231  0  3.906129  0
C  C66  1  0.94480580  0.28572628  0.93130105  1  0  -0.109856  0  3.652727  0  0  -0.154325  0  3.908564  0  0  -0.154128  0  3.921091  0  0  -0.165115  -0.154368  0  3.899769  0
C  C67  1  0.05518950  0.71427330  0.06870159  1  0  -0.11002  0  3.652616  0  0  -0.154451  0  3.908506  0  0  -0.154259  0  3.921044  0  0  -0.165142  -0.154491  0  3.899694  0
C  C68  1  0.86578281  0.20166468  0.84798737  1  0  -0.127168  0  3.654855  0  0  -0.126764  0  3.894212  0  0  -0.134871  0  3.908935  0  0  -0.087821  -0.12094  0  3.88373  0
C  C69  1  0.13421082  0.79833718  0.15201427  1  0  -0.126932  0  3.654576  0  0  -0.126731  0  3.894066  0  0  -0.134845  0  3.908792  0  0  -0.087831  -0.120901  0  3.883614  0
C  C70  1  0.99594589  0.10557304  0.77238641  1  0  -0.114296  0  3.668519  0  0  -0.161317  0  3.929479  0  0  -0.161424  0  3.942781  0  0  -0.166196  -0.160963  0  3.920284  0
C  C71  1  0.00405069  0.89443221  0.22761653  1  0  -0.114376  0  3.668512  0  0  -0.161314  0  3.929452  0  0  -0.161414  0  3.942754  0  0  -0.166178  -0.16096  0  3.920257  0
C  C72  1  0.10989701  0.20357080  0.70296602  1  0  -0.116332  0  3.660407  0  0  -0.161533  0  3.919021  0  0  -0.161148  0  3.931941  0  0  -0.165127  -0.161629  0  3.910375  0
C  C73  1  0.89010461  0.79643329  0.29703853  1  0  -0.116319  0  3.660386  0  0  -0.161536  0  3.919009  0  0  -0.161152  0  3.931928  0  0  -0.16512  -0.161633  0  3.910359  0
N  N74  1  0.58100207  0.72601109  0.78551278  1  0  -0.567937  0  2.902363  0  0  -0.516353  0  3.161304  0  0  -0.545135  0  3.164529  0  0  -0.324371  -0.49857  0  3.15984  0
N  N75  1  0.41899270  0.27398511  0.21448755  1  0  -0.567827  0  2.902547  0  0  -0.516435  0  3.161596  0  0  -0.545172  0  3.164779  0  0  -0.324388  -0.498618  0  3.160125  0
N  N76  1  0.72986422  0.63301121  0.61051639  1  0  -0.572661  0  2.976993  0  0  -0.538495  0  3.255052  0  0  -0.561675  0  3.263789  0  0  -0.350061  -0.520349  0  3.245652  0
N  N77  1  0.27013484  0.36698156  0.38948490  1  0  -0.572665  0  2.97727  0  0  -0.53846  0  3.255297  0  0  -0.56165  0  3.264053  0  0  -0.350012  -0.52031  0  3.245895  0
N  N78  1  0.55996637  0.48199510  0.72672707  1  0  -0.571911  0  2.976381  0  0  -0.535666  0  3.251286  0  0  -0.558735  0  3.259433  0  0  -0.35014  -0.52098  0  3.246275  0
N  N79  1  0.44002837  0.51800114  0.27326972  1  0  -0.571914  0  2.976596  0  0  -0.535675  0  3.251419  0  0  -0.558756  0  3.259581  0  0  -0.350153  -0.52099  0  3.246409  0
N  N80  1  0.41385462  0.57029612  0.88963716  1  0  -0.691851  0  3.100583  0  0  -0.654917  0  3.341814  0  0  -0.676458  0  3.335779  0  0  -0.575447  -0.639799  0  3.345591  0
N  N81  1  0.58613700  0.42969778  0.11036531  1  0  -0.692042  0  3.100784  0  0  -0.655095  0  3.342041  0  0  -0.676636  0  3.336006  0  0  -0.575524  -0.639969  0  3.345812  0
N  N82  1  0.74551886  0.86654510  0.66132191  1  0  -0.698004  0  3.106914  0  0  -0.666001  0  3.346547  0  0  -0.68685  0  3.340774  0  0  -0.573603  -0.650495  0  3.349677  0
N  N83  1  0.25447229  0.13345111  0.33867772  1  0  -0.697997  0  3.10697  0  0  -0.665992  0  3.346564  0  0  -0.686838  0  3.34079  0  0  -0.573638  -0.650483  0  3.349693  0
O  O84  1  0.70713428  0.00197904  0.86710115  1  0  -0.527424  0  2.235926  0  0  -0.48433  0  2.510074  0  0  -0.521087  0  2.500535  0  0  -0.28294  -0.460161  0  2.517355  0
O  O85  1  0.29285958  0.99802169  0.13290058  1  0  -0.527346  0  2.235887  0  0  -0.484399  0  2.510015  0  0  -0.521106  0  2.500462  0  0  -0.282969  -0.460178  0  2.51729  0
O  O86  1  0.66184567  0.16701837  0.00371582  1  0  -0.526646  0  2.243999  0  0  -0.484593  0  2.521634  0  0  -0.52156  0  2.512305  0  0  -0.284129  -0.459624  0  2.527713  0
O  O87  1  0.33815497  0.83298459  0.99628800  1  0  -0.526586  0  2.244083  0  0  -0.484494  0  2.521631  0  0  -0.521513  0  2.512311  0  0  -0.284142  -0.459557  0  2.527708  0
O  O88  1  0.34140623  0.22681820  0.96200243  1  0  -0.525838  0  2.168039  0  0  -0.498045  0  2.450265  0  0  -0.535261  0  2.441349  0  0  -0.294741  -0.473335  0  2.45684  0
O  O89  1  0.65860498  0.77318596  0.03799542  1  0  -0.525805  0  2.168083  0  0  -0.497944  0  2.450277  0  0  -0.535245  0  2.441382  0  0  -0.294665  -0.473276  0  2.456846  0
O  O90  1  0.38342211  0.05667479  0.82633173  1  0  -0.503305  0  2.150576  0  0  -0.475591  0  2.43099  0  0  -0.513573  0  2.423153  0  0  -0.286736  -0.450598  0  2.437032  0
O  O91  1  0.61658476  0.94332706  0.17366921  1  0  -0.503298  0  2.150684  0  0  -0.475625  0  2.431035  0  0  -0.513529  0  2.423171  0  0  -0.286767  -0.450585  0  2.437078  0
