# generated using pymatgen
data_CuH18(C9O2)2
_symmetry_space_group_name_H-M   'P 1'
_cell_length_a   5.21874316
_cell_length_b   8.74883312
_cell_length_c   17.46650291
_cell_angle_alpha   87.79379637
_cell_angle_beta   82.55862957
_cell_angle_gamma   81.95758735
_symmetry_Int_Tables_number   1
_chemical_formula_structural   CuH18(C9O2)2
_chemical_formula_sum   'Cu2 H36 C36 O8'
_cell_volume   782.82156696
_cell_formula_units_Z   2
loop_
 _symmetry_equiv_pos_site_id
 _symmetry_equiv_pos_as_xyz
  1  'x, y, z'
loop_
 _atom_site_type_symbol
 _atom_site_label
 _atom_site_symmetry_multiplicity
 _atom_site_fract_x
 _atom_site_fract_y
 _atom_site_fract_z
 _atom_site_occupancy
 _atom_site_hle17_ddec_charge
 _atom_site_hle17_ddec_spin_density
 _atom_site_hle17_ddec_sum_bond_order
 _atom_site_hle17_magmom
 _atom_site_hse06_10hf_ddec_charge
 _atom_site_hse06_10hf_ddec_spin_density
 _atom_site_hse06_10hf_ddec_sum_bond_order
 _atom_site_hse06_10hf_magmom
 _atom_site_hse06_ddec_charge
 _atom_site_hse06_ddec_spin_density
 _atom_site_hse06_ddec_sum_bond_order
 _atom_site_hse06_magmom
 _atom_site_pbe_cm5_charge
 _atom_site_pbe_ddec_charge
 _atom_site_pbe_ddec_spin_density
 _atom_site_pbe_ddec_sum_bond_order
 _atom_site_pbe_magmom
Cu  Cu0  1  0.27745969  0.07106835  0.99141094  1  0.894636  -0.654755  1.831356  -0.469  0.891924  -0.786569  2.233169  -0.619  1.008493  -0.87725  2.118789  -0.718  0.680216  0.824454  -0.679343  2.294415  -0.524
Cu  Cu1  1  0.72253740  0.92893613  0.00858947  1  0.894558  0.654726  1.831207  0.469  0.891844  0.786558  2.233025  0.619  1.008423  0.877247  2.118695  0.718  0.680122  0.82432  0.679346  2.294283  0.524
H  H2  1  0.71790415  0.17482162  0.66229663  1  0.079945  8e-06  0.960214  0.0  0.094971  1e-06  1.017109  0.0  0.097276  -0.0  1.016509  0.0  0.098605  0.093369  1e-06  1.01759  0.0
H  H3  1  0.28207695  0.82518521  0.33770377  1  0.079928  -9e-06  0.960225  0.0  0.094926  -0.0  1.017156  0.0  0.097232  0.0  1.016556  0.0  0.098578  0.093324  -1e-06  1.017635  0.0
H  H4  1  0.01698189  0.37553559  0.92942357  1  0.114584  -0.000968  0.939708  -0.001  0.127012  -0.000736  1.002705  -0.001  0.1292  -0.000489  1.00174  -0.001  0.103079  0.125132  -0.000768  1.003712  -0.001
H  H5  1  0.98304420  0.62445155  0.07056859  1  0.114594  0.000969  0.939723  0.001  0.127044  0.000736  1.002728  0.001  0.129234  0.000489  1.001771  0.001  0.103125  0.125165  0.000769  1.003736  0.001
H  H6  1  0.76027723  0.47276690  0.99375142  1  0.115411  0.000544  0.937658  0.0  0.13152  0.000455  0.996971  0.0  0.133756  0.000323  0.996828  0.0  0.107414  0.129664  0.000356  0.997461  0.0
H  H7  1  0.23976870  0.52723513  0.00624773  1  0.115521  -0.000544  0.937497  0.0  0.131577  -0.000456  0.99694  0.0  0.133806  -0.000323  0.996815  0.0  0.107461  0.129754  -0.000356  0.997395  0.0
H  H8  1  0.52347133  0.27217588  0.79132950  1  0.098457  2.2e-05  0.954411  0.0  0.109386  1.1e-05  1.015059  0.0  0.112063  2.2e-05  1.014865  0.0  0.098918  0.107503  -3e-06  1.015008  0.0
H  H9  1  0.47653388  0.72783549  0.20867104  1  0.098419  -1.8e-05  0.954413  0.0  0.109362  -1e-05  1.015055  0.0  0.112035  -2.3e-05  1.014864  0.0  0.09894  0.107479  3e-06  1.014999  0.0
H  H10  1  0.78429565  0.92438402  0.74635319  1  0.104651  -0.000519  0.937827  -0.001  0.119114  -0.000352  1.001069  0.0  0.120549  -0.000238  1.001292  0.0  0.104285  0.118312  -0.000376  1.000614  0.0
H  H11  1  0.21567798  0.07562168  0.25364695  1  0.104675  0.000514  0.937973  0.001  0.11912  0.000352  1.001222  0.0  0.120554  0.000238  1.00145  0.0  0.104296  0.118321  0.000375  1.000768  0.0
H  H12  1  0.66521591  0.75182236  0.77606252  1  0.099534  -0.000677  0.961346  -0.001  0.11563  -0.000437  1.022008  -0.001  0.116825  -0.000302  1.022695  0.0  0.103464  0.114752  -0.000522  1.021469  -0.001
H  H13  1  0.33478102  0.24817399  0.22394319  1  0.099542  0.00067  0.961354  0.001  0.115658  0.000437  1.021974  0.001  0.116854  0.000302  1.022657  0.0  0.103484  0.114783  0.000522  1.021435  0.001
H  H14  1  0.47508624  0.49354702  0.88262204  1  0.07805  -0.00029  0.938957  0.0  0.094287  -0.000267  1.002099  0.0  0.095937  -0.000177  1.000814  0.0  0.093429  0.093154  -0.000273  1.003068  0.0
H  H15  1  0.52494449  0.50647120  0.11737741  1  0.078009  0.000288  0.938857  0.0  0.094217  0.000268  1.002012  0.0  0.095868  0.000177  1.000726  0.0  0.09342  0.093085  0.000272  1.002984  0.0
H  H16  1  0.72491827  0.61291984  0.87852595  1  0.084638  0.000562  0.963556  0.0  0.100557  0.000395  1.026553  0.0  0.102003  0.00024  1.026028  0.0  0.093689  0.100287  0.000463  1.025964  0.001
H  H17  1  0.27512663  0.38708681  0.12147316  1  0.084636  -0.000567  0.963585  0.0  0.100525  -0.000395  1.026562  0.0  0.10197  -0.00024  1.026035  0.0  0.093679  0.100258  -0.000463  1.02598  -0.001
H  H18  1  0.30047699  0.48167833  0.65421804  1  0.083993  -1e-06  0.974891  0.0  0.094362  -2e-06  1.037854  0.0  0.096223  -1e-06  1.038859  0.0  0.096287  0.093059  -1e-06  1.037345  0.0
H  H19  1  0.69952064  0.51832393  0.34576864  1  0.083987  -3e-06  0.974901  0.0  0.094338  2e-06  1.037887  0.0  0.096201  1e-06  1.038887  0.0  0.096265  0.093031  1e-06  1.037391  0.0
H  H20  1  0.33658212  0.04850603  0.72397088  1  0.080398  -0.000143  0.932883  0.0  0.098933  -8.7e-05  0.993437  0.0  0.099064  -5.8e-05  0.994552  0.0  0.095019  0.098775  -0.000107  0.992753  0.0
H  H21  1  0.66336466  0.95148125  0.27603519  1  0.080499  0.00014  0.932942  0.0  0.099034  8.7e-05  0.993437  0.0  0.099164  5.8e-05  0.994563  0.0  0.095022  0.098885  0.000107  0.992757  0.0
H  H22  1  0.20178710  0.88977140  0.76656588  1  0.085057  -0.000142  0.930912  0.0  0.104574  -6e-05  0.98896  0.0  0.105681  -4.4e-05  0.988149  0.0  0.096281  0.103678  -6.6e-05  0.989833  0.0
H  H23  1  0.79819899  0.11020422  0.23343946  1  0.085038  0.000139  0.930833  0.0  0.104545  6e-05  0.988886  0.0  0.105658  4.4e-05  0.988073  0.0  0.096234  0.103651  6.6e-05  0.98977  0.0
H  H24  1  0.11055268  0.27680218  0.59361268  1  0.079883  -1.5e-05  0.984015  0.0  0.090508  2e-06  1.050277  0.0  0.0929  1e-06  1.049942  0.0  0.095295  0.088763  2e-06  1.050734  0.0
H  H25  1  0.88942495  0.72319432  0.40638117  1  0.079835  1.1e-05  0.984202  0.0  0.090467  -2e-06  1.050438  0.0  0.09285  -1e-06  1.050116  0.0  0.095296  0.08872  -2e-06  1.050893  0.0
H  H26  1  0.42555488  0.65977218  0.45166074  1  0.080418  -4e-06  0.982411  0.0  0.090303  -3e-06  1.049354  0.0  0.092338  -2e-06  1.04954  0.0  0.094493  0.088902  -4e-06  1.049183  0.0
H  H27  1  0.57447532  0.34023103  0.54834128  1  0.080412  2e-06  0.982301  0.0  0.090314  3e-06  1.04924  0.0  0.092348  2e-06  1.049429  0.0  0.094481  0.088925  4e-06  1.049059  0.0
H  H28  1  0.78069417  0.58191473  0.53433563  1  0.079937  -1e-06  0.959117  0.0  0.091094  2e-06  1.021788  0.0  0.093457  1e-06  1.02113  0.0  0.095707  0.08939  3e-06  1.022392  0.0
H  H29  1  0.21932417  0.41808966  0.46566740  1  0.079908  -6e-06  0.959133  0.0  0.091063  -2e-06  1.021791  0.0  0.093403  -1e-06  1.021161  0.0  0.095685  0.089358  -3e-06  1.022394  0.0
H  H30  1  0.76594531  0.69948011  0.65975208  1  0.082688  -6.3e-05  0.997887  0.0  0.091444  -7.5e-05  1.065723  0.0  0.093212  -5.1e-05  1.067138  0.0  0.092662  0.090092  -8.7e-05  1.064968  0.0
H  H31  1  0.23404531  0.30051858  0.34025326  1  0.082731  5.2e-05  0.998026  0.0  0.091539  7.5e-05  1.065796  0.0  0.093311  5.2e-05  1.067215  0.0  0.092684  0.090185  8.7e-05  1.06504  0.0
H  H32  1  0.10576857  0.57807814  0.78308174  1  0.091188  1.5e-05  0.9421  0.0  0.106951  2.7e-05  0.995369  0.0  0.109448  1.5e-05  0.994896  0.0  0.100398  0.105012  2.1e-05  0.996151  0.0
H  H33  1  0.89423460  0.42192525  0.21690586  1  0.091243  -1.2e-05  0.942019  0.0  0.106905  -2.7e-05  0.995387  0.0  0.1094  -1.5e-05  0.994919  0.0  0.100378  0.104985  -2.1e-05  0.996147  0.0
H  H34  1  0.04126410  0.97997068  0.62463899  1  0.079822  -1.5e-05  0.97961  0.0  0.090146  -9e-06  1.047199  0.0  0.092424  -7e-06  1.046632  0.0  0.094135  0.088511  -1.1e-05  1.047689  0.0
H  H35  1  0.95871014  0.02000614  0.37536564  1  0.079908  1.8e-05  0.979599  0.0  0.09023  9e-06  1.047181  0.0  0.092505  7e-06  1.046627  0.0  0.094154  0.088592  1.1e-05  1.047672  0.0
H  H36  1  0.05536884  0.86057808  0.49830692  1  0.07988  3.2e-05  0.972193  0.0  0.092003  1.7e-05  1.033434  0.0  0.09419  9e-06  1.033044  0.0  0.095785  0.090499  2.2e-05  1.033704  0.0
H  H37  1  0.94464421  0.13940673  0.50169436  1  0.079892  -2.9e-05  0.972199  0.0  0.092018  -1.7e-05  1.033445  0.0  0.094197  -9e-06  1.033065  0.0  0.095793  0.090512  -2.2e-05  1.033718  0.0
C  C38  1  0.69117376  0.25357298  0.96291484  1  0.717295  0.001105  3.763185  0.002  0.686189  0.000417  4.054144  0.001  0.728128  0.000516  4.048237  0.001  0.228985  0.657638  0.000451  4.05813  0.001
C  C39  1  0.30883584  0.74643609  0.03708329  1  0.717427  -0.001098  3.763123  -0.002  0.686321  -0.000421  4.054106  -0.001  0.728264  -0.000519  4.048199  -0.001  0.229026  0.657768  -0.000451  4.05809  -0.001
C  C40  1  0.80598926  0.26181133  0.68920662  1  -0.07545  -0.000462  3.801621  0.0  -0.087696  -0.000107  4.052119  0.0  -0.088854  -8.3e-05  4.073759  0.0  -0.095277  -0.087215  -8.3e-05  4.037263  0.0
C  C41  1  0.19400202  0.73819318  0.31079172  1  -0.075351  0.000494  3.801358  0.0  -0.08756  0.000106  4.051836  0.0  -0.088718  8.2e-05  4.073469  0.0  -0.095209  -0.087081  8.3e-05  4.036985  0.0
C  C42  1  0.80421954  0.40162701  0.94175982  1  -0.252751  -0.001984  3.626164  -0.002  -0.292436  -0.001232  3.870272  -0.001  -0.301654  -0.000865  3.878595  -0.001  -0.156777  -0.284363  -0.000527  3.863429  0.0
C  C43  1  0.19580294  0.59837627  0.05823563  1  -0.252817  0.001978  3.625963  0.002  -0.292651  0.001233  3.870281  0.001  -0.301886  0.000865  3.878632  0.001  -0.156901  -0.284607  0.000526  3.86345  0.0
C  C44  1  0.69616039  0.31663386  0.76186015  1  -0.123355  0.000528  3.730338  0.0  -0.143059  0.000146  3.973368  0.0  -0.146943  0.000123  3.996737  0.0  -0.095697  -0.139504  0.000183  3.956313  0.0
C  C45  1  0.30385217  0.68337059  0.23813680  1  -0.123358  -0.000572  3.730273  -0.001  -0.143064  -0.000147  3.973343  0.0  -0.146944  -0.000122  3.996709  0.0  -0.095718  -0.13951  -0.000183  3.956288  0.0
C  C46  1  0.56934556  0.92787117  0.85798189  1  0.687749  0.00077  3.797562  0.001  0.65368  0.000366  4.10211  0.0  0.69415  0.000357  4.098975  0.0  0.217043  0.626127  0.000297  4.104796  0.0
C  C47  1  0.43062804  0.07213448  0.14202455  1  0.687851  -0.000793  3.797511  -0.001  0.653784  -0.000365  4.10207  0.0  0.694244  -0.000362  4.098945  0.0  0.216992  0.626235  -0.000297  4.104768  0.0
C  C48  1  0.60988001  0.87772430  0.77464060  1  -0.247098  -0.000893  3.672462  -0.001  -0.287766  -0.000587  3.918835  -0.001  -0.295338  -0.000428  3.926695  -0.001  -0.158773  -0.281446  -0.000741  3.912261  -0.001
C  C49  1  0.39009050  0.12227791  0.22536373  1  -0.247077  0.000932  3.672777  0.001  -0.287721  0.000584  3.919064  0.001  -0.29529  0.00043  3.926931  0.001  -0.1587  -0.281398  0.000741  3.912506  0.001
C  C50  1  0.80251414  0.43128626  0.79645067  1  0.087362  -5.6e-05  3.74845  0.0  0.111011  -0.000129  3.983537  0.0  0.110243  -0.000118  4.009626  0.0  -0.014381  0.111866  -7.9e-05  3.96527  0.0
C  C51  1  0.19749275  0.56872628  0.20354636  1  0.087296  8.7e-05  3.748564  0.0  0.110851  0.000129  3.983673  0.0  0.110085  0.000117  4.009756  0.0  -0.014469  0.111709  7.9e-05  3.96541  0.0
C  C52  1  0.68766170  0.49322815  0.87465268  1  -0.13341  0.001003  3.699176  0.001  -0.180907  0.00048  3.952222  0.001  -0.180231  0.000329  3.963491  0.001  -0.162209  -0.181764  0.000983  3.943641  0.001
C  C53  1  0.31236581  0.50677857  0.12534423  1  -0.133372  -0.00099  3.699062  -0.001  -0.180676  -0.00048  3.951957  -0.001  -0.179992  -0.000328  3.963225  -0.001  -0.1622  -0.181544  -0.000982  3.943409  -0.001
C  C54  1  0.13185062  0.43394258  0.68410595  1  -0.064803  -0.000324  3.790889  0.0  -0.074788  -8.4e-05  4.035247  0.0  -0.075785  -7.2e-05  4.056832  0.0  -0.092334  -0.074121  -6.5e-05  4.021007  0.0
C  C55  1  0.86814364  0.56605734  0.31588663  1  -0.064902  0.000361  3.790629  0.0  -0.074907  8.3e-05  4.035004  0.0  -0.075903  7.1e-05  4.056582  0.0  -0.092384  -0.074243  6.5e-05  4.020768  0.0
C  C56  1  0.37641713  0.92207219  0.73062439  1  -0.127922  0.00205  3.716283  0.003  -0.174851  0.001236  3.968425  0.002  -0.173862  0.000833  3.980006  0.001  -0.160856  -0.175583  0.001341  3.960511  0.002
C  C57  1  0.62355724  0.07791272  0.26937780  1  -0.128049  -0.002046  3.716379  -0.003  -0.174938  -0.001236  3.968438  -0.002  -0.173957  -0.000832  3.980023  -0.001  -0.16085  -0.175692  -0.00134  3.960557  -0.002
C  C58  1  0.02423211  0.31987156  0.65021615  1  -0.09174  0.000702  3.787921  0.001  -0.106026  0.000105  4.03421  0.0  -0.108582  8.2e-05  4.055499  0.0  -0.099282  -0.104378  0.000134  4.020141  0.0
C  C59  1  0.97575738  0.68012376  0.34977670  1  -0.091659  -0.000713  3.787987  -0.001  -0.105959  -0.000104  4.034296  0.0  -0.108511  -8.1e-05  4.055582  0.0  -0.099261  -0.104298  -0.000134  4.020204  0.0
C  C60  1  0.42009588  0.71326028  0.50725768  1  -0.094994  -2.7e-05  3.798803  0.0  -0.110447  -7e-06  4.046512  0.0  -0.113371  -6e-06  4.069139  0.0  -0.102585  -0.108013  -1.5e-05  4.030655  0.0
C  C61  1  0.57990235  0.28673035  0.49274235  1  -0.095222  2.7e-05  3.799329  0.0  -0.110703  8e-06  4.047088  0.0  -0.113626  7e-06  4.069712  0.0  -0.102707  -0.108274  1.5e-05  4.031219  0.0
C  C62  1  0.61746217  0.66956282  0.55357777  1  -0.073955  -3e-06  3.809407  0.0  -0.084637  -2.7e-05  4.057625  0.0  -0.085877  -1.7e-05  4.078951  0.0  -0.096913  -0.08397  -3.6e-05  4.043075  0.0
C  C63  1  0.38255708  0.33044620  0.44642343  1  -0.073844  1.5e-05  3.809288  0.0  -0.08449  2.7e-05  4.057462  0.0  -0.085714  1.6e-05  4.078796  0.0  -0.096834  -0.083822  3.6e-05  4.042908  0.0
C  C64  1  0.60798028  0.73679838  0.62536028  1  -0.131064  -0.000166  3.750483  0.0  -0.148145  -0.000146  3.989095  0.0  -0.151943  -9.7e-05  4.012527  0.0  -0.099175  -0.145516  -0.000178  3.97345  0.0
C  C65  1  0.39201822  0.26319112  0.37463576  1  -0.131173  0.000212  3.750501  0.0  -0.148301  0.000144  3.989087  0.0  -0.152105  9.8e-05  4.012514  0.0  -0.099214  -0.145671  0.000178  3.973447  0.0
C  C66  1  0.02201713  0.48824674  0.75680877  1  -0.13176  0.000321  3.750794  0.0  -0.151211  8.9e-05  3.996346  0.0  -0.154392  7.6e-05  4.017588  0.0  -0.09471  -0.149526  6.4e-05  3.982325  0.0
C  C67  1  0.97798848  0.51175432  0.24318106  1  -0.131697  -0.00036  3.750264  0.0  -0.151003  -8.9e-05  3.9958  0.0  -0.154183  -7.5e-05  4.017039  0.0  -0.094578  -0.149335  -6.4e-05  3.981778  0.0
C  C68  1  0.40094153  0.84928715  0.65229257  1  0.089565  0.000917  3.731522  0.001  0.113372  0.000545  3.963915  0.001  0.113216  0.00034  3.989248  0.0  -0.012794  0.113277  0.000677  3.946927  0.001
C  C69  1  0.59905038  0.15070579  0.34770938  1  0.08966  -0.000935  3.731663  -0.001  0.113441  -0.000543  3.964055  -0.001  0.113287  -0.000341  3.989387  0.0  -0.012769  0.113349  -0.000677  3.947069  -0.001
C  C70  1  0.20452993  0.89283496  0.60472133  1  -0.132331  0.00024  3.760324  0.0  -0.151499  0.000167  4.005895  0.0  -0.154912  9.8e-05  4.028574  0.0  -0.098591  -0.149241  0.000199  3.990711  0.0
C  C71  1  0.79545864  0.10715571  0.39527678  1  -0.13254  -0.00025  3.759803  0.0  -0.151692  -0.000168  4.005421  0.0  -0.155103  -9.8e-05  4.02809  0.0  -0.098642  -0.149428  -0.000199  3.990232  0.0
C  C72  1  0.21324479  0.82594132  0.53319870  1  -0.066905  0.000109  3.801072  0.0  -0.07749  5.9e-05  4.044764  0.0  -0.078862  3.3e-05  4.067035  0.0  -0.096215  -0.076411  8e-05  4.029435  0.0
C  C73  1  0.78676398  0.17405381  0.46681288  1  -0.066688  -0.000117  3.800379  0.0  -0.077294  -5.9e-05  4.044089  0.0  -0.078659  -3.4e-05  4.066358  0.0  -0.096132  -0.076218  -8e-05  4.028764  0.0
O  O74  1  0.35613804  0.01106436  0.88187330  1  -0.555651  -0.082493  2.060268  -0.108  -0.532869  -0.05622  2.331746  -0.081  -0.580104  -0.044939  2.323838  -0.069  -0.307197  -0.505034  -0.058286  2.337304  -0.081
O  O75  1  0.64385269  0.98894234  0.11813991  1  -0.555652  0.082509  2.060054  0.108  -0.532916  0.056228  2.331556  0.081  -0.580149  0.044942  2.323657  0.069  -0.307123  -0.50507  0.058287  2.337107  0.081
O  O76  1  0.75478521  0.87931144  0.89776715  1  -0.578772  0.078994  2.049277  0.103  -0.560137  0.054484  2.325423  0.078  -0.607022  0.043723  2.315791  0.067  -0.320139  -0.531618  0.056842  2.33105  0.079
O  O77  1  0.24520427  0.12070113  0.10223455  1  -0.578869  -0.078992  2.04928  -0.103  -0.560252  -0.054483  2.325435  -0.078  -0.60713  -0.04372  2.315793  -0.067  -0.32016  -0.531735  -0.056841  2.331075  -0.079
O  O78  1  0.44611125  0.25791332  0.96379851  1  -0.582269  -0.076306  2.089985  -0.101  -0.55269  -0.054102  2.365924  -0.078  -0.5978  -0.044279  2.355019  -0.068  -0.306057  -0.525034  -0.054998  2.373239  -0.077
O  O79  1  0.55389124  0.74208421  0.03620239  1  -0.582322  0.076302  2.090022  0.101  -0.552685  0.054106  2.365926  0.078  -0.597792  0.044282  2.355022  0.068  -0.306047  -0.525028  0.054999  2.373226  0.077
O  O80  1  0.84631974  0.13447618  0.98045308  1  -0.610882  0.063232  2.165704  0.082  -0.582249  0.046632  2.456907  0.066  -0.635174  0.03842  2.442547  0.057  -0.315187  -0.549398  0.04879  2.464966  0.067
O  O81  1  0.15367863  0.86553979  0.01955280  1  -0.611007  -0.063236  2.165653  -0.082  -0.582378  -0.046634  2.456882  -0.066  -0.635303  -0.038422  2.442513  -0.057  -0.315257  -0.54952  -0.048797  2.464929  -0.067
