# generated using pymatgen
data_CuH18PdC16(N5O)2
_symmetry_space_group_name_H-M   'P 1'
_cell_length_a   10.17263273
_cell_length_b   10.24904347
_cell_length_c   11.40830918
_cell_angle_alpha   95.20660242
_cell_angle_beta   89.99968156
_cell_angle_gamma   119.75428896
_symmetry_Int_Tables_number   1
_chemical_formula_structural   CuH18PdC16(N5O)2
_chemical_formula_sum   'Cu2 H36 Pd2 C32 N20 O4'
_cell_volume   1026.95898302
_cell_formula_units_Z   2
loop_
 _symmetry_equiv_pos_site_id
 _symmetry_equiv_pos_as_xyz
  1  'x, y, z'
loop_
 _atom_site_type_symbol
 _atom_site_label
 _atom_site_symmetry_multiplicity
 _atom_site_fract_x
 _atom_site_fract_y
 _atom_site_fract_z
 _atom_site_occupancy
 _atom_site_pbe_cm5_charge
 _atom_site_pbe_ddec_charge
 _atom_site_pbe_ddec_spin_density
 _atom_site_pbe_ddec_sum_bond_order
 _atom_site_pbe_magmom
Cu  Cu0  1  0.13698655  0.00000151  0.74999966  1  0.791124  0.805806  -0.74841  2.485382  -0.597
Cu  Cu1  1  0.86301583  0.99999852  0.24999944  1  0.791159  0.805807  -0.748414  2.485439  -0.597
H  H2  1  0.12234448  0.14057649  0.58089443  1  0.290542  0.317727  -0.000203  0.951023  0.0
H  H3  1  0.98176428  0.85942389  0.91910288  1  0.290532  0.317759  -0.000202  0.951042  0.0
H  H4  1  0.87765736  0.85942245  0.41910281  1  0.290544  0.31776  -0.000202  0.950969  0.0
H  H5  1  0.01823500  0.14057386  0.08089687  1  0.290507  0.317724  -0.000202  0.951131  0.0
H  H6  1  0.27206317  0.26167586  0.66871289  1  0.282896  0.32374  -0.000278  0.989084  0.0
H  H7  1  0.01038432  0.73832484  0.83128567  1  0.282915  0.323759  -0.000278  0.98905  0.0
H  H8  1  0.72793824  0.73832419  0.33128533  1  0.282879  0.323717  -0.000278  0.989086  0.0
H  H9  1  0.98961708  0.26167519  0.16871343  1  0.282916  0.323777  -0.000278  0.989049  0.0
H  H10  1  0.28391586  0.13868636  0.57266176  1  0.286636  0.320373  -0.000374  0.972535  0.0
H  H11  1  0.14522544  0.86131283  0.92733627  1  0.286616  0.320358  -0.000374  0.972655  0.0
H  H12  1  0.71608652  0.86131367  0.42733733  1  0.286653  0.320394  -0.000373  0.97253  0.0
H  H13  1  0.85477441  0.13868607  0.07266271  1  0.286621  0.320356  -0.000374  0.972659  0.0
H  H14  1  0.27858654  0.53510418  0.26846277  1  0.300097  0.307832  1.1e-05  0.993364  0.0
H  H15  1  0.74348193  0.46489278  0.23153665  1  0.300096  0.307827  1.1e-05  0.993368  0.0
H  H16  1  0.72141695  0.46489805  0.73153916  1  0.30007  0.307792  1.1e-05  0.99338  0.0
H  H17  1  0.25652184  0.53510610  0.76846321  1  0.300065  0.307783  1.1e-05  0.993393  0.0
H  H18  1  0.43338362  0.63582773  0.37218527  1  0.297849  0.316501  -6e-06  0.987088  0.0
H  H19  1  0.79755816  0.36417147  0.12781208  1  0.297811  0.316453  -6e-06  0.987142  0.0
H  H20  1  0.56661780  0.36417234  0.62781208  1  0.297821  0.316507  -6e-06  0.987092  0.0
H  H21  1  0.20244574  0.63582963  0.87218974  1  0.29782  0.316491  -6e-06  0.987072  0.0
H  H22  1  0.38980598  0.11177789  0.96268755  1  0.10823  0.081355  7.6e-05  1.025517  0.0
H  H23  1  0.27802835  0.88822256  0.53730824  1  0.108226  0.081345  7.6e-05  1.025544  0.0
H  H24  1  0.61019085  0.88822675  0.03730759  1  0.108247  0.081384  7.6e-05  1.025369  0.0
H  H25  1  0.72196616  0.11177745  0.46269172  1  0.108239  0.081339  7.6e-05  1.025444  0.0
H  H26  1  0.51391993  0.28750243  0.14427353  1  0.100213  0.105456  -1.3e-05  1.046631  0.0
H  H27  1  0.22641872  0.71249768  0.35572340  1  0.100179  0.105385  -1.3e-05  1.046713  0.0
H  H28  1  0.48608053  0.71249770  0.85572118  1  0.100171  0.10542  -1.3e-05  1.046666  0.0
H  H29  1  0.77358124  0.28750340  0.64427930  1  0.100173  0.10543  -1.3e-05  1.046647  0.0
H  H30  1  0.24859583  0.49899186  0.07418304  1  0.111748  0.125511  -6e-06  1.016009  0.0
H  H31  1  0.74960040  0.50100048  0.42581512  1  0.111762  0.125517  -6e-06  1.015995  0.0
H  H32  1  0.75140539  0.50101372  0.92582096  1  0.111764  0.125514  -6e-06  1.016021  0.0
H  H33  1  0.25039860  0.49899279  0.57418245  1  0.111756  0.125497  -6e-06  1.015989  0.0
H  H34  1  0.13326207  0.31180489  0.89741824  1  0.1126  0.083571  -0.0001  0.993905  0.0
H  H35  1  0.82145710  0.68819246  0.60257916  1  0.112571  0.083472  -0.0001  0.994041  0.0
H  H36  1  0.86673520  0.68820065  0.10258751  1  0.112588  0.083605  -0.0001  0.993865  0.0
H  H37  1  0.17853954  0.31180198  0.39741677  1  0.112578  0.083532  -0.0001  0.99397  0.0
Pd  Pd38  1  0.63561611  0.00000060  0.75000181  1  0.645634  0.16125  -0.004847  4.143008  -0.006
Pd  Pd39  1  0.36438463  0.00000175  0.24999978  1  0.645616  0.16113  -0.004847  4.143144  -0.006
C  C40  1  0.55657461  0.85220099  0.60672975  1  -0.0368  0.002513  -0.00075  3.869899  -0.001
C  C41  1  0.70436861  0.14780122  0.89327172  1  -0.036951  0.002243  -0.00075  3.869969  -0.001
C  C42  1  0.44342328  0.14779791  0.39326924  1  -0.036815  0.002594  -0.00075  3.869828  -0.001
C  C43  1  0.29562474  0.85220434  0.10673316  1  -0.03676  0.002615  -0.00075  3.869792  -0.001
C  C44  1  0.44347590  0.99999266  0.75000453  1  -0.008589  0.067315  0.005354  3.831654  -0.005
C  C45  1  0.55652362  0.00000164  0.24999752  1  -0.008599  0.067236  0.005353  3.831629  -0.005
C  C46  1  0.82968861  0.00000615  0.75000009  1  -0.019835  0.052864  0.00515  3.826667  -0.005
C  C47  1  0.17031501  0.99999832  0.25000293  1  -0.019833  0.052919  0.00515  3.826817  -0.005
C  C48  1  0.36038170  0.19827154  0.99062961  1  0.037463  0.093054  3e-05  3.975948  0.0
C  C49  1  0.16211060  0.80172478  0.50936617  1  0.037505  0.093133  3e-05  3.975861  0.0
C  C50  1  0.63961425  0.80172744  0.00936588  1  0.037492  0.093168  3e-05  3.975522  0.0
C  C51  1  0.83788882  0.19827521  0.49063468  1  0.03755  0.093225  3e-05  3.975592  0.0
C  C52  1  0.43051494  0.29708097  0.09160103  1  -0.086112  -0.154799  -0.000551  3.985316  -0.001
C  C53  1  0.13343597  0.70291368  0.40839758  1  -0.086091  -0.154765  -0.000551  3.985296  -0.001
C  C54  1  0.56947974  0.70291349  0.90839402  1  -0.086093  -0.154801  -0.000551  3.985342  -0.001
C  C55  1  0.86656708  0.29708964  0.59160621  1  -0.086085  -0.154828  -0.000551  3.985351  -0.001
C  C56  1  0.38996505  0.40627713  0.12567482  1  0.001878  0.008923  -0.000133  3.945634  0.0
C  C57  1  0.98368935  0.59371481  0.37432499  1  0.001851  0.008772  -0.000133  3.945578  0.0
C  C58  1  0.61002929  0.59372058  0.87432669  1  0.001846  0.008833  -0.000133  3.945811  0.0
C  C59  1  0.01631190  0.40628294  0.62567477  1  0.001811  0.008776  -0.000133  3.945963  0.0
C  C60  1  0.28288520  0.41441531  0.05410933  1  -0.079466  -0.144906  -0.000743  3.910968  -0.001
C  C61  1  0.86846965  0.58557434  0.44589170  1  -0.079486  -0.144832  -0.000743  3.910734  -0.001
C  C62  1  0.71710982  0.58558573  0.94589512  1  -0.079445  -0.144849  -0.000743  3.910944  -0.001
C  C63  1  0.13152934  0.41441889  0.55410763  1  -0.079425  -0.144773  -0.000743  3.910788  -0.001
C  C64  1  0.21869722  0.31018530  0.95434706  1  0.040608  0.09083  -0.000279  3.985561  0.0
C  C65  1  0.90850980  0.68980723  0.54565208  1  0.040695  0.090959  -0.000279  3.985546  0.0
C  C66  1  0.78130134  0.68981692  0.04565575  1  0.040568  0.090764  -0.000279  3.985632  0.0
C  C67  1  0.09148780  0.31018715  0.45434648  1  0.040637  0.090833  -0.000279  3.985454  0.0
C  C68  1  0.46535504  0.51004432  0.23591029  1  0.247657  0.552708  2.9e-05  4.106193  0.0
C  C69  1  0.95531237  0.48995473  0.26408656  1  0.247732  0.552899  2.9e-05  4.106077  0.0
C  C70  1  0.53464605  0.48995903  0.76409263  1  0.247668  0.552691  2.9e-05  4.106156  0.0
C  C71  1  0.04468876  0.51004084  0.73590948  1  0.247674  0.552714  2.9e-05  4.106266  0.0
N  N72  1  0.50745275  0.76804245  0.52062828  1  -0.356041  -0.368558  -0.000638  3.054611  -0.001
N  N73  1  0.73940891  0.23195849  0.97937661  1  -0.355887  -0.368312  -0.000638  3.054557  -0.001
N  N74  1  0.49255218  0.23195873  0.47937005  1  -0.356017  -0.368601  -0.000638  3.054519  -0.001
N  N75  1  0.26059154  0.76804359  0.02063232  1  -0.356069  -0.36861  -0.000638  3.054435  -0.001
N  N76  1  0.32874895  0.99999560  0.74999897  1  -0.396006  -0.352339  -0.047192  3.477679  -0.062
N  N77  1  0.67125074  0.00000102  0.25000068  1  -0.395981  -0.352264  -0.047192  3.4777  -0.062
N  N78  1  0.94466678  0.99999872  0.74999945  1  -0.40466  -0.369666  -0.045905  3.467416  -0.06
N  N79  1  0.05533559  0.00000129  0.25000052  1  -0.404679  -0.36972  -0.045903  3.467546  -0.06
N  N80  1  0.21206515  0.15154836  0.62944446  1  -0.785975  -0.823006  -0.077588  3.218381  -0.098
N  N81  1  0.06051409  0.84845116  0.87055400  1  -0.785963  -0.823042  -0.077592  3.218479  -0.098
N  N82  1  0.78793667  0.84845054  0.37055452  1  -0.785992  -0.823036  -0.077591  3.218302  -0.098
N  N83  1  0.93948576  0.15154774  0.12944498  1  -0.785949  -0.823024  -0.077591  3.218565  -0.098
N  N84  1  0.25493039  0.20287411  0.92311346  1  -0.322834  -0.280257  0.000149  3.440797  -0.001
N  N85  1  0.05205317  0.79712000  0.57688178  1  -0.322906  -0.280337  0.00015  3.440703  -0.001
N  N86  1  0.74506580  0.79712927  0.07688770  1  -0.322818  -0.280317  0.000149  3.440727  -0.001
N  N87  1  0.94794093  0.20287329  0.42311492  1  -0.322934  -0.28035  0.00015  3.44063  -0.001
N  N88  1  0.38775128  0.56692524  0.29431456  1  -0.55476  -0.612176  5.2e-05  3.327969  0.0
N  N89  1  0.82082594  0.43307269  0.20568360  1  -0.554747  -0.612208  5.2e-05  3.327953  0.0
N  N90  1  0.61224967  0.43307586  0.70568726  1  -0.554715  -0.612147  5.2e-05  3.327911  0.0
N  N91  1  0.17917589  0.56692623  0.79431451  1  -0.554737  -0.612154  5.2e-05  3.327927  0.0
O  O92  1  0.59553948  0.53855574  0.26949292  1  -0.300251  -0.52895  -0.000758  2.174988  -0.001
O  O93  1  0.05698337  0.46144281  0.23050321  1  -0.300305  -0.529054  -0.000758  2.174986  -0.001
O  O94  1  0.40446249  0.46144544  0.73050541  1  -0.300261  -0.528946  -0.000758  2.17499  -0.001
O  O95  1  0.94302097  0.53855720  0.76949676  1  -0.300229  -0.528914  -0.000758  2.175013  -0.001
