# generated using pymatgen
data_MnH6C12(NO2)4
_symmetry_space_group_name_H-M   'P 1'
_cell_length_a   8.05477921
_cell_length_b   8.06115775
_cell_length_c   12.20659427
_cell_angle_alpha   90.04545937
_cell_angle_beta   109.61070863
_cell_angle_gamma   119.30967562
_symmetry_Int_Tables_number   1
_chemical_formula_structural   MnH6C12(NO2)4
_chemical_formula_sum   'Mn2 H12 C24 N8 O16'
_cell_volume   637.74906371
_cell_formula_units_Z   2
loop_
 _symmetry_equiv_pos_site_id
 _symmetry_equiv_pos_as_xyz
  1  'x, y, z'
loop_
 _atom_site_type_symbol
 _atom_site_label
 _atom_site_symmetry_multiplicity
 _atom_site_fract_x
 _atom_site_fract_y
 _atom_site_fract_z
 _atom_site_occupancy
 _atom_site_hle17_ddec_charge
 _atom_site_hle17_ddec_spin_density
 _atom_site_hle17_ddec_sum_bond_order
 _atom_site_hle17_magmom
 _atom_site_hse06_10hf_ddec_charge
 _atom_site_hse06_10hf_ddec_spin_density
 _atom_site_hse06_10hf_ddec_sum_bond_order
 _atom_site_hse06_10hf_magmom
 _atom_site_hse06_ddec_charge
 _atom_site_hse06_ddec_spin_density
 _atom_site_hse06_ddec_sum_bond_order
 _atom_site_hse06_magmom
 _atom_site_pbe_cm5_charge
 _atom_site_pbe_ddec_charge
 _atom_site_pbe_ddec_spin_density
 _atom_site_pbe_ddec_sum_bond_order
 _atom_site_pbe_magmom
Mn  Mn0  1  0.80615341  0.05197934  0.76008265  1  1.136107  4.482567  2.392356  4.303  1.053754  3.830869  2.9743  3.553  1.192632  4.026688  2.862771  3.722  0.768859  0.960145  3.644112  3.050647  3.387
Mn  Mn1  1  0.20956977  0.95416861  0.26060231  1  1.137736  -4.473671  2.393734  -4.297  1.054771  -3.830863  2.975487  -3.553  1.19384  -4.026574  2.863891  -3.722  0.769651  0.960749  -3.643058  3.052185  -3.386
H  H2  1  0.68000171  0.51500166  0.38868766  1  0.322825  0.000165  0.867861  0.0  0.298182  0.000222  0.933796  0.0  0.311111  0.000447  0.922098  0.0  0.323134  0.288957  4e-06  0.94219  0.0
H  H3  1  0.61411196  0.27414046  0.09797608  1  0.322796  0.000265  0.872398  0.002  0.290902  -0.001964  0.949626  0.001  0.297536  -0.002065  0.945225  0.002  0.318096  0.285811  -0.001669  0.953182  0.001
H  H4  1  0.32376351  0.48356825  0.59792495  1  0.322031  -0.000293  0.872023  -0.002  0.29038  0.001991  0.948941  -0.001  0.297047  0.002081  0.944507  -0.002  0.318432  0.285358  0.001693  0.95241  -0.001
H  H5  1  0.37408805  0.70864325  0.88867858  1  0.322829  -0.000136  0.867973  0.0  0.298141  -0.000236  0.934114  0.0  0.311061  -0.000454  0.922371  0.0  0.322488  0.288901  -2.8e-05  0.942534  0.0
H  H6  1  0.79449246  0.47275971  0.74950016  1  0.13695  -1.5e-05  0.936343  0.0  0.138601  0.000417  0.996591  0.001  0.144185  0.000226  0.991048  0.001  0.137895  0.13442  0.00057  1.000992  0.001
H  H7  1  0.17942517  0.03136992  0.74137312  1  0.137045  0.000281  0.949903  0.0  0.13353  9.2e-05  1.020021  0.0  0.135202  0.000206  1.01972  0.0  0.134722  0.132086  3.3e-05  1.02049  0.0
H  H8  1  0.20922858  0.56169141  0.24130437  1  0.136961  -0.000242  0.9506  0.0  0.134753  -8.7e-05  1.019193  0.0  0.136597  -0.000204  1.018659  0.0  0.134888  0.133302  -2.7e-05  1.019693  0.0
H  H9  1  0.77557135  0.95325580  0.24992557  1  0.137721  1e-06  0.936894  0.0  0.138679  -0.000416  0.997612  -0.001  0.144245  -0.000225  0.992087  -0.001  0.138281  0.134423  -0.000572  1.002115  -0.001
H  H10  1  0.73543552  0.65048909  0.58267817  1  0.137033  -5.3e-05  0.946071  0.0  0.138132  0.000392  1.010417  0.0  0.146116  0.000263  1.000799  0.0  0.139052  0.132011  0.000469  1.017917  0.001
H  H11  1  0.52750338  0.13112831  0.89601235  1  0.133767  0.001991  0.952898  0.004  0.130081  -0.000284  1.028743  0.002  0.132471  -0.000339  1.02992  0.002  0.132283  0.128234  -0.000162  1.02809  0.001
H  H12  1  0.26389541  0.36804969  0.39584769  1  0.134997  -0.002055  0.951808  -0.004  0.13104  0.000271  1.027726  -0.002  0.133544  0.000311  1.028732  -0.002  0.132761  0.129195  0.000151  1.02705  -0.001
H  H13  1  0.43140221  0.84608312  0.08268531  1  0.136649  7.7e-05  0.945637  0.0  0.137538  -0.000388  1.010495  0.0  0.14558  -0.000256  1.000765  0.0  0.139183  0.131486  -0.000472  1.017971  -0.001
C  C14  1  0.80588950  0.03809757  0.52395629  1  0.608608  0.004945  3.921401  0.005  0.565791  0.004163  4.194998  0.004  0.602017  0.002334  4.18525  0.003  0.221918  0.54091  0.005849  4.201076  0.006
C  C15  1  0.00786197  0.26518208  0.99353532  1  0.605934  0.003323  3.942101  0.005  0.5566  -0.003059  4.240684  0.004  0.59091  -0.003774  4.242346  0.004  0.212961  0.533542  -0.00045  4.237941  0.004
C  C16  1  0.22970076  0.98593140  0.49400191  1  0.602012  -0.003174  3.946988  -0.004  0.553069  0.003128  4.245049  -0.004  0.587164  0.003743  4.246893  -0.004  0.211709  0.530111  0.000555  4.242081  -0.004
C  C17  1  0.98679471  0.71843012  0.02439159  1  0.608386  -0.005101  3.923536  -0.005  0.56585  -0.004209  4.197477  -0.004  0.602268  -0.002311  4.187625  -0.003  0.221786  0.540913  -0.005929  4.20354  -0.006
C  C18  1  0.78035671  0.20984200  0.53529979  1  0.050194  0.000661  3.677137  0.001  0.041483  -0.005919  3.935992  -0.004  0.045387  -0.001874  3.94323  -0.002  0.130771  0.037432  -0.008652  3.933317  -0.006
C  C19  1  0.16254061  0.23681185  0.97036896  1  0.022152  0.005001  3.709473  0.011  -0.022407  -0.069911  4.018079  -0.041  -0.038183  -0.082185  4.061342  -0.048  0.094115  -0.012623  -0.05675  3.989511  -0.034
C  C20  1  0.23484759  0.80821718  0.47085892  1  0.021703  -0.005094  3.71198  -0.011  -0.022622  0.070385  4.019164  0.042  -0.03806  0.081939  4.061964  0.048  0.093607  -0.012839  0.057508  3.990496  0.034
C  C21  1  0.82605606  0.75493529  0.03579147  1  0.046448  -0.000746  3.68013  -0.001  0.037696  0.005412  3.939064  0.004  0.041225  0.001809  3.946824  0.002  0.12922  0.033739  0.008089  3.936191  0.005
C  C22  1  0.73972108  0.29956933  0.44031375  1  0.104307  0.000174  3.569417  0.0  0.091009  -0.00078  3.821423  0.001  0.10062  0.001289  3.824212  0.001  0.149601  0.083061  -0.003963  3.821809  -0.001
C  C23  1  0.34871588  0.28351478  0.05718117  1  0.095123  -0.017211  3.642972  -0.011  0.065742  -0.014814  3.933977  0.0  0.063789  -0.008669  3.96339  0.007  0.133405  0.06693  -0.017448  3.914719  -0.005
C  C24  1  0.27439984  0.70850813  0.55749398  1  0.094699  0.01862  3.644787  0.011  0.067007  0.015164  3.933284  0.0  0.065151  0.009013  3.96239  -0.007  0.133258  0.068252  0.017789  3.913964  0.005
C  C25  1  0.64173005  0.70103324  0.94055135  1  0.10518  -0.000399  3.568255  0.0  0.092154  0.00031  3.820166  -0.001  0.101788  -0.001426  3.823075  -0.001  0.148761  0.084347  0.003148  3.820303  0.001
C  C26  1  0.68566625  0.22064353  0.31221525  1  0.603134  -0.006014  4.015123  -0.006  0.549519  -0.006977  4.322865  -0.006  0.58439  -0.004394  4.313313  -0.004  0.207862  0.525401  -0.010111  4.328706  -0.008
C  C27  1  0.40384566  0.35397757  0.18615494  1  0.629445  -0.010987  3.956656  -0.01  0.592572  -0.005478  4.235967  -0.005  0.635716  -0.004341  4.220321  -0.005  0.230809  0.562622  -0.006595  4.245933  -0.006
C  C28  1  0.33244326  0.78175168  0.68646064  1  0.627901  0.011344  3.958502  0.011  0.589899  0.005579  4.238777  0.005  0.632738  0.004422  4.223364  0.005  0.22923  0.560016  0.006728  4.248731  0.006
C  C29  1  0.59284336  0.62706752  0.81243783  1  0.606994  0.005841  4.009285  0.005  0.553092  0.006836  4.31779  0.006  0.588124  0.004299  4.308127  0.004  0.209217  0.528932  0.009913  4.323616  0.008
C  C30  1  0.77812430  0.42379611  0.66127476  1  0.138991  0.001022  3.551899  0.001  0.108556  -0.003042  3.820225  -0.001  0.120329  -0.000568  3.815956  0.0  0.084062  0.099508  -0.004969  3.825019  -0.002
C  C31  1  0.22785320  0.10336357  0.83120423  1  0.131727  0.015397  3.554503  0.022  0.081562  -0.041642  3.867361  -0.015  0.086442  -0.04261  3.897565  -0.011  0.061794  0.078397  -0.034667  3.847151  -0.013
C  C32  1  0.22781569  0.60337067  0.33127936  1  0.128552  -0.014268  3.559308  -0.022  0.078228  0.042465  3.871072  0.016  0.083592  0.042987  3.900299  0.012  0.059602  0.074957  0.035589  3.850856  0.014
C  C33  1  0.73696608  0.88208812  0.16163113  1  0.13729  -0.000561  3.549342  -0.001  0.107773  0.002529  3.817676  0.001  0.118968  0.000422  3.814406  0.0  0.084078  0.099065  0.004236  3.822115  0.002
C  C34  1  0.74432223  0.52134267  0.57027444  1  0.135883  0.002261  3.476194  0.002  0.091141  -0.002576  3.737094  -0.001  0.108468  0.003931  3.727797  0.003  0.08768  0.07876  -0.009142  3.745313  -0.005
C  C35  1  0.41803391  0.15562674  0.91570545  1  0.11199  -0.080468  3.497775  -0.061  0.03167  -0.116347  3.821681  -0.075  0.01923  -0.148843  3.855853  -0.096  0.054754  0.039387  -0.091709  3.799201  -0.059
C  C36  1  0.25963457  0.49741108  0.41563856  1  0.108341  0.08233  3.502267  0.062  0.028739  0.117654  3.825471  0.076  0.016717  0.149367  3.858711  0.096  0.054171  0.036559  0.093091  3.802904  0.06
C  C37  1  0.54855330  0.82508979  0.07043167  1  0.13808  -0.002845  3.472408  -0.002  0.093294  0.001386  3.733596  0.0  0.110233  -0.004268  3.72493  -0.004  0.087992  0.080931  0.007568  3.741518  0.004
N  N38  1  0.79442057  0.26862972  0.64321533  1  -0.239629  0.032842  3.139684  0.021  -0.214005  0.037118  3.444548  0.029  -0.223774  0.044115  3.445131  0.035  -0.276084  -0.207791  0.030268  3.445912  0.023
N  N39  1  0.09708555  0.14440844  0.85582809  1  -0.286669  -0.082898  3.200048  -0.112  -0.26527  -0.177028  3.559181  -0.187  -0.307581  -0.234341  3.587264  -0.246  -0.343079  -0.236485  -0.135507  3.539736  -0.147
N  N40  1  0.21244931  0.75919400  0.35619055  1  -0.286351  0.087821  3.202357  0.117  -0.264597  0.179161  3.561837  0.189  -0.306445  0.235061  3.589206  0.247  -0.343271  -0.235699  0.137799  3.542485  0.149
N  N41  1  0.87452616  0.84816964  0.14371064  1  -0.236926  -0.033596  3.135812  -0.022  -0.210965  -0.039081  3.439514  -0.031  -0.221222  -0.044635  3.441173  -0.036  -0.274563  -0.204677  -0.03285  3.44056  -0.025
N  N42  1  0.72465617  0.45571012  0.46209681  1  -0.182283  -0.000798  3.401382  -0.001  -0.123405  -0.01205  3.628807  -0.013  -0.128588  -0.002868  3.631121  -0.004  -0.312035  -0.120979  -0.019189  3.629123  -0.02
N  N43  1  0.47878168  0.24706742  0.02878695  1  -0.204389  -0.055931  3.358741  -0.059  -0.171453  -0.131854  3.629927  -0.129  -0.193967  -0.166194  3.657086  -0.164  -0.337885  -0.15627  -0.103942  3.611554  -0.101
N  N44  1  0.28194519  0.54992741  0.52889221  1  -0.204859  0.059985  3.360255  0.063  -0.170987  0.133718  3.629836  0.13  -0.193041  0.167112  3.656444  0.165  -0.338685  -0.15584  0.105819  3.611426  0.103
N  N45  1  0.50687894  0.73746783  0.96221934  1  -0.183877  0.000355  3.401563  0.001  -0.124365  0.010338  3.628703  0.012  -0.13003  0.002341  3.631463  0.004  -0.310115  -0.12168  0.016925  3.628753  0.018
O  O46  1  0.80350884  0.95191313  0.61490647  1  -0.622563  0.02471  2.110405  0.007  -0.528477  0.018662  2.367712  0.001  -0.571167  0.012247  2.355254  -0.006  -0.306149  -0.497887  0.024457  2.375387  0.007
O  O47  1  0.83056842  0.17976965  0.90117678  1  -0.614021  0.022511  2.090695  0.004  -0.51774  0.005905  2.353696  -0.015  -0.560498  -0.004187  2.343198  -0.026  -0.308358  -0.486892  0.01359  2.359543  -0.008
O  O48  1  0.22395561  0.07148913  0.40187345  1  -0.61213  -0.022048  2.091327  -0.004  -0.516299  -0.006176  2.353899  0.015  -0.559108  0.003834  2.343685  0.026  -0.307564  -0.485408  -0.01385  2.359601  0.007
O  O49  1  0.16355172  0.81075004  0.11554173  1  -0.622975  -0.024032  2.113735  -0.006  -0.529917  -0.0187  2.371705  -0.001  -0.572771  -0.012269  2.359379  0.006  -0.30665  -0.499222  -0.024468  2.379297  -0.007
O  O50  1  0.82587394  0.98646743  0.43672145  1  -0.516976  0.007682  1.954772  0.008  -0.465844  0.006663  2.161038  0.007  -0.484025  0.007076  2.15128  0.007  -0.273985  -0.452815  0.006896  2.167169  0.007
O  O51  1  0.03748965  0.35151761  0.08760250  1  -0.515455  0.001393  1.968785  0.001  -0.474134  -0.020602  2.188108  -0.022  -0.498285  -0.026336  2.183415  -0.029  -0.275667  -0.456552  -0.013814  2.189991  -0.015
O  O52  1  0.23584511  0.04961762  0.58774148  1  -0.514841  -0.001322  1.970199  -0.001  -0.473618  0.02063  2.18938  0.022  -0.497464  0.026123  2.184824  0.029  -0.276126  -0.456108  0.01389  2.191236  0.015
O  O53  1  0.95165664  0.61218794  0.93686425  1  -0.515835  -0.007224  1.954246  -0.008  -0.46525  -0.007082  2.16087  -0.007  -0.483551  -0.007286  2.151029  -0.007  -0.273514  -0.452127  -0.007399  2.166895  -0.007
O  O54  1  0.52920150  0.05001011  0.27265847  1  -0.606603  -0.024927  2.07673  -0.015  -0.564836  -0.037149  2.349257  -0.028  -0.60505  -0.034312  2.343583  -0.027  -0.295427  -0.535828  -0.038985  2.352121  -0.029
O  O55  1  0.29883610  0.22368649  0.23466722  1  -0.614868  -0.01948  2.175598  -0.001  -0.554299  -0.024693  2.450751  -0.009  -0.601175  -0.021358  2.439849  -0.006  -0.305616  -0.521382  -0.027099  2.457727  -0.012
O  O56  1  0.51068116  0.93569225  0.73529660  1  -0.615016  0.019227  2.177279  0.001  -0.553296  0.024535  2.451696  0.009  -0.599818  0.021217  2.440829  0.005  -0.304784  -0.520629  0.026944  2.458832  0.012
O  O57  1  0.72369624  0.74453859  0.77284443  1  -0.609475  0.024878  2.072157  0.015  -0.567992  0.037157  2.345431  0.028  -0.608364  0.034081  2.339614  0.026  -0.296982  -0.539058  0.039402  2.348449  0.03
O  O58  1  0.78632768  0.32955047  0.25626258  1  -0.582261  -0.007608  1.94936  -0.009  -0.531001  -0.009909  2.172973  -0.013  -0.549908  -0.007812  2.165232  -0.011  -0.301908  -0.517311  -0.012295  2.177652  -0.015
O  O59  1  0.54547499  0.52349741  0.23811005  1  -0.57429  -0.005796  1.952013  -0.007  -0.524103  -0.002147  2.164254  -0.004  -0.55275  -0.001225  2.155429  -0.003  -0.286578  -0.503282  -0.002928  2.16934  -0.004
O  O60  1  0.21461133  0.69088980  0.73821622  1  -0.573399  0.005042  1.9523  0.006  -0.522457  0.00229  2.164654  0.004  -0.550814  0.001404  2.1558  0.003  -0.285705  -0.501715  0.003075  2.169845  0.005
O  O61  1  0.42862220  0.46993453  0.75684537  1  -0.582829  0.007693  1.947616  0.01  -0.531589  0.010025  2.171901  0.013  -0.550796  0.007814  2.164119  0.011  -0.301359  -0.517747  0.012539  2.176632  0.015
