# generated using pymatgen
data_MnH5C5O6
_symmetry_space_group_name_H-M   'P 1'
_cell_length_a   6.49244493
_cell_length_b   11.77303219
_cell_length_c   18.38059417
_cell_angle_alpha   105.78473709
_cell_angle_beta   89.99979871
_cell_angle_gamma   89.99456443
_symmetry_Int_Tables_number   1
_chemical_formula_structural   MnH5C5O6
_chemical_formula_sum   'Mn8 H40 C40 O48'
_cell_volume   1351.95533633
_cell_formula_units_Z   8
loop_
 _symmetry_equiv_pos_site_id
 _symmetry_equiv_pos_as_xyz
  1  'x, y, z'
loop_
 _atom_site_type_symbol
 _atom_site_label
 _atom_site_symmetry_multiplicity
 _atom_site_fract_x
 _atom_site_fract_y
 _atom_site_fract_z
 _atom_site_occupancy
 _atom_site_pbe_bader_charge
 _atom_site_pbe_bader_spin_density
 _atom_site_pbe_cm5_charge
 _atom_site_pbe_ddec_charge
 _atom_site_pbe_ddec_spin_density
 _atom_site_pbe_ddec_sum_bond_order
 _atom_site_pbe_magmom
Mn  Mn0  1  0.25130105  0.01406400  0.38483593  1  1.546501  4.594883  0.600004  1.106884  4.69991  2.100232  4.515
Mn  Mn1  1  0.75143315  0.98569687  0.11537693  1  1.545755  4.600011  0.599388  1.106137  4.702232  2.097045  4.519
Mn  Mn2  1  0.74869176  0.98593756  0.61516592  1  1.546528  4.594896  0.600027  1.10691  4.6999  2.100171  4.515
Mn  Mn3  1  0.24857352  0.01430558  0.88462507  1  1.545796  4.600001  0.59939  1.106074  4.702272  2.097182  4.519
Mn  Mn4  1  0.92832191  0.68458865  0.29953380  1  1.568071  -4.501635  0.617357  1.113896  -4.616025  2.316789  -4.451
Mn  Mn5  1  0.42815421  0.31525837  0.20051254  1  1.567748  4.507618  0.616738  1.113344  4.630654  2.312296  4.456
Mn  Mn6  1  0.07166936  0.31541203  0.70046626  1  1.56797  -4.501638  0.617338  1.113875  -4.615995  2.316799  -4.451
Mn  Mn7  1  0.57184784  0.68474142  0.79948683  1  1.567701  4.507613  0.616749  1.113397  4.630632  2.312259  4.456
H  H8  1  0.19917434  0.47124581  0.54592198  1  0.12076  7.8e-05  0.112738  0.120974  0.000358  0.999357  0.0
H  H9  1  0.69931769  0.52879828  0.95408826  1  0.1207  0.000126  0.112723  0.120832  -0.000302  0.999187  0.0
H  H10  1  0.80082617  0.52875398  0.45407793  1  0.120789  7.9e-05  0.112755  0.120998  0.000358  0.999324  0.0
H  H11  1  0.30067665  0.47120415  0.04591102  1  0.120499  0.000126  0.112763  0.120878  -0.000302  0.999211  0.0
H  H12  1  0.18266910  0.56704350  0.44059666  1  0.07518  0.000851  0.104804  0.101648  0.000708  1.037873  0.0
H  H13  1  0.68276242  0.43287102  0.05937076  1  0.075934  -0.00071  0.104904  0.101788  -0.000667  1.037368  0.0
H  H14  1  0.81732834  0.43295363  0.55940062  1  0.075225  0.000851  0.10482  0.10167  0.000708  1.037901  0.0
H  H15  1  0.31723193  0.56713231  0.94062976  1  0.075612  -0.00071  0.104875  0.101715  -0.000666  1.037433  0.0
H  H16  1  0.06474162  0.12261746  0.28948866  1  0.645843  0.001726  0.294444  0.379383  0.000694  0.963826  0.002
H  H17  1  0.56483427  0.87670877  0.21054769  1  0.637399  0.00161  0.294604  0.379753  0.000762  0.963254  0.002
H  H18  1  0.93525736  0.87738145  0.71051109  1  0.645851  0.001726  0.294441  0.379375  0.000694  0.963837  0.002
H  H19  1  0.43516778  0.12329015  0.78945316  1  0.637394  0.00161  0.294593  0.379741  0.000762  0.963272  0.002
H  H20  1  0.30360876  0.15515820  0.29403303  1  0.641989  0.001264  0.297176  0.386737  0.000519  0.957519  0.002
H  H21  1  0.80364080  0.84424931  0.20593600  1  0.640062  0.001024  0.296983  0.386486  0.001502  0.958045  0.002
H  H22  1  0.69639021  0.84483983  0.70596658  1  0.641994  0.001263  0.297189  0.386761  0.000519  0.957481  0.002
H  H23  1  0.19636125  0.15575048  0.79406336  1  0.640065  0.001024  0.296985  0.386509  0.001502  0.958012  0.002
H  H24  1  0.21235666  0.17446881  0.52771120  1  0.643131  0.00188  0.306666  0.400789  0.001807  0.923296  0.002
H  H25  1  0.71239513  0.82547423  0.97235232  1  0.644205  0.002087  0.306413  0.40019  0.000569  0.924052  0.002
H  H26  1  0.78764231  0.82553187  0.47228832  1  0.643142  0.00188  0.306668  0.40083  0.001807  0.923252  0.002
H  H27  1  0.28760384  0.17452645  0.02764829  1  0.6442  0.002087  0.306403  0.400163  0.000569  0.924093  0.002
H  H28  1  0.44773060  0.13489918  0.51828098  1  0.651644  0.001772  0.297986  0.385011  0.000591  0.955264  0.002
H  H29  1  0.94773908  0.86513651  0.98184666  1  0.65253  0.001938  0.297893  0.38517  0.000568  0.955105  0.002
H  H30  1  0.55226837  0.86510150  0.48171799  1  0.651677  0.001771  0.297976  0.384994  0.000591  0.955288  0.002
H  H31  1  0.05226143  0.13486416  0.01815340  1  0.652535  0.001938  0.297887  0.385168  0.000568  0.955103  0.002
H  H32  1  0.76403318  0.50347092  0.19358834  1  0.638961  -0.000924  0.301266  0.38282  -0.001287  0.953833  -0.001
H  H33  1  0.26420911  0.49652452  0.30638478  1  0.640125  0.000943  0.301279  0.382844  0.001299  0.953828  0.001
H  H34  1  0.23596733  0.49652887  0.80641102  1  0.638964  -0.000923  0.301287  0.382849  -0.001287  0.953786  -0.001
H  H35  1  0.73579294  0.50347616  0.69361528  1  0.640134  0.000942  0.301306  0.382885  0.001299  0.953802  0.001
H  H36  1  0.71180330  0.61287940  0.16096997  1  0.618606  -0.002085  0.324061  0.405848  -0.001276  0.881476  -0.002
H  H37  1  0.21171109  0.38726316  0.33908246  1  0.619091  0.002708  0.324142  0.405905  0.001555  0.881088  0.002
H  H38  1  0.28819567  0.38711950  0.83902815  1  0.618611  -0.002085  0.324065  0.405839  -0.001276  0.881509  -0.002
H  H39  1  0.78829096  0.61273752  0.66091761  1  0.619103  0.002708  0.32412  0.405858  0.001556  0.88116  0.002
H  H40  1  0.61873693  0.84994556  0.34391061  1  0.678265  -0.001336  0.30234  0.394583  -0.001611  0.946259  -0.002
H  H41  1  0.11839007  0.15001472  0.15619916  1  0.678512  0.001588  0.302112  0.394215  0.000655  0.946876  0.002
H  H42  1  0.38125742  0.15005336  0.65609133  1  0.678257  -0.001336  0.302339  0.394585  -0.001611  0.946257  -0.002
H  H43  1  0.88161352  0.84998419  0.84380223  1  0.678518  0.001588  0.302079  0.394182  0.000655  0.946927  0.002
H  H44  1  0.49732804  0.72686531  0.31246754  1  0.63311  -0.003179  0.310421  0.399293  -0.00156  0.916669  -0.003
H  H45  1  0.99703602  0.27319498  0.18763565  1  0.631954  0.003226  0.310272  0.399104  0.001262  0.916951  0.003
H  H46  1  0.50266939  0.27313183  0.68753192  1  0.633107  -0.003179  0.310403  0.399307  -0.00156  0.916654  -0.003
H  H47  1  0.00296603  0.72680392  0.81236357  1  0.631929  0.003226  0.310249  0.399122  0.001261  0.916932  0.003
C  C48  1  0.21331391  0.74268463  0.51424079  1  -0.078194  0.000179  -0.000334  -0.037009  -6.9e-05  3.939768  0.0
C  C49  1  0.71337244  0.25726818  0.98565413  1  -0.076259  0.00339  -0.000319  -0.036897  0.001938  3.939232  0.001
C  C50  1  0.78668660  0.25731427  0.48575788  1  -0.078206  0.000178  -0.00036  -0.037024  -7e-05  3.939926  0.0
C  C51  1  0.28662807  0.74272897  0.01434587  1  -0.076266  0.00339  -0.000351  -0.037013  0.001939  3.939312  0.001
C  C52  1  0.24776457  0.81166139  0.58846570  1  0.12088  0.002321  0.000316  -0.06548  0.000925  3.908184  0.001
C  C53  1  0.74782032  0.18833794  0.91142468  1  0.12074  0.007219  0.000494  -0.065638  0.004795  3.907443  0.004
C  C54  1  0.75223286  0.18834017  0.41153397  1  0.120897  0.002321  0.000382  -0.06546  0.000925  3.908257  0.001
C  C55  1  0.25218173  0.81166451  0.08857623  1  0.120754  0.00722  0.000441  -0.065589  0.004796  3.90725  0.004
C  C56  1  0.26820033  0.75728320  0.64734163  1  0.009702  0.002063  0.000177  -0.061352  0.000797  3.910341  0.001
C  C57  1  0.76827054  0.24277769  0.85257568  1  0.009178  0.001914  0.000325  -0.060908  0.001225  3.908844  0.001
C  C58  1  0.73179248  0.24271659  0.35265720  1  0.009643  0.002063  0.000138  -0.061284  0.000797  3.910419  0.001
C  C59  1  0.23172843  0.75722210  0.14742478  1  0.009156  0.001914  0.000392  -0.060866  0.001226  3.908737  0.001
C  C60  1  0.24002741  0.63428855  0.63219518  1  -0.092166  0.00147  -0.015247  -0.070873  0.000767  3.965078  0.001
C  C61  1  0.74017652  0.36578306  0.86778494  1  -0.093237  0.007906  -0.015456  -0.071201  0.006371  3.964979  0.005
C  C62  1  0.75997618  0.36570948  0.36780497  1  -0.092178  0.001469  -0.015253  -0.070875  0.000766  3.965114  0.001
C  C63  1  0.25981937  0.63421938  0.13221488  1  -0.092564  0.007906  -0.015484  -0.071182  0.006371  3.964965  0.005
C  C64  1  0.21588557  0.56641602  0.55704709  1  0.060689  -0.000146  -0.07739  -0.078632  4.7e-05  3.96307  0.0
C  C65  1  0.71603301  0.43361729  0.94293352  1  0.060283  0.000539  -0.077145  -0.07799  0.00034  3.961922  0.0
C  C66  1  0.78411802  0.43358113  0.44295182  1  0.060684  -0.000146  -0.077433  -0.078712  4.7e-05  3.963114  0.0
C  C67  1  0.28396442  0.56638426  0.05706451  1  0.060272  0.000539  -0.077171  -0.078093  0.000341  3.962006  0.0
C  C68  1  0.20497019  0.61971563  0.49864773  1  -0.05747  0.001152  -0.080388  -0.087092  0.001002  3.969937  0.001
C  C69  1  0.70509782  0.38023724  0.00130561  1  -0.056935  0.00613  -0.08042  -0.087196  0.004538  3.968491  0.004
C  C70  1  0.79502724  0.38028328  0.50135203  1  -0.057469  0.001151  -0.080402  -0.087092  0.001002  3.970069  0.001
C  C71  1  0.29489961  0.61976608  0.99869382  1  -0.056485  0.006127  -0.080399  -0.087034  0.004536  3.96855  0.004
C  C72  1  0.17795929  0.79715991  0.45057871  1  1.584234  -0.007581  0.241052  0.610213  -0.007394  4.140466  -0.007
C  C73  1  0.67797197  0.20261752  0.04924320  1  1.584413  0.027381  0.240964  0.609829  0.025526  4.142304  0.023
C  C74  1  0.82203814  0.20283900  0.54942051  1  1.584239  -0.007584  0.24106  0.610175  -0.007397  4.140373  -0.007
C  C75  1  0.32203008  0.79738492  0.95075663  1  1.584307  0.027383  0.240897  0.609689  0.025528  4.142377  0.023
C  C76  1  0.23901068  0.94409855  0.60452255  1  1.581589  0.019012  0.232918  0.611474  0.017681  4.162742  0.017
C  C77  1  0.73900918  0.05588336  0.89530717  1  1.57877  0.019295  0.232724  0.610983  0.017811  4.16146  0.017
C  C78  1  0.76098675  0.05590035  0.39547666  1  1.581651  0.019014  0.232912  0.61144  0.017684  4.162726  0.017
C  C79  1  0.26099133  0.94411643  0.10469220  1  1.578599  0.019297  0.232706  0.610915  0.01781  4.161405  0.017
C  C80  1  0.31051804  0.83244264  0.72629959  1  1.572308  0.025167  0.232905  0.591688  0.024953  4.186181  0.021
C  C81  1  0.81044333  0.16779461  0.77355724  1  1.571372  -0.018895  0.233017  0.592482  -0.017374  4.185571  -0.016
C  C82  1  0.68948401  0.16755538  0.27369947  1  1.572163  0.025164  0.232931  0.591692  0.024951  4.186336  0.021
C  C83  1  0.18955872  0.83220431  0.22644416  1  1.571371  -0.018888  0.232975  0.592499  -0.017368  4.185575  -0.016
C  C84  1  0.20839558  0.57250544  0.69257534  1  1.551284  0.000921  0.226428  0.59301  0.000729  4.154033  0.0
C  C85  1  0.70853788  0.42764132  0.80743464  1  1.553302  0.000764  0.226808  0.59368  0.000586  4.153754  0.001
C  C86  1  0.79160801  0.42749524  0.30742526  1  1.551276  0.000918  0.226411  0.592991  0.000727  4.153933  0.0
C  C87  1  0.29146264  0.57236024  0.19256612  1  1.552997  0.000764  0.226778  0.593629  0.000586  4.153883  0.001
O  O88  1  0.30776233  0.87150790  0.43887363  1  -1.189352  0.031656  -0.2839  -0.558028  0.022479  2.342155  0.004
O  O89  1  0.80763360  0.12807694  0.06076419  1  -1.18916  0.057621  -0.283713  -0.557695  0.040815  2.340129  0.025
O  O90  1  0.69223048  0.12849455  0.56112892  1  -1.189388  0.031656  -0.283937  -0.55809  0.022481  2.342105  0.004
O  O91  1  0.19236537  0.87192639  0.93923632  1  -1.189204  0.057622  -0.283675  -0.557638  0.040816  2.340204  0.025
O  O92  1  0.01684595  0.76274815  0.41134686  1  -1.20839  -0.047088  -0.299209  -0.570609  -0.034645  2.384906  -0.013
O  O93  1  0.51697399  0.23702457  0.08851522  1  -1.208247  0.060227  -0.298789  -0.570038  0.043366  2.383525  0.023
O  O94  1  0.98315456  0.23725164  0.58865196  1  -1.208356  -0.047091  -0.299189  -0.570564  -0.034644  2.384869  -0.013
O  O95  1  0.48302806  0.76297522  0.91148414  1  -1.208265  0.060226  -0.298784  -0.569969  0.043366  2.383485  0.023
O  O96  1  0.40121945  0.00354755  0.62894320  1  -1.192822  0.055079  -0.289153  -0.54911  0.040237  2.310859  0.028
O  O97  1  0.90135457  0.99647198  0.87092328  1  -1.190998  0.05704  -0.28929  -0.549383  0.041163  2.310437  0.029
O  O98  1  0.59878106  0.99645490  0.37105880  1  -1.192809  0.055074  -0.289102  -0.549034  0.040234  2.310945  0.028
O  O99  1  0.09864748  0.00352870  0.12907787  1  -1.191036  0.057046  -0.28929  -0.549352  0.041164  2.310404  0.029
O  O100  1  0.07007053  0.98921524  0.59264106  1  -1.185297  0.064667  -0.295108  -0.548521  0.046813  2.323416  0.029
O  O101  1  0.57003349  0.01073418  0.90702929  1  -1.184036  0.065367  -0.294488  -0.547304  0.04635  2.32268  0.029
O  O102  1  0.92993461  0.01077837  0.40735670  1  -1.18536  0.064679  -0.295149  -0.548597  0.046823  2.323466  0.029
O  O103  1  0.42996702  0.98926827  0.09297217  1  -1.183865  0.065356  -0.294484  -0.547309  0.046349  2.322489  0.029
O  O104  1  0.16989793  0.89910212  0.76188216  1  -1.179961  0.054773  -0.271303  -0.531987  0.039912  2.322472  0.029
O  O105  1  0.66956237  0.10154399  0.73786148  1  -1.180619  0.022562  -0.271207  -0.532544  0.016949  2.323201  0.004
O  O106  1  0.83010875  0.10089680  0.23811923  1  -1.179852  0.054766  -0.271316  -0.532025  0.03991  2.322464  0.029
O  O107  1  0.33043815  0.89845405  0.26213976  1  -1.180614  0.02256  -0.271203  -0.532579  0.016951  2.323156  0.004
O  O108  1  0.49003166  0.82651425  0.75401199  1  -1.214484  0.056476  -0.303017  -0.582288  0.04101  2.397172  0.019
O  O109  1  0.99004251  0.17362820  0.74587941  1  -1.211446  -0.04459  -0.303389  -0.582733  -0.031936  2.396088  -0.013
O  O110  1  0.50997348  0.17348288  0.24598583  1  -1.214449  0.056477  -0.303006  -0.582287  0.04101  2.397318  0.019
O  O111  1  0.00995800  0.82637424  0.25412205  1  -1.211475  -0.044592  -0.303369  -0.582758  -0.031937  2.396061  -0.013
O  O112  1  0.25497744  0.62175546  0.76236590  1  -1.214962  0.038156  -0.306471  -0.594002  0.029258  2.284355  0.011
O  O113  1  0.75519670  0.37845647  0.73762862  1  -1.215192  -0.037048  -0.306211  -0.593962  -0.028863  2.284869  -0.01
O  O114  1  0.74502462  0.37824521  0.23763416  1  -1.2149  0.038149  -0.306472  -0.593935  0.029258  2.284306  0.011
O  O115  1  0.24480227  0.62154508  0.26237105  1  -1.215262  -0.03706  -0.306172  -0.593906  -0.028861  2.285037  -0.01
O  O116  1  0.12282175  0.47205957  0.67090870  1  -1.20878  -0.044074  -0.307047  -0.568051  -0.032375  2.381066  -0.012
O  O117  1  0.62288038  0.52805950  0.82910967  1  -1.210297  0.045588  -0.30699  -0.56827  0.033527  2.381604  0.013
O  O118  1  0.87718801  0.52793934  0.32909160  1  -1.208799  -0.044076  -0.307048  -0.568085  -0.032378  2.381011  -0.012
O  O119  1  0.37711859  0.47194118  0.17088930  1  -1.210277  0.04559  -0.306966  -0.568229  0.033529  2.381594  0.013
O  O120  1  0.18315105  0.14417655  0.32506300  1  -1.284701  0.059851  -0.57526  -0.776409  0.042862  2.128247  0.027
O  O121  1  0.68306913  0.85506674  0.17490286  1  -1.275388  0.059919  -0.575519  -0.777227  0.043499  2.127516  0.027
O  O122  1  0.81684946  0.85582325  0.67493691  1  -1.284694  0.05985  -0.575273  -0.776424  0.04286  2.128209  0.027
O  O123  1  0.31693138  0.14493393  0.82509666  1  -1.275401  0.059919  -0.5755  -0.777228  0.043497  2.12751  0.027
O  O124  1  0.32074089  0.14337986  0.49007474  1  -1.281758  0.061644  -0.571159  -0.773015  0.04502  2.123032  0.029
O  O125  1  0.82077769  0.85644876  0.01000446  1  -1.284045  0.062492  -0.571327  -0.772932  0.045297  2.12291  0.03
O  O126  1  0.67925962  0.85662081  0.50992478  1  -1.28179  0.061638  -0.571148  -0.773051  0.045018  2.122989  0.029
O  O127  1  0.17922282  0.14355280  0.98999630  1  -1.284036  0.062494  -0.571299  -0.772875  0.045295  2.12298  0.03
O  O128  1  0.81813744  0.57797667  0.18549693  1  -1.247045  -0.049175  -0.555556  -0.755957  -0.038194  2.124466  -0.023
O  O129  1  0.31820434  0.42203720  0.31455711  1  -1.248899  0.050288  -0.55564  -0.756001  0.038723  2.12377  0.024
O  O130  1  0.18185999  0.42202401  0.81450477  1  -1.247075  -0.049173  -0.555591  -0.755959  -0.038191  2.124495  -0.023
O  O131  1  0.68179925  0.57796347  0.68544295  1  -1.248929  0.05029  -0.555661  -0.756025  0.038724  2.123829  0.024
O  O132  1  0.63304122  0.76133962  0.32739151  1  -1.307756  -0.062822  -0.572233  -0.77537  -0.047975  2.16425  -0.029
O  O133  1  0.13273908  0.23861823  0.17275101  1  -1.306951  0.065748  -0.572112  -0.775241  0.048567  2.163825  0.03
O  O134  1  0.36695313  0.23866019  0.67261058  1  -1.307718  -0.062813  -0.572212  -0.775366  -0.047972  2.164171  -0.029
O  O135  1  0.86726605  0.76138157  0.82725108  1  -1.30688  0.065735  -0.57208  -0.775257  0.048569  2.163882  0.03
