# generated using pymatgen
data_ZnH14C8(NO3)2
_symmetry_space_group_name_H-M   'P 1'
_cell_length_a   7.82637657
_cell_length_b   9.84018740
_cell_length_c   15.42100000
_cell_angle_alpha   90.00000000
_cell_angle_beta   90.00000000
_cell_angle_gamma   90.00000000
_symmetry_Int_Tables_number   1
_chemical_formula_structural   ZnH14C8(NO3)2
_chemical_formula_sum   'Zn4 H56 C32 N8 O24'
_cell_volume   1187.61765899
_cell_formula_units_Z   4
loop_
 _symmetry_equiv_pos_site_id
 _symmetry_equiv_pos_as_xyz
  1  'x, y, z'
loop_
 _atom_site_type_symbol
 _atom_site_label
 _atom_site_symmetry_multiplicity
 _atom_site_fract_x
 _atom_site_fract_y
 _atom_site_fract_z
 _atom_site_occupancy
 _atom_site_hle17_bader_spin_density
 _atom_site_hle17_ddec_charge
 _atom_site_hle17_ddec_spin_density
 _atom_site_hle17_ddec_sum_bond_order
 _atom_site_hle17_magmom
 _atom_site_hse06_10hf_bader_spin_density
 _atom_site_hse06_10hf_ddec_charge
 _atom_site_hse06_10hf_ddec_spin_density
 _atom_site_hse06_10hf_ddec_sum_bond_order
 _atom_site_hse06_10hf_magmom
 _atom_site_hse06_bader_spin_density
 _atom_site_hse06_ddec_charge
 _atom_site_hse06_ddec_spin_density
 _atom_site_hse06_ddec_sum_bond_order
 _atom_site_hse06_magmom
 _atom_site_pbe_bader_charge
 _atom_site_pbe_bader_spin_density
 _atom_site_pbe_cm5_charge
 _atom_site_pbe_ddec_charge
 _atom_site_pbe_ddec_spin_density
 _atom_site_pbe_ddec_sum_bond_order
 _atom_site_pbe_magmom
Zn  Zn0  1  0.15873501  0.74999994  0.00000000  1  0  1.083604  0  1.787016  0  0  0.927849  0  2.235099  0  0  0.975724  0  2.180471  0  1.355983  0  0.656022  0.892556  0  2.273806  0
Zn  Zn1  1  0.34126520  0.24999930  0.50000000  1  0  1.083578  0  1.787032  0  0  0.927812  0  2.235103  0  0  0.975684  0  2.180477  0  1.355978  0  0.656019  0.892518  0  2.273808  0
Zn  Zn2  1  0.84126542  0.25000032  0.99999935  1  0  1.083562  0  1.787038  0  0  0.927796  0  2.235124  0  0  0.975673  0  2.180501  0  1.355979  0  0.655999  0.892503  0  2.27383  0
Zn  Zn3  1  0.65873523  0.74999994  0.50000065  1  0  1.083598  0  1.787012  0  0  0.927842  0  2.235089  0  0  0.975714  0  2.180463  0  1.355975  0  0.656007  0.892551  0  2.273792  0
H  H4  1  0.47221214  0.87460631  0.92980676  1  0  0.050357  0  0.925762  0  0  0.059225  0  0.993169  0  0  0.061383  0  0.988109  0  0.111384  0  0.125878  0.057342  0  0.997008  0
H  H5  1  0.02778808  0.12539395  0.42980676  1  0  0.050371  0  0.925779  0  0  0.059241  0  0.993182  0  0  0.0614  0  0.988119  0  0.111385  0  0.125892  0.057359  0  0.99702  0
H  H6  1  0.47221086  0.62539358  0.07019324  1  0  0.050362  0  0.925769  0  0  0.059228  0  0.993175  0  0  0.061386  0  0.988114  0  0.111389  0  0.125876  0.057345  0  0.997015  0
H  H7  1  0.02778808  0.37460567  0.57019324  1  0  0.050373  0  0.925745  0  0  0.05924  0  0.993151  0  0  0.061397  0  0.98809  0  0.111397  0  0.125887  0.057356  0  0.996991  0
H  H8  1  0.52778830  0.12539294  0.07019324  1  0  0.05036  0  0.925776  0  0  0.059222  0  0.993182  0  0  0.061389  0  0.988111  0  0.111382  0  0.125891  0.05734  0  0.997021  0
H  H9  1  0.97221236  0.87460631  0.57019324  1  0  0.05036  0  0.925752  0  0  0.059223  0  0.99316  0  0  0.061382  0  0.988097  0  0.111389  0  0.125878  0.057326  0  0.997015  0
H  H10  1  0.52778830  0.37460669  0.92980611  1  0  0.050377  0  0.925776  0  0  0.059231  0  0.993193  0  0  0.061399  0  0.988122  0  0.111387  0  0.125901  0.057349  0  0.99703  0
H  H11  1  0.97221236  0.62539459  0.42980676  1  0  0.050357  0  0.925768  0  0  0.059214  0  0.993182  0  0  0.061383  0  0.988107  0  0.111396  0  0.125882  0.05733  0  0.997024  0
H  H12  1  0.70326031  0.56831235  0.81759354  1  0  0.106307  0  0.966824  0  0  0.120746  0  1.039998  0  0  0.122369  0  1.038258  0  0.094229  0  0.101698  0.119367  0  1.04143  0
H  H13  1  0.79674035  0.43168792  0.31759354  1  0  0.1063  0  0.96679  0  0  0.120733  0  1.039968  0  0  0.122356  0  1.038227  0  0.094229  0  0.101686  0.119353  0  1.041402  0
H  H14  1  0.70325903  0.93168754  0.18240711  1  0  0.106324  0  0.966823  0  0  0.120761  0  1.03999  0  0  0.122384  0  1.038249  0  0.094233  0  0.101703  0.119382  0  1.041421  0
H  H15  1  0.79674163  0.06831272  0.68240711  1  0  0.106304  0  0.966815  0  0  0.120738  0  1.039994  0  0  0.122361  0  1.038253  0  0.09424  0  0.101689  0.119358  0  1.041427  0
H  H16  1  0.29674141  0.43168792  0.18240646  1  0  0.106299  0  0.966798  0  0  0.120735  0  1.039972  0  0  0.122358  0  1.038231  0  0.094233  0  0.101687  0.119355  0  1.041405  0
H  H17  1  0.20325881  0.56831235  0.68240711  1  0  0.106304  0  0.96679  0  0  0.120745  0  1.039964  0  0  0.122368  0  1.038224  0  0.094235  0  0.101693  0.119365  0  1.041398  0
H  H18  1  0.29674013  0.06831171  0.81759354  1  0  0.106343  0  0.966827  0  0  0.120784  0  1.039986  0  0  0.122408  0  1.038245  0  0.094224  0  0.101707  0.119404  0  1.041419  0
H  H19  1  0.20325881  0.93168856  0.31759354  1  0  0.106335  0  0.966818  0  0  0.120778  0  1.039978  0  0  0.122401  0  1.038238  0  0.094223  0  0.101704  0.119398  0  1.041413  0
H  H20  1  0.64554650  0.65981162  0.72073471  1  0  0.115354  0  0.945507  0  0  0.133974  0  1.008887  0  0  0.135085  0  1.0088  0  0.096764  0  0.107757  0.132995  0  1.009146  0
H  H21  1  0.85445416  0.34018966  0.22073406  1  0  0.115371  0  0.945496  0  0  0.133988  0  1.008873  0  0  0.135098  0  1.008787  0  0.09677  0  0.107771  0.133009  0  1.009132  0
H  H22  1  0.64554522  0.84018928  0.27926529  1  0  0.115376  0  0.945505  0  0  0.133999  0  1.00887  0  0  0.135108  0  1.008784  0  0.096775  0  0.10778  0.13302  0  1.009129  0
H  H23  1  0.85445544  0.15981098  0.77926529  1  0  0.11537  0  0.945511  0  0  0.133995  0  1.008873  0  0  0.135105  0  1.008786  0  0.096775  0  0.107778  0.133016  0  1.009132  0
H  H24  1  0.35445522  0.34018966  0.27926529  1  0  0.115374  0  0.945501  0  0  0.133994  0  1.008871  0  0  0.135104  0  1.008785  0  0.096778  0  0.107778  0.133014  0  1.009131  0
H  H25  1  0.14554628  0.65981162  0.77926529  1  0  0.115355  0  0.945508  0  0  0.133979  0  1.008883  0  0  0.13509  0  1.008795  0  0.096764  0  0.107754  0.133  0  1.009141  0
H  H26  1  0.35445394  0.15981098  0.72073406  1  0  0.115376  0  0.945483  0  0  0.133996  0  1.008859  0  0  0.135106  0  1.008773  0  0.096769  0  0.107771  0.133018  0  1.009117  0
H  H27  1  0.14554628  0.84018928  0.22073471  1  0  0.115374  0  0.945476  0  0  0.134002  0  1.008844  0  0  0.135111  0  1.008758  0  0.096776  0  0.107773  0.133023  0  1.009102  0
H  H28  1  0.48356477  0.58358950  0.78620712  1  0  0.104259  0  0.960714  0  0  0.123712  0  1.026272  0  0  0.124602  0  1.026405  0  0.072131  0  0.107875  0.122928  0  1.026245  0
H  H29  1  0.01643545  0.41641077  0.28620777  1  0  0.104258  0  0.960698  0  0  0.123705  0  1.026262  0  0  0.124596  0  1.026393  0  0.072126  0  0.107864  0.122921  0  1.026236  0
H  H30  1  0.48356477  0.91641141  0.21379288  1  0  0.104268  0  0.960711  0  0  0.123716  0  1.026271  0  0  0.124606  0  1.026404  0  0.072128  0  0.107874  0.122932  0  1.026245  0
H  H31  1  0.01643673  0.08358886  0.71379223  1  0  0.104257  0  0.960703  0  0  0.123707  0  1.026266  0  0  0.124597  0  1.026397  0  0.072121  0  0.107868  0.122923  0  1.026241  0
H  H32  1  0.51643567  0.41641077  0.21379223  1  0  0.104261  0  0.960693  0  0  0.123708  0  1.026257  0  0  0.124599  0  1.026388  0  0.072125  0  0.107864  0.122924  0  1.026232  0
H  H33  1  0.98356499  0.58358950  0.71379288  1  0  0.104265  0  0.960707  0  0  0.123719  0  1.026265  0  0  0.124609  0  1.026398  0  0.072131  0  0.107879  0.122935  0  1.026238  0
H  H34  1  0.51643567  0.08358886  0.78620777  1  0  0.104258  0  0.960703  0  0  0.123708  0  1.026267  0  0  0.124599  0  1.026397  0  0.072124  0  0.10786  0.122924  0  1.02624  0
H  H35  1  0.98356499  0.91641039  0.28620777  1  0  0.10426  0  0.960693  0  0  0.123712  0  1.02626  0  0  0.124602  0  1.02639  0  0.072129  0  0.107866  0.122928  0  1.026234  0
H  H36  1  0.70088884  0.94960285  0.86662214  1  0  0.109581  0  0.960744  0  0  0.125245  0  1.031384  0  0  0.126582  0  1.03058  0  0.088956  0  0.107509  0.124192  0  1.032033  0
H  H37  1  0.79910926  0.05039741  0.36662214  1  0  0.109567  0  0.960764  0  0  0.125238  0  1.031397  0  0  0.126574  0  1.030594  0  0.088969  0  0.107518  0.124185  0  1.032046  0
H  H38  1  0.70088884  0.55039704  0.13337721  1  0  0.109625  0  0.96074  0  0  0.125285  0  1.031373  0  0  0.126622  0  1.03057  0  0.08893  0  0.107531  0.124231  0  1.032023  0
H  H39  1  0.79911054  0.44960221  0.63337721  1  0  0.109632  0  0.960723  0  0  0.125291  0  1.031354  0  0  0.126627  0  1.030551  0  0.088941  0  0.107544  0.124238  0  1.032002  0
H  H40  1  0.29911160  0.05039741  0.13337721  1  0  0.1096  0  0.960738  0  0  0.125273  0  1.031361  0  0  0.126609  0  1.030558  0  0.088934  0  0.107535  0.12422  0  1.032009  0
H  H41  1  0.20088990  0.94960285  0.63337721  1  0  0.109577  0  0.960705  0  0  0.125245  0  1.031345  0  0  0.126582  0  1.030542  0  0.088938  0  0.107518  0.124192  0  1.031994  0
H  H42  1  0.29911032  0.44960221  0.86662214  1  0  0.109629  0  0.960745  0  0  0.125278  0  1.031393  0  0  0.126614  0  1.03059  0  0.08895  0  0.107534  0.124225  0  1.032042  0
H  H43  1  0.20088990  0.55039805  0.36662279  1  0  0.109578  0  0.960726  0  0  0.125237  0  1.031371  0  0  0.126573  0  1.030568  0  0.088944  0  0.107513  0.124184  0  1.03202  0
H  H44  1  0.72494851  0.89410594  0.75672006  1  0  0.100922  0  0.950933  0  0  0.121289  0  1.013797  0  0  0.122319  0  1.013468  0  0.057183  0  0.104175  0.120408  0  1.014125  0
H  H45  1  0.77505087  0.10589432  0.25672071  1  0  0.100884  0  0.950911  0  0  0.121239  0  1.013802  0  0  0.122268  0  1.013473  0  0.0572  0  0.104156  0.120352  0  1.014137  0
H  H46  1  0.72494723  0.60589293  0.24327929  1  0  0.10088  0  0.95092  0  0  0.121241  0  1.013802  0  0  0.12227  0  1.013474  0  0.057194  0  0.104161  0.12036  0  1.01413  0
H  H47  1  0.77505087  0.39410632  0.74327929  1  0  0.100882  0  0.950913  0  0  0.121233  0  1.013805  0  0  0.122263  0  1.013476  0  0.057198  0  0.104156  0.120347  0  1.014138  0
H  H48  1  0.27505193  0.10589229  0.24327929  1  0  0.100878  0  0.950909  0  0  0.121224  0  1.013818  0  0  0.122253  0  1.013489  0  0.057194  0  0.104155  0.120343  0  1.014145  0
H  H49  1  0.22494956  0.89410696  0.74327929  1  0  0.100878  0  0.950927  0  0  0.12122  0  1.013834  0  0  0.122249  0  1.013506  0  0.057196  0  0.10414  0.120339  0  1.014162  0
H  H50  1  0.27505065  0.39410733  0.75672071  1  0  0.100879  0  0.950906  0  0  0.121225  0  1.01381  0  0  0.122254  0  1.013481  0  0.057196  0  0.104155  0.120344  0  1.014137  0
H  H51  1  0.22494956  0.60589395  0.25672071  1  0  0.100894  0  0.950909  0  0  0.12123  0  1.013822  0  0  0.122259  0  1.013493  0  0.057199  0  0.104137  0.120342  0  1.014157  0
H  H52  1  0.85033475  0.81748138  0.84086441  1  0  0.12097  0  0.940597  0  0  0.139904  0  1.001043  0  0  0.141144  0  1.000935  0  0.090957  0  0.107113  0.138806  0  1.001339  0
H  H53  1  0.64966463  0.18251888  0.34086441  1  0  0.120946  0  0.940608  0  0  0.139876  0  1.001061  0  0  0.141116  0  1.000953  0  0.090946  0  0.107103  0.138777  0  1.001358  0
H  H54  1  0.85033475  0.68251851  0.15913559  1  0  0.120964  0  0.940599  0  0  0.139893  0  1.001053  0  0  0.141133  0  1.000944  0  0.090963  0  0.10711  0.138794  0  1.00135  0
H  H55  1  0.64966463  0.31748176  0.65913495  1  0  0.120936  0  0.9406  0  0  0.139861  0  1.001058  0  0  0.141101  0  1.00095  0  0.090952  0  0.107105  0.138763  0  1.001355  0
H  H56  1  0.14966441  0.18251787  0.15913559  1  0  0.120924  0  0.94061  0  0  0.139881  0  1.001038  0  0  0.141121  0  1.00093  0  0.09096  0  0.107116  0.138781  0  1.001335  0
H  H57  1  0.35033581  0.81748138  0.65913495  1  0  0.12094  0  0.940587  0  0  0.139897  0  1.001005  0  0  0.141137  0  1.000897  0  0.090945  0  0.107118  0.138799  0  1.001303  0
H  H58  1  0.14966441  0.31748176  0.84086505  1  0  0.120911  0  0.940605  0  0  0.139869  0  1.001026  0  0  0.14111  0  1.000916  0  0.09095  0  0.107115  0.13877  0  1.001324  0
H  H59  1  0.35033581  0.68251952  0.34086505  1  0  0.120949  0  0.940579  0  0  0.13991  0  1.000989  0  0  0.14115  0  1.000882  0  0.09095  0  0.107124  0.138812  0  1.001286  0
C  C60  1  0.95068132  0.52067809  0.95798911  1  0  0.52576  0  3.928063  0  0  0.486886  0  4.214079  0  0  0.515822  0  4.208995  0  1.57116  0  0.203059  0.467094  0  4.216665  0
C  C61  1  0.54931934  0.47932014  0.45799040  1  0  0.52566  0  3.928259  0  0  0.48678  0  4.214283  0  0  0.515711  0  4.209205  0  1.571314  0  0.202993  0.466989  0  4.216882  0
C  C62  1  0.95068004  0.97932180  0.04201089  1  0  0.525775  0  3.928088  0  0  0.486892  0  4.21412  0  0  0.515827  0  4.209037  0  1.592601  0  0.203058  0.467099  0  4.216704  0
C  C63  1  0.54931934  0.02068050  0.54201089  1  0  0.525742  0  3.928093  0  0  0.486859  0  4.214125  0  0  0.515799  0  4.209034  0  1.592588  0  0.203022  0.467063  0  4.216731  0
C  C64  1  0.04931784  0.47932014  0.04201025  1  0  0.525724  0  3.928114  0  0  0.486866  0  4.214114  0  0  0.515801  0  4.209031  0  1.592569  0  0.203045  0.467088  0  4.216685  0
C  C65  1  0.45067982  0.52067809  0.54201089  1  0  0.525705  0  3.928199  0  0  0.486837  0  4.214203  0  0  0.515774  0  4.209118  0  1.592605  0  0.20303  0.467037  0  4.216808  0
C  C66  1  0.04931784  0.02067948  0.95798975  1  0  0.525714  0  3.928105  0  0  0.486852  0  4.214117  0  0  0.515787  0  4.209034  0  1.571179  0  0.203054  0.467075  0  4.216686  0
C  C67  1  0.45067982  0.97932078  0.45799040  1  0  0.525755  0  3.928146  0  0  0.486878  0  4.214172  0  0  0.515811  0  4.20909  0  1.5712  0  0.203053  0.467081  0  4.216779  0
C  C68  1  0.46993139  0.77605737  0.89592958  1  0  0.386591  0  3.800421  0  0  0.311148  0  4.084942  0  0  0.339423  0  4.085651  0  1.359139  0  0.174046  0.292261  0  4.084011  0
C  C69  1  0.03006755  0.22394187  0.39592958  1  0  0.386578  0  3.800431  0  0  0.311133  0  4.084964  0  0  0.339409  0  4.085673  0  1.359127  0  0.174025  0.292246  0  4.084035  0
C  C70  1  0.46993139  0.72394251  0.10407042  1  0  0.38658  0  3.800429  0  0  0.31114  0  4.084947  0  0  0.339417  0  4.085656  0  1.359138  0  0.174047  0.292254  0  4.084015  0
C  C71  1  0.03006883  0.27605673  0.60407042  1  0  0.386594  0  3.800387  0  0  0.311152  0  4.084905  0  0  0.33943  0  4.085614  0  1.35914  0  0.174042  0.292266  0  4.083976  0
C  C72  1  0.53006777  0.22394187  0.10406977  1  0  0.3866  0  3.800416  0  0  0.311171  0  4.084936  0  0  0.339442  0  4.085643  0  1.359127  0  0.174048  0.292284  0  4.084009  0
C  C73  1  0.96993161  0.77605737  0.60407042  1  0  0.386611  0  3.800372  0  0  0.311171  0  4.084896  0  0  0.339447  0  4.085606  0  1.359137  0  0.17406  0.292292  0  4.08397  0
C  C74  1  0.53006777  0.27605775  0.89592958  1  0  0.386579  0  3.800431  0  0  0.311149  0  4.084954  0  0  0.339417  0  4.085661  0  1.359141  0  0.174029  0.292262  0  4.084024  0
C  C75  1  0.96993288  0.72394251  0.39592958  1  0  0.386609  0  3.800333  0  0  0.31118  0  4.084854  0  0  0.339449  0  4.085562  0  1.359131  0  0.174056  0.292294  0  4.083926  0
C  C76  1  0.60744458  0.63491880  0.78730757  1  0  -0.180157  0  3.619418  0  0  -0.279926  0  3.863067  0  0  -0.276695  0  3.871934  0  0.228269  0  -0.138782  -0.281734  0  3.857243  0
C  C77  1  0.89255608  0.36508146  0.28730822  1  0  -0.180163  0  3.619386  0  0  -0.279907  0  3.862998  0  0  -0.276678  0  3.871866  0  0.228251  0  -0.138767  -0.281716  0  3.857177  0
C  C78  1  0.60744458  0.86508109  0.21269178  1  0  -0.180205  0  3.619462  0  0  -0.279959  0  3.86309  0  0  -0.276728  0  3.871955  0  0.228242  0  -0.138797  -0.281767  0  3.857267  0
C  C79  1  0.89255608  0.13491918  0.71269178  1  0  -0.180159  0  3.619429  0  0  -0.279915  0  3.863055  0  0  -0.276685  0  3.871923  0  0.228246  0  -0.138781  -0.281724  0  3.857234  0
C  C80  1  0.39255586  0.36508146  0.21269178  1  0  -0.180166  0  3.619387  0  0  -0.279914  0  3.863005  0  0  -0.276683  0  3.87187  0  0.228246  0  -0.13877  -0.281723  0  3.857185  0
C  C81  1  0.10744436  0.63491880  0.71269243  1  0  -0.180162  0  3.619377  0  0  -0.27993  0  3.863016  0  0  -0.276701  0  3.871885  0  0.228236  0  -0.138779  -0.281738  0  3.857192  0
C  C82  1  0.39255586  0.13491816  0.78730822  1  0  -0.180205  0  3.619404  0  0  -0.279968  0  3.863043  0  0  -0.276739  0  3.871909  0  0.228258  0  -0.138783  -0.281777  0  3.857221  0
C  C83  1  0.10744436  0.86508210  0.28730822  1  0  -0.180195  0  3.619355  0  0  -0.27997  0  3.863012  0  0  -0.27674  0  3.871882  0  0.228241  0  -0.138788  -0.281779  0  3.85719  0
C  C84  1  0.72537782  0.86152323  0.82484340  1  0  -0.187292  0  3.634239  0  0  -0.287723  0  3.880036  0  0  -0.285373  0  3.890848  0  0.262698  0  -0.135085  -0.288939  0  3.872705  0
C  C85  1  0.77462156  0.13847805  0.32484404  1  0  -0.187204  0  3.634242  0  0  -0.28762  0  3.880013  0  0  -0.28527  0  3.890828  0  0.26269  0  -0.135059  -0.288834  0  3.872689  0
C  C86  1  0.72537655  0.63847666  0.17515596  1  0  -0.18729  0  3.63425  0  0  -0.287702  0  3.880016  0  0  -0.285352  0  3.890828  0  0.26271  0  -0.135089  -0.288918  0  3.872686  0
C  C87  1  0.77462283  0.36152259  0.67515596  1  0  -0.187238  0  3.634218  0  0  -0.287635  0  3.87998  0  0  -0.285285  0  3.890792  0  0.262707  0  -0.135071  -0.288847  0  3.872653  0
C  C88  1  0.27462389  0.13847704  0.17515596  1  0  -0.187196  0  3.634202  0  0  -0.28763  0  3.879985  0  0  -0.28528  0  3.890798  0  0.26272  0  -0.135062  -0.288845  0  3.872655  0
C  C89  1  0.22537760  0.86152221  0.67515596  1  0  -0.187227  0  3.634154  0  0  -0.287648  0  3.879922  0  0  -0.285299  0  3.890738  0  0.262712  0  -0.135069  -0.288866  0  3.872593  0
C  C90  1  0.27462262  0.36152259  0.82484404  1  0  -0.187213  0  3.634217  0  0  -0.287624  0  3.879992  0  0  -0.285273  0  3.890804  0  0.262703  0  -0.135074  -0.288841  0  3.872665  0
C  C91  1  0.22537760  0.63847768  0.32484404  1  0  -0.187244  0  3.63417  0  0  -0.287651  0  3.879937  0  0  -0.285303  0  3.890753  0  0.262703  0  -0.135065  -0.288864  0  3.872612  0
N  N92  1  0.59278517  0.75971419  0.83740289  1  0  -0.065162  0  3.508001  0  0  0.039947  0  3.737765  0  0  0.020502  0  3.763036  0  -1.222249  0  -0.275506  0.052769  0  3.720345  0
N  N93  1  0.90721421  0.24028607  0.33740289  1  0  -0.06518  0  3.508037  0  0  0.039921  0  3.737802  0  0  0.020475  0  3.763071  0  -1.222249  0  -0.275514  0.052742  0  3.720383  0
N  N94  1  0.59278517  0.74028570  0.16259711  1  0  -0.065157  0  3.508031  0  0  0.039942  0  3.737793  0  0  0.020496  0  3.763064  0  -1.222243  0  -0.275517  0.052764  0  3.720373  0
N  N95  1  0.90721421  0.25971457  0.66259711  1  0  -0.065214  0  3.508054  0  0  0.039889  0  3.737805  0  0  0.020444  0  3.763074  0  -1.222249  0  -0.275534  0.052711  0  3.720384  0
N  N96  1  0.40721526  0.24028506  0.16259711  1  0  -0.065189  0  3.508045  0  0  0.03991  0  3.737803  0  0  0.020465  0  3.763075  0  -1.222244  0  -0.275547  0.052731  0  3.720385  0
N  N97  1  0.09278623  0.75971419  0.66259711  1  0  -0.06517  0  3.508002  0  0  0.039932  0  3.737782  0  0  0.020486  0  3.763053  0  -1.222242  0  -0.275515  0.052755  0  3.720358  0
N  N98  1  0.40721399  0.25971457  0.83740289  1  0  -0.065205  0  3.508013  0  0  0.039898  0  3.737763  0  0  0.020452  0  3.763036  0  -1.222243  0  -0.275531  0.052719  0  3.720346  0
N  N99  1  0.09278623  0.74028570  0.33740289  1  0  -0.065188  0  3.507996  0  0  0.039913  0  3.737768  0  0  0.020467  0  3.763041  0  -1.222248  0  -0.275528  0.052735  0  3.720348  0
O  O100  1  0.85043697  0.43289216  0.92574865  1  0  -0.592219  0  2.058693  0  0  -0.537117  0  2.307412  0  0  -0.56261  0  2.297239  0  -1.167923  0  -0.307765  -0.518452  0  2.313696  0
O  O101  1  0.64956752  0.56710709  0.42575190  1  0  -0.592218  0  2.058798  0  0  -0.537113  0  2.307508  0  0  -0.562604  0  2.297334  0  -1.167975  0  -0.307739  -0.518445  0  2.313793  0
O  O102  1  0.85043570  0.06710848  0.07425070  1  0  -0.592245  0  2.058692  0  0  -0.537143  0  2.307411  0  0  -0.562636  0  2.297238  0  -1.16793  0  -0.307777  -0.518478  0  2.313694  0
O  O103  1  0.64956624  0.93289179  0.57425005  1  0  -0.592264  0  2.058685  0  0  -0.537159  0  2.307397  0  0  -0.562653  0  2.297217  0  -1.167907  0  -0.307764  -0.518489  0  2.313685  0
O  O104  1  0.14956347  0.56710810  0.07425005  1  0  -0.592223  0  2.0587  0  0  -0.537135  0  2.307414  0  0  -0.562627  0  2.297236  0  -1.167884  0  -0.307777  -0.518472  0  2.313692  0
O  O105  1  0.35043292  0.43289318  0.57425005  1  0  -0.59223  0  2.058783  0  0  -0.537123  0  2.307478  0  0  -0.562614  0  2.297299  0  -1.167931  0  -0.307762  -0.518456  0  2.313771  0
O  O106  1  0.14956474  0.93289179  0.92574995  1  0  -0.59221  0  2.058695  0  0  -0.537109  0  2.307397  0  0  -0.5626  0  2.297219  0  -1.16789  0  -0.307759  -0.518448  0  2.313678  0
O  O107  1  0.35043292  0.06710645  0.42575125  1  0  -0.592211  0  2.058794  0  0  -0.5371  0  2.307495  0  0  -0.562591  0  2.297319  0  -1.167899  0  -0.307734  -0.518433  0  2.313786  0
O  O108  1  0.97786887  0.63835268  0.92776020  1  0  -0.578853  0  2.066159  0  0  -0.523488  0  2.314324  0  0  -0.548548  0  2.304896  0  -1.160836  0  -0.303002  -0.505432  0  2.320306  0
O  O109  1  0.52212923  0.36164962  0.42776020  1  0  -0.578769  0  2.066269  0  0  -0.523378  0  2.314407  0  0  -0.548437  0  2.304985  0  -1.160916  0  -0.302956  -0.505314  0  2.320375  0
O  O110  1  0.97786759  0.86164822  0.07223980  1  0  -0.578862  0  2.066226  0  0  -0.523466  0  2.314359  0  0  -0.548526  0  2.304931  0  -1.160867  0  -0.302992  -0.505413  0  2.320346  0
O  O111  1  0.52213179  0.13835204  0.57223915  1  0  -0.578815  0  2.066258  0  0  -0.523419  0  2.314396  0  0  -0.54848  0  2.304965  0  -1.160898  0  -0.302969  -0.50536  0  2.32038  0
O  O112  1  0.02212901  0.36164962  0.07223980  1  0  -0.578831  0  2.066258  0  0  -0.523444  0  2.314388  0  0  -0.548505  0  2.304965  0  -1.160878  0  -0.302981  -0.505388  0  2.320347  0
O  O113  1  0.47786737  0.63835268  0.57224045  1  0  -0.578805  0  2.066196  0  0  -0.523434  0  2.314344  0  0  -0.548495  0  2.304917  0  -1.16088  0  -0.302984  -0.505375  0  2.320331  0
O  O114  1  0.02212901  0.13835102  0.92776020  1  0  -0.578811  0  2.06624  0  0  -0.523443  0  2.314393  0  0  -0.54851  0  2.304979  0  -1.160879  0  -0.30299  -0.505385  0  2.320349  0
O  O115  1  0.47786993  0.86164721  0.42776085  1  0  -0.578862  0  2.066202  0  0  -0.523487  0  2.314361  0  0  -0.548546  0  2.304932  0  -1.160867  0  -0.303008  -0.505424  0  2.320337  0
O  O116  1  0.35701323  0.68792491  0.91254458  1  0  -0.558213  0  2.105563  0  0  -0.497755  0  2.37224  0  0  -0.523872  0  2.36411  0  -1.170562  0  -0.306984  -0.479894  0  2.377489  0
O  O117  1  0.14298699  0.31207333  0.41254393  1  0  -0.558182  0  2.105548  0  0  -0.49774  0  2.372251  0  0  -0.523857  0  2.364123  0  -1.170527  0  -0.306969  -0.479874  0  2.377486  0
O  O118  1  0.35701323  0.81207498  0.08745542  1  0  -0.558201  0  2.105555  0  0  -0.497747  0  2.372233  0  0  -0.523864  0  2.364102  0  -1.17056  0  -0.306982  -0.479889  0  2.377488  0
O  O119  1  0.14298699  0.18792528  0.58745607  1  0  -0.558202  0  2.105538  0  0  -0.497753  0  2.372229  0  0  -0.52387  0  2.3641  0  -1.170564  0  -0.306985  -0.479889  0  2.377468  0
O  O120  1  0.64298721  0.31207434  0.08745542  1  0  -0.558218  0  2.105561  0  0  -0.497776  0  2.372253  0  0  -0.523896  0  2.36413  0  -1.170541  0  -0.306992  -0.479911  0  2.377486  0
O  O121  1  0.85701345  0.68792592  0.58745607  1  0  -0.558203  0  2.10555  0  0  -0.497749  0  2.372238  0  0  -0.523867  0  2.364111  0  -1.170548  0  -0.306981  -0.479887  0  2.377478  0
O  O122  1  0.64298721  0.18792630  0.91254393  1  0  -0.558188  0  2.105555  0  0  -0.497733  0  2.372235  0  0  -0.523851  0  2.364111  0  -1.170548  0  -0.306975  -0.479872  0  2.377479  0
O  O123  1  0.85701345  0.81207498  0.41254393  1  0  -0.5582  0  2.105469  0  0  -0.497754  0  2.372157  0  0  -0.523871  0  2.364031  0  -1.170545  0  -0.306981  -0.479888  0  2.377391  0
