# generated using pymatgen
data_AgH9C6N3ClO5
_symmetry_space_group_name_H-M   'P 1'
_cell_length_a   8.10972069
_cell_length_b   10.75088986
_cell_length_c   12.07564267
_cell_angle_alpha   89.99998578
_cell_angle_beta   103.04839110
_cell_angle_gamma   89.99995076
_symmetry_Int_Tables_number   1
_chemical_formula_structural   AgH9C6N3ClO5
_chemical_formula_sum   'Ag4 H36 C24 N12 Cl4 O20'
_cell_volume   1025.65110089
_cell_formula_units_Z   4
loop_
 _symmetry_equiv_pos_site_id
 _symmetry_equiv_pos_as_xyz
  1  'x, y, z'
loop_
 _atom_site_type_symbol
 _atom_site_label
 _atom_site_symmetry_multiplicity
 _atom_site_fract_x
 _atom_site_fract_y
 _atom_site_fract_z
 _atom_site_occupancy
 _atom_site_hle17_bader_spin_density
 _atom_site_hle17_ddec_charge
 _atom_site_hle17_ddec_spin_density
 _atom_site_hle17_ddec_sum_bond_order
 _atom_site_hle17_magmom
 _atom_site_hse06_10hf_bader_spin_density
 _atom_site_hse06_10hf_ddec_charge
 _atom_site_hse06_10hf_ddec_spin_density
 _atom_site_hse06_10hf_ddec_sum_bond_order
 _atom_site_hse06_10hf_magmom
 _atom_site_hse06_bader_spin_density
 _atom_site_hse06_ddec_charge
 _atom_site_hse06_ddec_spin_density
 _atom_site_hse06_ddec_sum_bond_order
 _atom_site_hse06_magmom
 _atom_site_pbe_bader_spin_density
 _atom_site_pbe_cm5_charge
 _atom_site_pbe_ddec_charge
 _atom_site_pbe_ddec_spin_density
 _atom_site_pbe_ddec_sum_bond_order
 _atom_site_pbe_magmom
Ag  Ag0  1  0.50925462  0.26444210  0.20746555  1  0  0.589417  0  1.321998  0  0  0.452822  0  1.74097  0  0  0.483059  0  1.695717  0  0  0.479987  0.4313  0  1.772643  0
Ag  Ag1  1  0.99074531  0.76444240  0.29253521  1  0  0.589403  0  1.322037  0  0  0.452835  0  1.741006  0  0  0.48307  0  1.695752  0  0  0.479999  0.431313  0  1.772677  0
Ag  Ag2  1  0.49074548  0.73555744  0.79253425  1  0  0.58939  0  1.321987  0  0  0.4528  0  1.740956  0  0  0.483037  0  1.695701  0  0  0.479989  0.431279  0  1.772625  0
Ag  Ag3  1  0.00925352  0.23555807  0.70746523  1  0  0.589404  0  1.322007  0  0  0.452805  0  1.740982  0  0  0.483045  0  1.695728  0  0  0.479983  0.431287  0  1.772655  0
H  H4  1  0.04306066  0.32106351  0.93394258  1  0  0.3293  0  0.928593  0  0  0.308125  0  1.002076  0  0  0.315856  0  0.994723  0  0  0.298823  0.30262  0  1.007324  0
H  H5  1  0.45693949  0.82106390  0.56605789  1  0  0.329381  0  0.92858  0  0  0.308209  0  1.002042  0  0  0.315939  0  0.994689  0  0  0.29887  0.302705  0  1.007288  0
H  H6  1  0.95693817  0.67893697  0.06605870  1  0  0.329323  0  0.928605  0  0  0.308146  0  1.002082  0  0  0.315877  0  0.994727  0  0  0.298849  0.302642  0  1.007328  0
H  H7  1  0.54306061  0.17893658  0.43394191  1  0  0.329294  0  0.928603  0  0  0.308115  0  1.002095  0  0  0.315846  0  0.994741  0  0  0.298835  0.302612  0  1.00734  0
H  H8  1  0.18993141  0.34467558  0.06222018  1  0  0.347082  0  0.906662  0  0  0.330379  0  0.966013  0  0  0.337672  0  0.960142  0  0  0.303254  0.32513  0  0.970327  0
H  H9  1  0.31006820  0.84467596  0.43778082  1  0  0.347062  0  0.906702  0  0  0.330375  0  0.966032  0  0  0.337666  0  0.960164  0  0  0.303233  0.325131  0  0.970353  0
H  H10  1  0.81006742  0.65532489  0.93778109  1  0  0.347063  0  0.906712  0  0  0.330364  0  0.966054  0  0  0.337656  0  0.960185  0  0  0.303232  0.32512  0  0.970375  0
H  H11  1  0.68993190  0.15532451  0.56221898  1  0  0.347072  0  0.906704  0  0  0.33038  0  0.966034  0  0  0.337671  0  0.960168  0  0  0.30326  0.325136  0  0.970357  0
H  H12  1  0.93954471  0.09420119  0.09702039  1  0  0.110386  0  0.954111  0  0  0.123044  0  1.020657  0  0  0.124122  0  1.019914  0  0  0.103494  0.122152  0  1.021267  0
H  H13  1  0.56045543  0.59420360  0.40297630  1  0  0.110386  0  0.954122  0  0  0.123053  0  1.020659  0  0  0.12413  0  1.019918  0  0  0.103495  0.122161  0  1.021268  0
H  H14  1  0.06045412  0.90579836  0.90297923  1  0  0.110379  0  0.954122  0  0  0.123039  0  1.020662  0  0  0.124115  0  1.019923  0  0  0.103486  0.122147  0  1.021271  0
H  H15  1  0.43954592  0.40579874  0.59702121  1  0  0.110393  0  0.954079  0  0  0.123049  0  1.02063  0  0  0.124126  0  1.019889  0  0  0.103494  0.122157  0  1.02124  0
H  H16  1  0.86310425  0.14437368  0.95235796  1  0  0.089659  0  0.952174  0  0  0.102539  0  1.024673  0  0  0.103418  0  1.023488  0  0  0.097511  0.101828  0  1.025572  0
H  H17  1  0.63689255  0.64437521  0.54764009  1  0  0.089643  0  0.952203  0  0  0.102529  0  1.0247  0  0  0.103408  0  1.023515  0  0  0.097515  0.101816  0  1.025601  0
H  H18  1  0.13689585  0.85562587  0.04764268  1  0  0.089653  0  0.952172  0  0  0.10253  0  1.024672  0  0  0.10341  0  1.023487  0  0  0.097507  0.101816  0  1.025574  0
H  H19  1  0.36310501  0.35562526  0.45235851  1  0  0.089652  0  0.952178  0  0  0.102527  0  1.024686  0  0  0.103406  0  1.023501  0  0  0.097504  0.101814  0  1.025587  0
H  H20  1  0.80510682  0.99410707  0.99560492  1  0  0.089387  0  0.956587  0  0  0.10546  0  1.021099  0  0  0.105326  0  1.022404  0  0  0.098085  0.105483  0  1.020278  0
H  H21  1  0.69489080  0.49410857  0.50439317  1  0  0.089391  0  0.956611  0  0  0.105459  0  1.02113  0  0  0.105325  0  1.022437  0  0  0.098074  0.105485  0  1.020306  0
H  H22  1  0.19489454  0.00589247  0.00439425  1  0  0.089409  0  0.956571  0  0  0.105452  0  1.021123  0  0  0.105318  0  1.022431  0  0  0.098106  0.105478  0  1.020298  0
H  H23  1  0.30510676  0.50589284  0.49560543  1  0  0.089386  0  0.956585  0  0  0.105459  0  1.021096  0  0  0.105325  0  1.022402  0  0  0.098087  0.105482  0  1.020274  0
H  H24  1  0.19018127  0.08954871  0.63960092  1  0  0.115015  0  0.980397  0  0  0.130386  0  1.053909  0  0  0.133933  0  1.049701  0  0  0.084346  0.127799  0  1.0569  0
H  H25  1  0.30981917  0.58954818  0.86039799  1  0  0.115013  0  0.980406  0  0  0.13038  0  1.053924  0  0  0.133929  0  1.049716  0  0  0.084355  0.127792  0  1.056916  0
H  H26  1  0.80981755  0.91045083  0.36039787  1  0  0.115028  0  0.980406  0  0  0.130391  0  1.05392  0  0  0.133939  0  1.049711  0  0  0.084361  0.127804  0  1.056911  0
H  H27  1  0.69018219  0.41045136  0.13960201  1  0  0.115026  0  0.980404  0  0  0.13039  0  1.053917  0  0  0.133939  0  1.049708  0  0  0.084361  0.127802  0  1.056909  0
H  H28  1  0.40832194  0.10550732  0.63873346  1  0  0.142436  0  0.923417  0  0  0.168892  0  0.969596  0  0  0.170795  0  0.969629  0  0  0.10243  0.167498  0  0.969637  0
H  H29  1  0.09167722  0.60550693  0.86126525  1  0  0.142406  0  0.923457  0  0  0.168897  0  0.969594  0  0  0.170802  0  0.969625  0  0  0.102424  0.167503  0  0.969634  0
H  H30  1  0.59167562  0.89449315  0.36126514  1  0  0.142408  0  0.923464  0  0  0.168903  0  0.969592  0  0  0.170808  0  0.969622  0  0  0.102421  0.167508  0  0.969634  0
H  H31  1  0.90832541  0.39449261  0.13873493  1  0  0.142422  0  0.923432  0  0  0.168883  0  0.969601  0  0  0.170787  0  0.969633  0  0  0.102422  0.167488  0  0.969643  0
H  H32  1  0.33485427  0.96834940  0.69323022  1  0  0.118832  0  0.956081  0  0  0.135723  0  1.029943  0  0  0.138542  0  1.027338  0  0  0.091809  0.133624  0  1.0319  0
H  H33  1  0.16514570  0.46834897  0.80676936  1  0  0.118828  0  0.95609  0  0  0.13572  0  1.02995  0  0  0.138538  0  1.027347  0  0  0.091809  0.133621  0  1.031907  0
H  H34  1  0.66514583  0.03165200  0.30677042  1  0  0.118839  0  0.95606  0  0  0.135726  0  1.029922  0  0  0.138542  0  1.027321  0  0  0.091811  0.133627  0  1.03188  0
H  H35  1  0.83485440  0.53165058  0.19323044  1  0  0.118828  0  0.956087  0  0  0.135718  0  1.029945  0  0  0.138536  0  1.027342  0  0  0.091812  0.133619  0  1.031902  0
H  H36  1  0.61248360  0.05634572  0.84213449  1  0  0.144306  0  0.991482  0  0  0.150692  0  1.059545  0  0  0.154257  0  1.059383  0  0  0.105211  0.148177  0  1.059824  0
H  H37  1  0.88751584  0.55634612  0.65786397  1  0  0.14432  0  0.991484  0  0  0.150696  0  1.059549  0  0  0.154261  0  1.059387  0  0  0.105218  0.14818  0  1.059829  0
H  H38  1  0.38751649  0.94365569  0.15786284  1  0  0.144324  0  0.991469  0  0  0.1507  0  1.05954  0  0  0.154265  0  1.059377  0  0  0.105221  0.148184  0  1.059821  0
H  H39  1  0.11248426  0.44365342  0.34213583  1  0  0.144312  0  0.991492  0  0  0.150697  0  1.059538  0  0  0.154261  0  1.059375  0  0  0.10522  0.148182  0  1.059817  0
C  C40  1  0.83408109  0.09059595  0.02274194  1  0  -0.068327  0  3.564273  0  0  -0.158079  0  3.813156  0  0  -0.151298  0  3.817606  0  0  -0.142407  -0.162385  0  3.810015  0
C  C41  1  0.66592032  0.59059641  0.47725743  1  0  -0.068299  0  3.564177  0  0  -0.158084  0  3.813111  0  0  -0.151302  0  3.817561  0  0  -0.142414  -0.162382  0  3.809971  0
C  C42  1  0.16591900  0.90940360  0.97725786  1  0  -0.068352  0  3.564145  0  0  -0.158084  0  3.813044  0  0  -0.151303  0  3.817496  0  0  -0.14243  -0.162381  0  3.809905  0
C  C43  1  0.33408103  0.40940407  0.52274174  1  0  -0.068332  0  3.564171  0  0  -0.158084  0  3.813061  0  0  -0.151302  0  3.817513  0  0  -0.142417  -0.162388  0  3.80992  0
C  C44  1  0.54629630  0.15612350  0.98253319  1  0  0.504823  0  3.846055  0  0  0.463252  0  4.123544  0  0  0.490708  0  4.129941  0  0  0.217516  0.444841  0  4.118815  0
C  C45  1  0.95370302  0.65612391  0.51746606  1  0  0.504793  0  3.846142  0  0  0.463281  0  4.123546  0  0  0.490741  0  4.129939  0  0  0.21749  0.444877  0  4.118818  0
C  C46  1  0.45370380  0.84387697  0.01746662  1  0  0.50484  0  3.846035  0  0  0.46324  0  4.123561  0  0  0.490697  0  4.129958  0  0  0.2175  0.444838  0  4.11883  0
C  C47  1  0.04629708  0.34387657  0.48253375  1  0  0.504798  0  3.846114  0  0  0.463238  0  4.123587  0  0  0.490696  0  4.129981  0  0  0.217491  0.444826  0  4.118862  0
C  C48  1  0.31926448  0.06990099  0.68727625  1  0  -0.365459  0  3.661124  0  0  -0.4462  0  3.893437  0  0  -0.450941  0  3.897119  0  0  -0.240276  -0.442523  0  3.89066  0
C  C49  1  0.18073472  0.56989963  0.81272330  1  0  -0.36543  0  3.661197  0  0  -0.446197  0  3.893505  0  0  -0.450939  0  3.897186  0  0  -0.240284  -0.442521  0  3.890726  0
C  C50  1  0.68073434  0.93010042  0.31272336  1  0  -0.365476  0  3.661189  0  0  -0.446232  0  3.893474  0  0  -0.450971  0  3.897155  0  0  -0.240293  -0.442556  0  3.890697  0
C  C51  1  0.81926664  0.43009899  0.18727670  1  0  -0.365451  0  3.661184  0  0  -0.446181  0  3.893482  0  0  -0.450922  0  3.897162  0  0  -0.240285  -0.442505  0  3.890705  0
C  C52  1  0.27539960  0.23626859  0.94777901  1  0  0.666647  0  3.815774  0  0  0.616294  0  4.085593  0  0  0.645181  0  4.092643  0  0  0.348775  0.596857  0  4.080293  0
C  C53  1  0.22460193  0.73626913  0.55222168  1  0  0.666705  0  3.815821  0  0  0.616288  0  4.085733  0  0  0.645173  0  4.092784  0  0  0.348733  0.596851  0  4.080434  0
C  C54  1  0.72460049  0.76373189  0.05222079  1  0  0.666581  0  3.81591  0  0  0.616262  0  4.085679  0  0  0.645149  0  4.092729  0  0  0.348767  0.596825  0  4.080376  0
C  C55  1  0.77539944  0.26373134  0.44777914  1  0  0.666692  0  3.815706  0  0  0.616252  0  4.085662  0  0  0.645136  0  4.092714  0  0  0.348779  0.596816  0  4.080361  0
C  C56  1  0.35698323  0.12466852  0.80374880  1  0  0.423985  0  3.709949  0  0  0.421064  0  3.95402  0  0  0.440722  0  3.967528  0  0  0.138056  0.407968  0  3.94442  0
C  C57  1  0.14301591  0.62466815  0.69625073  1  0  0.423996  0  3.709966  0  0  0.421067  0  3.954046  0  0  0.440726  0  3.967554  0  0  0.13808  0.407972  0  3.944443  0
C  C58  1  0.64301687  0.87533103  0.19625184  1  0  0.423988  0  3.709996  0  0  0.421064  0  3.954067  0  0  0.440723  0  3.967573  0  0  0.138046  0.407968  0  3.944465  0
C  C59  1  0.85698419  0.37533140  0.30374907  1  0  0.423983  0  3.709991  0  0  0.421054  0  3.954061  0  0  0.440711  0  3.967566  0  0  0.138057  0.407959  0  3.944461  0
C  C60  1  0.51656182  0.10666530  0.87344650  1  0  -0.389823  0  3.692878  0  0  -0.415855  0  3.95322  0  0  -0.435193  0  3.9717  0  0  -0.129781  -0.403345  0  3.94094  0
C  C61  1  0.98343883  0.60666472  0.62655213  1  0  -0.389846  0  3.692943  0  0  -0.41588  0  3.953273  0  0  -0.435219  0  3.971751  0  0  -0.129783  -0.403369  0  3.940994  0
C  C62  1  0.48343955  0.89333425  0.12655349  1  0  -0.389829  0  3.692937  0  0  -0.415836  0  3.953279  0  0  -0.435177  0  3.971763  0  0  -0.129768  -0.403325  0  3.940996  0
C  C63  1  0.01656253  0.39333482  0.37344787  1  0  -0.389845  0  3.69293  0  0  -0.415861  0  3.953264  0  0  -0.435204  0  3.971752  0  0  -0.12979  -0.403351  0  3.940985  0
N  N64  1  0.42621116  0.21715305  0.02146286  1  0  -0.557507  0  3.157946  0  0  -0.480913  0  3.441773  0  0  -0.50916  0  3.447791  0  0  -0.363006  -0.461876  0  3.437366  0
N  N65  1  0.07378988  0.71715357  0.47853755  1  0  -0.557552  0  3.157986  0  0  -0.480956  0  3.441818  0  0  -0.509203  0  3.447832  0  0  -0.363004  -0.461917  0  3.437409  0
N  N66  1  0.57378894  0.78284743  0.97853694  1  0  -0.557477  0  3.157926  0  0  -0.480885  0  3.441753  0  0  -0.509132  0  3.44777  0  0  -0.363005  -0.461845  0  3.437338  0
N  N67  1  0.92621148  0.28284691  0.52146327  1  0  -0.557506  0  3.15791  0  0  -0.480887  0  3.441765  0  0  -0.509135  0  3.447784  0  0  -0.363005  -0.46185  0  3.437358  0
N  N68  1  0.23627924  0.19072541  0.83928877  1  0  -0.541143  0  3.154047  0  0  -0.457801  0  3.433713  0  0  -0.487107  0  3.442456  0  0  -0.360232  -0.438018  0  3.427393  0
N  N69  1  0.26372108  0.69072497  0.66071176  1  0  -0.541052  0  3.154054  0  0  -0.45768  0  3.43372  0  0  -0.486988  0  3.442468  0  0  -0.36017  -0.437894  0  3.427394  0
N  N70  1  0.76372212  0.80927506  0.16071206  1  0  -0.541103  0  3.15412  0  0  -0.457779  0  3.433784  0  0  -0.487087  0  3.442527  0  0  -0.36021  -0.437994  0  3.42746  0
N  N71  1  0.73628028  0.30927458  0.33928824  1  0  -0.541122  0  3.154045  0  0  -0.457737  0  3.433722  0  0  -0.48704  0  3.442462  0  0  -0.360196  -0.437953  0  3.427399  0
N  N72  1  0.15864416  0.30224084  0.98468953  1  0  -0.687497  0  3.102978  0  0  -0.648731  0  3.336468  0  0  -0.671166  0  3.332566  0  0  -0.57239  -0.63315  0  3.338938  0
N  N73  1  0.34135602  0.80224132  0.51531178  1  0  -0.687618  0  3.103079  0  0  -0.648852  0  3.336605  0  0  -0.671285  0  3.332702  0  0  -0.572424  -0.633281  0  3.339079  0
N  N74  1  0.84135594  0.69775871  0.01531111  1  0  -0.687504  0  3.103094  0  0  -0.648755  0  3.336579  0  0  -0.67119  0  3.332676  0  0  -0.572412  -0.633185  0  3.33905  0
N  N75  1  0.65864408  0.19775823  0.48468885  1  0  -0.687505  0  3.103042  0  0  -0.64873  0  3.336587  0  0  -0.671164  0  3.332687  0  0  -0.572419  -0.633161  0  3.339058  0
Cl  Cl76  1  0.30386339  0.57260457  0.18917654  1  0  1.382386  0  6.182411  0  0  1.317017  0  6.74517  0  0  1.368899  0  6.723604  0  0  0.730956  1.281362  0  6.75842  0
Cl  Cl77  1  0.19613656  0.07260411  0.31082374  1  0  1.382315  0  6.18236  0  0  1.316945  0  6.74513  0  0  1.368825  0  6.723559  0  0  0.730944  1.281297  0  6.758378  0
Cl  Cl78  1  0.69613670  0.42739498  0.81082409  1  0  1.382345  0  6.182386  0  0  1.316987  0  6.745137  0  0  1.368867  0  6.723573  0  0  0.730982  1.281334  0  6.758386  0
Cl  Cl79  1  0.80386480  0.92739543  0.68917625  1  0  1.382391  0  6.182322  0  0  1.317005  0  6.745117  0  0  1.368888  0  6.723547  0  0  0.730967  1.281356  0  6.758362  0
O  O80  1  0.27037752  0.43802688  0.19926697  1  0  -0.581707  0  1.925279  0  0  -0.541917  0  2.191198  0  0  -0.558603  0  2.174395  0  0  -0.316401  -0.530092  0  2.202392  0
O  O81  1  0.22962070  0.93802642  0.30073380  1  0  -0.581578  0  1.925304  0  0  -0.541835  0  2.191269  0  0  -0.558525  0  2.174471  0  0  -0.316358  -0.530009  0  2.202458  0
O  O82  1  0.72962131  0.56197174  0.80073430  1  0  -0.581679  0  1.925273  0  0  -0.541877  0  2.191155  0  0  -0.558567  0  2.174355  0  0  -0.316415  -0.530055  0  2.202354  0
O  O83  1  0.77037939  0.06197220  0.69926600  1  0  -0.581695  0  1.925274  0  0  -0.541895  0  2.191173  0  0  -0.558588  0  2.174372  0  0  -0.316425  -0.530075  0  2.20237  0
O  O84  1  0.47968847  0.59120204  0.18677474  1  0  -0.497335  0  1.862931  0  0  -0.465711  0  2.096871  0  0  -0.483497  0  2.087905  0  0  -0.289642  -0.453322  0  2.102449  0
O  O85  1  0.02031273  0.09120356  0.31322656  1  0  -0.497266  0  1.862917  0  0  -0.465663  0  2.096863  0  0  -0.483442  0  2.087896  0  0  -0.289604  -0.453273  0  2.102438  0
O  O86  1  0.52031036  0.40879657  0.81322571  1  0  -0.497263  0  1.862979  0  0  -0.465642  0  2.096909  0  0  -0.483422  0  2.087932  0  0  -0.289558  -0.453252  0  2.102486  0
O  O87  1  0.97968989  0.90879691  0.68677445  1  0  -0.497266  0  1.862992  0  0  -0.465642  0  2.096932  0  0  -0.483419  0  2.087954  0  0  -0.289555  -0.45325  0  2.102508  0
O  O88  1  0.26476718  0.63564400  0.28813090  1  0  -0.557742  0  1.915757  0  0  -0.524275  0  2.190402  0  0  -0.54144  0  2.175071  0  0  -0.316631  -0.512032  0  2.2005  0
O  O89  1  0.23523270  0.13564262  0.21187102  1  0  -0.55782  0  1.915724  0  0  -0.524313  0  2.190319  0  0  -0.541486  0  2.17501  0  0  -0.316696  -0.51207  0  2.200416  0
O  O90  1  0.73523165  0.36435741  0.71186955  1  0  -0.557842  0  1.915731  0  0  -0.524343  0  2.190329  0  0  -0.541508  0  2.174998  0  0  -0.316731  -0.512101  0  2.200426  0
O  O91  1  0.76476866  0.86435693  0.78813064  1  0  -0.557817  0  1.915684  0  0  -0.524346  0  2.190322  0  0  -0.541508  0  2.174981  0  0  -0.31671  -0.512102  0  2.200417  0
O  O92  1  0.19339919  0.62023323  0.08509813  1  0  -0.539537  0  1.879858  0  0  -0.500747  0  2.117178  0  0  -0.517372  0  2.104859  0  0  -0.302371  -0.489168  0  2.125168  0
O  O93  1  0.30660197  0.12023175  0.41490316  1  0  -0.539564  0  1.879817  0  0  -0.500751  0  2.117115  0  0  -0.517372  0  2.104794  0  0  -0.302383  -0.489177  0  2.125106  0
O  O94  1  0.80659964  0.37976538  0.91490149  1  0  -0.539512  0  1.87985  0  0  -0.500758  0  2.117196  0  0  -0.517381  0  2.104873  0  0  -0.302376  -0.489177  0  2.125185  0
O  O95  1  0.69340065  0.87976594  0.58509786  1  0  -0.539552  0  1.879826  0  0  -0.500758  0  2.117152  0  0  -0.51738  0  2.104827  0  0  -0.302369  -0.489182  0  2.125142  0
O  O96  1  0.69346751  0.14663600  0.05932912  1  0  -0.267583  0  2.353148  0  0  -0.185469  0  2.596477  0  0  -0.20672  0  2.597416  0  0  -0.167118  -0.170734  0  2.595239  0
O  O97  1  0.80653257  0.64663731  0.44067004  1  0  -0.267576  0  2.353092  0  0  -0.185478  0  2.596416  0  0  -0.20673  0  2.597352  0  0  -0.167098  -0.170762  0  2.595189  0
O  O98  1  0.30653385  0.85336448  0.94067005  1  0  -0.267574  0  2.35303  0  0  -0.185451  0  2.596362  0  0  -0.206702  0  2.5973  0  0  -0.167104  -0.170741  0  2.595137  0
O  O99  1  0.19346752  0.35336410  0.55932977  1  0  -0.267562  0  2.35313  0  0  -0.185451  0  2.596459  0  0  -0.206703  0  2.597397  0  0  -0.167093  -0.170716  0  2.595223  0
