# generated using pymatgen
data_ZnH16C18N2(ClO)2
_symmetry_space_group_name_H-M   'P 1'
_cell_length_a   8.20922696
_cell_length_b   9.57932067
_cell_length_c   12.25904755
_cell_angle_alpha   108.40633132
_cell_angle_beta   94.63214054
_cell_angle_gamma   102.83104132
_symmetry_Int_Tables_number   1
_chemical_formula_structural   ZnH16C18N2(ClO)2
_chemical_formula_sum   'Zn2 H32 C36 N4 Cl4 O4'
_cell_volume   879.93596523
_cell_formula_units_Z   2
loop_
 _symmetry_equiv_pos_site_id
 _symmetry_equiv_pos_as_xyz
  1  'x, y, z'
loop_
 _atom_site_type_symbol
 _atom_site_label
 _atom_site_symmetry_multiplicity
 _atom_site_fract_x
 _atom_site_fract_y
 _atom_site_fract_z
 _atom_site_occupancy
 _atom_site_hle17_bader_spin_density
 _atom_site_hle17_ddec_charge
 _atom_site_hle17_ddec_spin_density
 _atom_site_hle17_ddec_sum_bond_order
 _atom_site_hle17_magmom
 _atom_site_hse06_10hf_bader_spin_density
 _atom_site_hse06_10hf_ddec_charge
 _atom_site_hse06_10hf_ddec_spin_density
 _atom_site_hse06_10hf_ddec_sum_bond_order
 _atom_site_hse06_10hf_magmom
 _atom_site_hse06_bader_spin_density
 _atom_site_hse06_ddec_charge
 _atom_site_hse06_ddec_spin_density
 _atom_site_hse06_ddec_sum_bond_order
 _atom_site_hse06_magmom
 _atom_site_pbe_bader_spin_density
 _atom_site_pbe_cm5_charge
 _atom_site_pbe_ddec_charge
 _atom_site_pbe_ddec_spin_density
 _atom_site_pbe_ddec_sum_bond_order
 _atom_site_pbe_magmom
Zn  Zn0  1  0.94650375  0.09297711  0.17167673  1  0  0.991765  0  1.998128  0  0  0.836444  0  2.488944  0  0  0.880191  0  2.432759  0  0  0.551839  0.805776  0  2.527699  0
Zn  Zn1  1  0.58372705  0.38810432  0.81378993  1  0  0.987031  0  2.016763  0  0  0.830543  0  2.512066  0  0  0.87442  0  2.454402  0  0  0.551179  0.799761  0  2.552212  0
H  H2  1  0.07999392  0.94631838  0.31304425  1  0  0.113739  0  0.983016  0  0  0.119051  0  1.053681  0  0  0.122458  0  1.052856  0  0  0.100157  0.116527  0  1.054735  0
H  H3  1  0.18283517  0.86821783  0.47621146  1  0  0.085836  0  0.970529  0  0  0.099288  0  1.02863  0  0  0.101202  0  1.027584  0  0  0.103678  0.098105  0  1.028925  0
H  H4  1  0.18469100  0.03052794  0.68397069  1  0  0.113117  0  0.965847  0  0  0.119514  0  1.031195  0  0  0.122575  0  1.031421  0  0  0.100136  0.117768  0  1.030242  0
H  H5  1  0.07171854  0.25968777  0.71728616  1  0  0.10162  0  0.947759  0  0  0.109638  0  1.013162  0  0  0.112692  0  1.009875  0  0  0.120132  0.107367  0  1.01544  0
H  H6  1  0.89724264  0.37400151  0.64484598  1  0  0.083889  0  0.976024  0  0  0.094759  0  1.04702  0  0  0.09595  0  1.046171  0  0  0.100429  0.093908  0  1.047549  0
H  H7  1  0.86586769  0.35049421  0.49270562  1  0  0.101396  0  0.94149  0  0  0.111767  0  1.007582  0  0  0.113689  0  1.006796  0  0  0.114268  0.110203  0  1.008279  0
H  H8  1  0.10150042  0.47647064  0.40880999  1  0  0.106741  0  0.952231  0  0  0.11701  0  1.012521  0  0  0.120084  0  1.011473  0  0  0.101903  0.114696  0  1.013456  0
H  H9  1  0.34797943  0.70215713  0.44799548  1  0  0.083413  0  0.954356  0  0  0.096881  0  1.010579  0  0  0.098937  0  1.010719  0  0  0.098388  0.095273  0  1.01069  0
H  H10  1  0.48052878  0.85963756  0.65152775  1  0  0.081488  0  0.994271  0  0  0.093553  0  1.060293  0  0  0.095188  0  1.061068  0  0  0.095006  0.092619  0  1.059072  0
H  H11  1  0.13620015  0.55996503  0.77742026  1  0  0.102595  0  0.955808  0  0  0.113374  0  1.018307  0  0  0.116218  0  1.017104  0  0  0.099613  0.111495  0  1.018771  0
H  H12  1  0.37751860  0.92836969  0.88178835  1  0  0.093164  0  0.930251  0  0  0.105705  0  0.997588  0  0  0.106577  0  0.996631  0  0  0.110004  0.105089  0  0.998164  0
H  H13  1  0.36502080  0.75616055  0.91198120  1  0  0.103661  0  0.912489  0  0  0.117216  0  0.973605  0  0  0.118844  0  0.972043  0  0  0.117709  0.115867  0  0.975148  0
H  H14  1  0.61968313  0.07325288  0.88049653  1  0  0.09286  0  0.971566  0  0  0.097386  0  1.044944  0  0  0.100527  0  1.041617  0  0  0.111743  0.095374  0  1.04725  0
H  H15  1  0.92919896  0.12153851  0.87179159  1  0  0.121078  0  0.958151  0  0  0.128494  0  1.019192  0  0  0.131694  0  1.019326  0  0  0.099742  0.124669  0  1.021986  0
H  H16  1  0.06275352  0.90032806  0.84118830  1  0  0.094181  0  0.939267  0  0  0.107247  0  0.995862  0  0  0.109571  0  0.993817  0  0  0.104531  0.105352  0  0.997345  0
H  H17  1  0.88430120  0.64619999  0.82946940  1  0  0.119202  0  0.991888  0  0  0.124904  0  1.059293  0  0  0.128372  0  1.059003  0  0  0.094378  0.121594  0  1.061051  0
H  H18  1  0.65145029  0.11458819  0.68336702  1  0  0.111099  0  0.992701  0  0  0.116376  0  1.06379  0  0  0.119671  0  1.063171  0  0  0.098118  0.113968  0  1.06465  0
H  H19  1  0.69256403  0.89098940  0.52674362  1  0  0.084745  0  0.962124  0  0  0.098648  0  1.020067  0  0  0.10052  0  1.018947  0  0  0.103935  0.097494  0  1.020339  0
H  H20  1  0.60727150  0.85981432  0.31598906  1  0  0.116832  0  0.972682  0  0  0.123609  0  1.035928  0  0  0.126778  0  1.036048  0  0  0.098865  0.121802  0  1.035007  0
H  H21  1  0.47855779  0.05334193  0.27279619  1  0  0.101087  0  0.944872  0  0  0.10756  0  1.012978  0  0  0.110634  0  1.009505  0  0  0.119641  0.10534  0  1.015219  0
H  H22  1  0.35839922  0.34423089  0.48591858  1  0  0.100776  0  0.943803  0  0  0.109239  0  1.011211  0  0  0.111223  0  1.010231  0  0  0.113688  0.107704  0  1.011956  0
H  H23  1  0.33172807  0.23016318  0.33471533  1  0  0.085632  0  0.966645  0  0  0.095727  0  1.037864  0  0  0.096858  0  1.037032  0  0  0.10249  0.094951  0  1.038302  0
H  H24  1  0.63240586  0.54974664  0.57892502  1  0  0.104055  0  0.957292  0  0  0.114372  0  1.018719  0  0  0.117304  0  1.017934  0  0  0.100706  0.11219  0  1.019379  0
H  H25  1  0.86512460  0.74160251  0.54579039  1  0  0.081817  0  0.958354  0  0  0.094777  0  1.016427  0  0  0.096743  0  1.01672  0  0  0.097178  0.093252  0  1.016379  0
H  H26  1  0.91575707  0.71679666  0.34450362  1  0  0.082828  0  0.988304  0  0  0.094053  0  1.055391  0  0  0.095888  0  1.05572  0  0  0.094749  0.092932  0  1.054548  0
H  H27  1  0.51579625  0.30160011  0.20954030  1  0  0.106462  0  0.948336  0  0  0.116751  0  1.011053  0  0  0.119645  0  1.009712  0  0  0.101061  0.114814  0  1.011619  0
H  H28  1  0.67890316  0.38145596  0.07929887  1  0  0.097829  0  0.943886  0  0  0.105793  0  1.016964  0  0  0.107635  0  1.015023  0  0  0.10789  0.104184  0  1.018811  0
H  H29  1  0.71369558  0.58221163  0.11401964  1  0  0.087537  0  0.936237  0  0  0.101882  0  1.00306  0  0  0.10279  0  1.001957  0  0  0.107261  0.101137  0  1.004001  0
H  H30  1  0.95666262  0.72682210  0.12138122  1  0  0.086747  0  0.977913  0  0  0.091511  0  1.052309  0  0  0.094315  0  1.049642  0  0  0.109121  0.089732  0  1.054004  0
H  H31  1  0.26541933  0.77108098  0.11273117  1  0  0.115008  0  0.970834  0  0  0.12147  0  1.035607  0  0  0.124778  0  1.035256  0  0  0.097207  0.117513  0  1.038872  0
H  H32  1  0.40288195  0.55724562  0.11091614  1  0  0.096605  0  0.933469  0  0  0.109978  0  0.989114  0  0  0.11235  0  0.986864  0  0  0.105816  0.108015  0  0.990801  0
H  H33  1  0.22702665  0.31521439  0.12170602  1  0  0.122317  0  0.992018  0  0  0.127327  0  1.060307  0  0  0.130935  0  1.059761  0  0  0.092751  0.123773  0  1.062623  0
C  C34  1  0.01980476  0.14460856  0.42464140  1  0  0.491506  0  3.838585  0  0  0.450495  0  4.110006  0  0  0.476513  0  4.117288  0  0  0.217756  0.433213  0  4.1046  0
C  C35  1  0.07777975  0.01077318  0.40345786  1  0  -0.257626  0  3.725152  0  0  -0.273322  0  3.984444  0  0  -0.286649  0  4.003102  0  0  -0.105958  -0.264931  0  3.972314  0
C  C36  1  0.13552965  0.96942546  0.49419527  1  0  0.028804  0  3.756  0  0  0.006166  0  4.00923  0  0  0.01577  0  4.024369  0  0  -0.070781  2.8e-05  0  3.998731  0
C  C37  1  0.13555428  0.05751760  0.61024998  1  0  -0.160196  0  3.775731  0  0  -0.176892  0  4.042746  0  0  -0.187791  0  4.064418  0  0  -0.104352  -0.17016  0  4.027661  0
C  C38  1  0.07653633  0.18518964  0.63030346  1  0  0.108395  0  3.641286  0  0  0.06411  0  3.89644  0  0  0.074586  0  3.912271  0  0  0.052709  0.057715  0  3.885438  0
C  C39  1  0.95862300  0.36615054  0.56769761  1  0  -0.058788  0  3.629867  0  0  -0.128398  0  3.878097  0  0  -0.123745  0  3.887138  0  0  -0.061531  -0.130862  0  3.87142  0
C  C40  1  0.10222617  0.50616556  0.59069138  1  0  0.078864  0  3.737357  0  0  0.102397  0  3.976318  0  0  0.101657  0  4.000382  0  0  -0.012038  0.102516  0  3.960038  0
C  C41  1  0.16186099  0.54610881  0.49781739  1  0  -0.113025  0  3.726279  0  0  -0.136771  0  3.974603  0  0  -0.138891  0  3.994811  0  0  -0.090625  -0.135564  0  3.961004  0
C  C42  1  0.29865616  0.67266655  0.52014534  1  0  -0.069184  0  3.81142  0  0  -0.076149  0  4.058745  0  0  -0.078338  0  4.081  0  0  -0.093264  -0.074623  0  4.043283  0
C  C43  1  0.37393227  0.76073438  0.63470544  1  0  -0.123723  0  3.747156  0  0  -0.149127  0  3.994467  0  0  -0.152254  0  4.017552  0  0  -0.097754  -0.146405  0  3.977594  0
C  C44  1  0.31586640  0.72204737  0.72822499  1  0  0.08137  0  3.752084  0  0  0.104045  0  3.990397  0  0  0.103247  0  4.015001  0  0  -0.010563  0.104131  0  3.974032  0
C  C45  1  0.18029584  0.59368417  0.70536095  1  0  -0.151527  0  3.687797  0  0  -0.178106  0  3.926564  0  0  -0.181464  0  3.948102  0  0  -0.086705  -0.17534  0  3.911678  0
C  C46  1  0.40401307  0.81596790  0.85166743  1  0  -0.042256  0  3.621719  0  0  -0.113198  0  3.874325  0  0  -0.107602  0  3.882691  0  0  -0.047865  -0.116953  0  3.869211  0
C  C47  1  0.68576426  0.98353763  0.86765804  1  0  0.09295  0  3.664055  0  0  0.052185  0  3.9181  0  0  0.062103  0  3.934134  0  0  0.046407  0.044745  0  3.908184  0
C  C48  1  0.85577392  0.00773194  0.86225493  1  0  -0.165253  0  3.782734  0  0  -0.183217  0  4.050879  0  0  -0.193763  0  4.072516  0  0  -0.107487  -0.175613  0  4.037414  0
C  C49  1  0.92812958  0.88377472  0.84564659  1  0  0.030205  0  3.761565  0  0  0.007254  0  4.017808  0  0  0.016673  0  4.033004  0  0  -0.068941  0.001965  0  4.00617  0
C  C50  1  0.83091578  0.74289578  0.83831007  1  0  -0.253942  0  3.713487  0  0  -0.269654  0  3.968793  0  0  -0.28348  0  3.988238  0  0  -0.106051  -0.259835  0  3.955948  0
C  C51  1  0.65630150  0.71978429  0.84720491  1  0  0.505526  0  3.81812  0  0  0.463957  0  4.089523  0  0  0.490839  0  4.095071  0  0  0.217475  0.445523  0  4.085585  0
C  C52  1  0.54115713  0.20534153  0.56512069  1  0  0.488053  0  3.836649  0  0  0.447725  0  4.106666  0  0  0.473506  0  4.114276  0  0  0.217006  0.4307  0  4.100832  0
C  C53  1  0.61210079  0.09527409  0.59170940  1  0  -0.259316  0  3.730134  0  0  -0.274765  0  3.988157  0  0  -0.288174  0  4.006988  0  0  -0.106045  -0.26623  0  3.975713  0
C  C54  1  0.63558978  0.97292474  0.50455625  1  0  0.034832  0  3.752677  0  0  0.011435  0  4.007397  0  0  0.021163  0  4.022447  0  0  -0.068342  0.005285  0  3.996943  0
C  C55  1  0.58722116  0.95309079  0.38692671  1  0  -0.158846  0  3.773598  0  0  -0.175836  0  4.038917  0  0  -0.186463  0  4.060125  0  0  -0.104842  -0.169296  0  4.024183  0
C  C56  1  0.51836827  0.05958458  0.36155714  1  0  0.106376  0  3.63841  0  0  0.062651  0  3.89448  0  0  0.073097  0  3.910308  0  0  0.052507  0.056287  0  3.883462  0
C  C57  1  0.42328916  0.29378921  0.41500968  1  0  -0.056847  0  3.630095  0  0  -0.121111  0  3.872899  0  0  -0.116392  0  3.882007  0  0  -0.058413  -0.123671  0  3.86621  0
C  C58  1  0.55886623  0.41482347  0.39627651  1  0  0.075618  0  3.744605  0  0  0.09657  0  3.984704  0  0  0.095757  0  4.008829  0  0  -0.013922  0.096733  0  3.968446  0
C  C59  1  0.65691965  0.53920303  0.49101554  1  0  -0.114583  0  3.729656  0  0  -0.138152  0  3.979335  0  0  -0.140367  0  3.999994  0  0  -0.092666  -0.136865  0  3.965443  0
C  C60  1  0.78600493  0.64665480  0.47199347  1  0  -0.071328  0  3.81465  0  0  -0.078994  0  4.062789  0  0  -0.081457  0  4.085595  0  0  -0.094645  -0.077254  0  4.046868  0
C  C61  1  0.81547684  0.63195163  0.35889720  1  0  -0.120046  0  3.745258  0  0  -0.144554  0  3.992941  0  0  -0.147324  0  4.01551  0  0  -0.095887  -0.14209  0  3.976497  0
C  C62  1  0.71820871  0.50852839  0.26369988  1  0  0.086185  0  3.746567  0  0  0.107979  0  3.985449  0  0  0.107302  0  4.009631  0  0  -0.010501  0.108029  0  3.969381  0
C  C63  1  0.59064116  0.39978070  0.28324808  1  0  -0.149934  0  3.681836  0  0  -0.175861  0  3.920515  0  0  -0.17913  0  3.942002  0  0  -0.085799  -0.173139  0  3.905665  0
C  C64  1  0.75045318  0.49309837  0.14129352  1  0  -0.051937  0  3.644771  0  0  -0.122174  0  3.896206  0  0  -0.117161  0  3.905783  0  0  -0.053546  -0.125557  0  3.890409  0
C  C65  1  0.02546742  0.64249813  0.12469812  1  0  0.093331  0  3.671061  0  0  0.052237  0  3.925871  0  0  0.061684  0  3.94322  0  0  0.0434  0.045417  0  3.914709  0
C  C66  1  0.19520949  0.66408360  0.11894542  1  0  -0.165942  0  3.780978  0  0  -0.183563  0  4.045281  0  0  -0.193953  0  4.066717  0  0  -0.109582  -0.176119  0  4.032005  0
C  C67  1  0.26964384  0.54507035  0.11890790  1  0  0.040122  0  3.741809  0  0  0.017452  0  3.995386  0  0  0.027196  0  4.00992  0  0  -0.066493  0.011786  0  3.984746  0
C  C68  1  0.17397334  0.41094847  0.12542454  1  0  -0.251222  0  3.707062  0  0  -0.267017  0  3.961661  0  0  -0.280768  0  3.980899  0  0  -0.104227  -0.257512  0  3.949542  0
C  C69  1  0.99887492  0.38983542  0.13235461  1  0  0.502293  0  3.801769  0  0  0.461014  0  4.072378  0  0  0.487612  0  4.078544  0  0  0.220178  0.442934  0  4.067973  0
N  N70  1  0.01917200  0.22643290  0.54078180  1  0  -0.130661  0  3.446655  0  0  -0.032573  0  3.654505  0  0  -0.051494  0  3.678296  0  0  -0.223945  -0.020674  0  3.638452  0
N  N71  1  0.58865239  0.84338282  0.85728628  1  0  -0.130992  0  3.482619  0  0  -0.034896  0  3.689217  0  0  -0.053822  0  3.712911  0  0  -0.227622  -0.02242  0  3.673519  0
N  N72  1  0.49560401  0.18113906  0.44752029  1  0  -0.130783  0  3.451643  0  0  -0.033952  0  3.65821  0  0  -0.052866  0  3.682387  0  0  -0.225635  -0.022013  0  3.641866  0
N  N73  1  0.93130780  0.51107905  0.13307087  1  0  -0.129238  0  3.479839  0  0  -0.033267  0  3.687918  0  0  -0.052248  0  3.712031  0  0  -0.228575  -0.020669  0  3.671619  0
Cl  Cl74  1  0.72777837  0.88690252  0.12750954  1  0  -0.577568  0  0.930017  0  0  -0.514131  0  1.194627  0  0  -0.531305  0  1.172799  0  0  -0.307155  -0.501269  0  1.208621  0
Cl  Cl75  1  0.19190173  0.04124214  0.12367302  1  0  -0.583081  0  0.919113  0  0  -0.519851  0  1.184724  0  0  -0.535994  0  1.160838  0  0  -0.295557  -0.507756  0  1.203347  0
Cl  Cl76  1  0.40397563  0.24599852  0.88837704  1  0  -0.581756  0  0.877456  0  0  -0.515584  0  1.133837  0  0  -0.532691  0  1.110166  0  0  -0.313635  -0.502853  0  1.149447  0
Cl  Cl77  1  0.85576305  0.38118919  0.85025548  1  0  -0.572191  0  0.974795  0  0  -0.510179  0  1.248284  0  0  -0.526004  0  1.225639  0  0  -0.281921  -0.498405  0  1.266502  0
O  O78  1  0.97178516  0.19651931  0.34725467  1  0  -0.593585  0  2.112226  0  0  -0.528529  0  2.380209  0  0  -0.55468  0  2.370173  0  0  -0.312513  -0.510492  0  2.386334  0
O  O79  1  0.89694096  0.26990728  0.13666220  1  0  -0.590714  0  2.09718  0  0  -0.519456  0  2.36746  0  0  -0.546492  0  2.356127  0  0  -0.31553  -0.499852  0  2.374214  0
O  O80  1  0.55452490  0.59681279  0.84599132  1  0  -0.593443  0  2.108451  0  0  -0.52394  0  2.379043  0  0  -0.550494  0  2.366508  0  0  -0.316693  -0.504795  0  2.38691  0
O  O81  1  0.51774010  0.32409943  0.63942476  1  0  -0.593045  0  2.114016  0  0  -0.526299  0  2.382034  0  0  -0.552705  0  2.37212  0  0  -0.315143  -0.508033  0  2.388007  0
