# generated using pymatgen
data_CdH20C10N2O5
_symmetry_space_group_name_H-M   'P 1'
_cell_length_a   8.92125477
_cell_length_b   9.80740003
_cell_length_c   9.80862477
_cell_angle_alpha   117.49525209
_cell_angle_beta   96.08581363
_cell_angle_gamma   96.09139935
_symmetry_Int_Tables_number   1
_chemical_formula_structural   CdH20C10N2O5
_chemical_formula_sum   'Cd2 H40 C20 N4 O10'
_cell_volume   745.18562324
_cell_formula_units_Z   2
loop_
 _symmetry_equiv_pos_site_id
 _symmetry_equiv_pos_as_xyz
  1  'x, y, z'
loop_
 _atom_site_type_symbol
 _atom_site_label
 _atom_site_symmetry_multiplicity
 _atom_site_fract_x
 _atom_site_fract_y
 _atom_site_fract_z
 _atom_site_occupancy
 _atom_site_pbe_bader_spin_density
 _atom_site_pbe_cm5_charge
 _atom_site_pbe_ddec_charge
 _atom_site_pbe_ddec_spin_density
 _atom_site_pbe_ddec_sum_bond_order
 _atom_site_pbe_magmom
Cd  Cd0  1  0.61702093  0.73223352  0.22968162  1  0  0.762775  0.869276  0  2.07876  0
Cd  Cd1  1  0.11703870  0.22970412  0.73223366  1  0  0.762797  0.869393  0  2.078825  0
H  H2  1  0.85468391  0.03446341  0.37585568  1  0  0.303096  0.409986  0  0.903416  0
H  H3  1  0.35465462  0.37584981  0.03444757  1  0  0.303084  0.410001  0  0.903366  0
H  H4  1  0.85267306  0.95280304  0.48079459  1  0  0.290822  0.390804  0  0.953128  0
H  H5  1  0.35267629  0.48081968  0.95281833  1  0  0.290805  0.390869  0  0.953146  0
H  H6  1  0.60520021  0.09848895  0.47404227  1  0  0.106337  0.088579  0  1.001933  0
H  H7  1  0.10517963  0.47404530  0.09846416  1  0  0.106359  0.088537  0  1.001874  0
H  H8  1  0.47970250  0.03486484  0.29604555  1  0  0.107134  0.093413  0  0.988617  0
H  H9  1  0.97969804  0.29601032  0.03485092  1  0  0.107047  0.093328  0  0.988623  0
H  H10  1  0.29004864  0.16839605  0.42703868  1  0  0.108029  0.09132  0  0.986135  0
H  H11  1  0.79002044  0.42699471  0.16835292  1  0  0.108106  0.091475  0  0.986139  0
H  H12  1  0.42889276  0.26145010  0.59948741  1  0  0.107129  0.092966  0  0.988793  0
H  H13  1  0.92886322  0.59947294  0.26140260  1  0  0.107161  0.093022  0  0.988936  0
H  H14  1  0.44902699  0.78737712  0.54479254  1  0  0.105924  0.087205  0  0.994483  0
H  H15  1  0.94903099  0.54479849  0.78740681  1  0  0.105997  0.087215  0  0.994321  0
H  H16  1  0.60701465  0.93927371  0.60258806  1  0  0.106843  0.094741  0  1.00053  0
H  H17  1  0.10702409  0.60260767  0.93926974  1  0  0.106827  0.094682  0  1.000392  0
H  H18  1  0.46482255  0.13138146  0.75462591  1  0  0.106168  0.094862  0  0.988011  0
H  H19  1  0.96483650  0.75464871  0.13137125  1  0  0.106187  0.094905  0  0.987866  0
H  H20  1  0.32395000  0.97581819  0.72666117  1  0  0.105533  0.092932  0  1.020519  0
H  H21  1  0.82396944  0.72669397  0.97583935  1  0  0.10556  0.092952  0  1.020513  0
H  H22  1  0.12948853  0.85615001  0.49466082  1  0  0.105939  0.089884  0  0.980882  0
H  H23  1  0.62950968  0.49466786  0.85616693  1  0  0.105858  0.089749  0  0.980819  0
H  H24  1  0.10028684  0.95149673  0.38158721  1  0  0.104147  0.086287  0  1.024421  0
H  H25  1  0.60027048  0.38155772  0.95147961  1  0  0.104177  0.0863  0  1.024412  0
H  H26  1  0.27000387  0.81701047  0.21690650  1  0  0.105126  0.094104  0  0.993374  0
H  H27  1  0.76999110  0.21685542  0.81700200  1  0  0.105098  0.093946  0  0.993256  0
H  H28  1  0.27404199  0.69977830  0.31009133  1  0  0.104295  0.088172  0  0.995143  0
H  H29  1  0.77405694  0.31007690  0.69980943  1  0  0.104263  0.088053  0  0.995152  0
H  H30  1  0.69612489  0.38655960  0.43823144  1  0  0.098207  0.155438  0  0.994979  0
H  H31  1  0.19614297  0.43823011  0.38655561  1  0  0.098209  0.155386  0  0.995097  0
H  H32  1  0.49529140  0.31305968  0.36566187  1  0  0.094692  0.150318  0  1.011153  0
H  H33  1  0.99530045  0.36567199  0.31308268  1  0  0.094803  0.150485  0  1.010916  0
H  H34  1  0.56066987  0.48445382  0.55003372  1  0  0.099227  0.152951  0  0.988199  0
H  H35  1  0.06071023  0.55005906  0.48445885  1  0  0.099245  0.152985  0  0.98831  0
H  H36  1  0.32128757  0.65280383  0.75572696  1  0  0.092591  0.159732  0  1.041454  0
H  H37  1  0.82127907  0.75570234  0.65280981  1  0  0.092616  0.159818  0  1.041409  0
H  H38  1  0.46523684  0.81321349  0.78507033  1  0  0.093138  0.147296  0  1.01823  0
H  H39  1  0.96522394  0.78503812  0.81318725  1  0  0.093155  0.147246  0  1.018223  0
H  H40  1  0.30526357  0.84977812  0.88215790  1  0  0.100425  0.161207  0  0.989948  0
H  H41  1  0.80525496  0.88214027  0.84976860  1  0  0.100453  0.161229  0  0.989908  0
C  C42  1  0.48642174  0.04750751  0.41385005  1  0  -0.076051  -0.10356  0  3.865356  0
C  C43  1  0.98640979  0.41382550  0.04748989  1  0  -0.075994  -0.103231  0  3.86504  0
C  C44  1  0.37156235  0.14719304  0.50400271  1  0  -0.075774  -0.100484  0  3.870699  0
C  C45  1  0.87153697  0.50397640  0.14716290  1  0  -0.075908  -0.100731  0  3.870859  0
C  C46  1  0.48338651  0.90416296  0.55786361  1  0  -0.075077  -0.098248  0  3.849816  0
C  C47  1  0.98339011  0.55787058  0.90417769  1  0  -0.075137  -0.098102  0  3.849735  0
C  C48  1  0.39076751  0.02280721  0.66553424  1  0  -0.075815  -0.098417  0  3.835482  0
C  C49  1  0.89077685  0.66554716  0.02281018  1  0  -0.075858  -0.098491  0  3.835537  0
C  C50  1  0.18852486  0.91931705  0.44231285  1  0  -0.077958  -0.102997  0  3.86497  0
C  C51  1  0.68852418  0.44229372  0.91931751  1  0  -0.078006  -0.1029  0  3.864846  0
C  C52  1  0.29137044  0.82096009  0.33098122  1  0  -0.077118  -0.098187  0  3.854802  0
C  C53  1  0.79137067  0.33095380  0.82097301  1  0  -0.077055  -0.097788  0  3.854408  0
C  C54  1  0.57940985  0.52109432  0.35263500  1  0  0.190585  0.660569  0  4.192967  0
C  C55  1  0.07941998  0.35264318  0.52108843  1  0  0.190417  0.660422  0  4.193115  0
C  C56  1  0.58232798  0.41850784  0.43017178  1  0  -0.244581  -0.513485  0  3.884862  0
C  C57  1  0.08234872  0.43018647  0.41851553  1  0  -0.2447  -0.513616  0  3.88514  0
C  C58  1  0.47550090  0.76472017  0.97708155  1  0  0.193627  0.668188  0  4.165923  0
C  C59  1  0.97549503  0.97707408  0.76470290  1  0  0.193745  0.668393  0  4.165622  0
C  C60  1  0.38683913  0.76879057  0.83974568  1  0  -0.253011  -0.5312  0  3.886116  0
C  C61  1  0.88682993  0.83972844  0.76878115  1  0  -0.253038  -0.531225  0  3.886184  0
N  N62  1  0.45498631  0.88937024  0.39935148  1  0  -0.343188  -0.11887  0  3.444844  0
N  N63  1  0.95498674  0.39933761  0.88937616  1  0  -0.34315  -0.119123  0  3.445227  0
N  N64  1  0.28217252  0.06503646  0.57177867  1  0  -0.341763  -0.115367  0  3.435735  0
N  N65  1  0.78216559  0.57177270  0.06502243  1  0  -0.34164  -0.115417  0  3.43565  0
O  O66  1  0.68484905  0.64138406  0.40841516  1  0  -0.335475  -0.573083  0  2.194114  0
O  O67  1  0.18482137  0.40842092  0.64135194  1  0  -0.335292  -0.572849  0  2.194857  0
O  O68  1  0.82529400  0.93256176  0.37091271  1  0  -0.59115  -0.767397  0  2.081765  0
O  O69  1  0.32529235  0.37092497  0.93256216  1  0  -0.591051  -0.767483  0  2.081787  0
O  O70  1  0.47466488  0.48641829  0.23728930  1  0  -0.346557  -0.620752  0  2.146205  0
O  O71  1  0.97464619  0.23725570  0.48639652  1  0  -0.346514  -0.620802  0  2.145464  0
O  O72  1  0.41572263  0.66862295  0.02118146  1  0  -0.337851  -0.601967  0  2.263247  0
O  O73  1  0.91574777  0.02116135  0.66859980  1  0  -0.337977  -0.602096  0  2.263286  0
O  O74  1  0.60200611  0.85469470  0.04852904  1  0  -0.340502  -0.576306  0  2.092243  0
O  O75  1  0.10200332  0.04855443  0.85468792  1  0  -0.340564  -0.576448  0  2.091905  0
