# generated using pymatgen
data_CaH12C14(NO5)2
_symmetry_space_group_name_H-M   'P 1'
_cell_length_a   7.66506813
_cell_length_b   10.18518854
_cell_length_c   11.17801658
_cell_angle_alpha   81.31198287
_cell_angle_beta   81.77273194
_cell_angle_gamma   89.81431270
_symmetry_Int_Tables_number   1
_chemical_formula_structural   CaH12C14(NO5)2
_chemical_formula_sum   'Ca2 H24 C28 N4 O20'
_cell_volume   853.62729312
_cell_formula_units_Z   2
loop_
 _symmetry_equiv_pos_site_id
 _symmetry_equiv_pos_as_xyz
  1  'x, y, z'
loop_
 _atom_site_type_symbol
 _atom_site_label
 _atom_site_symmetry_multiplicity
 _atom_site_fract_x
 _atom_site_fract_y
 _atom_site_fract_z
 _atom_site_occupancy
 _atom_site_hle17_bader_spin_density
 _atom_site_hle17_ddec_charge
 _atom_site_hle17_ddec_spin_density
 _atom_site_hle17_ddec_sum_bond_order
 _atom_site_hle17_magmom
 _atom_site_hse06_10hf_bader_spin_density
 _atom_site_hse06_10hf_ddec_charge
 _atom_site_hse06_10hf_ddec_spin_density
 _atom_site_hse06_10hf_ddec_sum_bond_order
 _atom_site_hse06_10hf_magmom
 _atom_site_hse06_bader_spin_density
 _atom_site_hse06_ddec_charge
 _atom_site_hse06_ddec_spin_density
 _atom_site_hse06_ddec_sum_bond_order
 _atom_site_hse06_magmom
 _atom_site_pbe_bader_spin_density
 _atom_site_pbe_cm5_charge
 _atom_site_pbe_ddec_charge
 _atom_site_pbe_ddec_spin_density
 _atom_site_pbe_ddec_sum_bond_order
 _atom_site_pbe_magmom
Ca  Ca0  1  0.23996788  0.97276663  0.04405848  1  0  1.551226  0  1.105142  0  0  1.419921  0  1.454731  0  0  1.464437  0  1.409357  0  0  0.885176  1.386371  0  1.48719  0
Ca  Ca1  1  0.76003104  0.02723274  0.95594138  1  0  1.551227  0  1.10514  0  0  1.419929  0  1.454723  0  0  1.464457  0  1.40934  0  0  0.885178  1.386381  0  1.487173  0
H  H2  1  0.98237939  0.69239138  0.79012384  1  0  0.117142  0  0.942044  0  0  0.120176  0  1.00989  0  0  0.124901  0  1.006229  0  0  0.110946  0.116768  0  1.012699  0
H  H3  1  0.01762087  0.30760899  0.20987396  1  0  0.117151  0  0.942005  0  0  0.120155  0  1.009887  0  0  0.124883  0  1.006224  0  0  0.110923  0.11675  0  1.012699  0
H  H4  1  0.92651497  0.60894048  0.60169011  1  0  0.092123  0  0.945987  0  0  0.105669  0  1.001526  0  0  0.10822  0  1.000491  0  0  0.105429  0.103754  0  1.002411  0
H  H5  1  0.07348666  0.39106189  0.39830729  1  0  0.092133  0  0.945963  0  0  0.105679  0  1.001505  0  0  0.10823  0  1.000469  0  0  0.105421  0.103765  0  1.002388  0
H  H6  1  0.04945015  0.73331615  0.39481461  1  0  0.108033  0  0.940021  0  0  0.116773  0  0.999754  0  0  0.120814  0  0.997382  0  0  0.109253  0.113835  0  1.001686  0
H  H7  1  0.95055411  0.26668622  0.60518253  1  0  0.107977  0  0.940104  0  0  0.116753  0  0.999789  0  0  0.120792  0  0.99742  0  0  0.109247  0.113816  0  1.001721  0
H  H8  1  0.22404169  0.94268097  0.38202372  1  0  0.124309  0  0.970314  0  0  0.128696  0  1.038287  0  0  0.133499  0  1.034209  0  0  0.116305  0.125134  0  1.041473  0
H  H9  1  0.77595995  0.05732239  0.61797533  1  0  0.124301  0  0.970331  0  0  0.128689  0  1.038308  0  0  0.133491  0  1.03423  0  0  0.116306  0.125128  0  1.041492  0
H  H10  1  0.38358957  0.68642147  0.78844698  1  0  0.118772  0  0.976986  0  0  0.120722  0  1.047462  0  0  0.12474  0  1.045124  0  0  0.110136  0.117684  0  1.049326  0
H  H11  1  0.61640674  0.31357889  0.21155299  1  0  0.118743  0  0.97698  0  0  0.120693  0  1.047454  0  0  0.12471  0  1.045116  0  0  0.110132  0.117655  0  1.049324  0
H  H12  1  0.57030975  0.67426177  0.58814793  1  0  0.102994  0  0.97598  0  0  0.106836  0  1.044061  0  0  0.111205  0  1.040908  0  0  0.100106  0.10364  0  1.046395  0
H  H13  1  0.42969315  0.32573960  0.41185306  1  0  0.103017  0  0.976027  0  0  0.106864  0  1.044091  0  0  0.111235  0  1.040937  0  0  0.100129  0.103666  0  1.046429  0
H  H14  1  0.68110557  0.45354207  0.54037841  1  0  0.086  0  0.955063  0  0  0.098151  0  1.013078  0  0  0.10017  0  1.01356  0  0  0.101903  0.096721  0  1.012673  0
H  H15  1  0.31889991  0.54645732  0.45962529  1  0  0.085963  0  0.955103  0  0  0.098125  0  1.013114  0  0  0.100155  0  1.013584  0  0  0.1019  0.096692  0  1.012708  0
H  H16  1  0.59507145  0.24861124  0.68815873  1  0  0.105892  0  0.950022  0  0  0.113829  0  1.014488  0  0  0.116949  0  1.013063  0  0  0.112657  0.111558  0  1.015653  0
H  H17  1  0.40493143  0.75138914  0.31184329  1  0  0.105851  0  0.950037  0  0  0.113788  0  1.01451  0  0  0.11691  0  1.013084  0  0  0.112638  0.111515  0  1.015677  0
H  H18  1  0.14158281  0.68739743  0.10529247  1  0  0.413227  0  0.877695  0  0  0.383455  0  0.940841  0  0  0.393509  0  0.925923  0  0  0.299663  0.376306  0  0.951448  0
H  H19  1  0.85841609  0.31260095  0.89470753  1  0  0.413238  0  0.877681  0  0  0.38347  0  0.94082  0  0  0.393524  0  0.925903  0  0  0.299674  0.376323  0  0.951426  0
H  H20  1  0.97223949  0.76984229  0.12788121  1  0  0.435421  0  0.864152  0  0  0.403082  0  0.929701  0  0  0.414701  0  0.912736  0  0  0.298373  0.394822  0  0.941748  0
H  H21  1  0.02776073  0.23015610  0.87211865  1  0  0.435427  0  0.864144  0  0  0.403091  0  0.929688  0  0  0.414709  0  0.912726  0  0  0.298377  0.394833  0  0.941734  0
H  H22  1  0.46169537  0.08922367  0.19880211  1  0  0.446857  0  0.84651  0  0  0.41397  0  0.912573  0  0  0.425101  0  0.896294  0  0  0.308303  0.40603  0  0.924179  0
H  H23  1  0.53830353  0.91077471  0.80119878  1  0  0.446826  0  0.846551  0  0  0.413943  0  0.912608  0  0  0.425074  0  0.89633  0  0  0.308296  0.406001  0  0.924221  0
H  H24  1  0.27598700  0.15153324  0.23220549  1  0  0.424337  0  0.832828  0  0  0.402756  0  0.897433  0  0  0.409808  0  0.88982  0  0  0.320558  0.397685  0  0.902958  0
H  H25  1  0.72401326  0.84846713  0.76779410  1  0  0.42434  0  0.832816  0  0  0.402759  0  0.897424  0  0  0.40981  0  0.889812  0  0  0.320557  0.397686  0  0.902945  0
C  C26  1  0.13190052  0.86479214  0.69393475  1  0  -0.057605  0  3.683498  0  0  -0.044452  0  3.924531  0  0  -0.046068  0  3.941971  0  0  0.009668  -0.043254  0  3.912776  0
C  C27  1  0.86809976  0.13520922  0.30606380  1  0  -0.057735  0  3.683548  0  0  -0.044584  0  3.9246  0  0  -0.046197  0  3.942038  0  0  0.009626  -0.043383  0  3.912853  0
C  C28  1  0.03378435  0.74731178  0.70048090  1  0  -0.092759  0  3.711933  0  0  -0.111865  0  3.964216  0  0  -0.11531  0  3.983461  0  0  -0.078483  -0.109629  0  3.95126  0
C  C29  1  0.96621724  0.25268860  0.29951677  1  0  -0.092722  0  3.711979  0  0  -0.11179  0  3.964234  0  0  -0.115238  0  3.98348  0  0  -0.078444  -0.109561  0  3.951289  0
C  C30  1  0.00445024  0.70003135  0.59392573  1  0  -0.033954  0  3.722679  0  0  -0.054035  0  3.976791  0  0  -0.053265  0  3.996831  0  0  -0.075075  -0.054308  0  3.963085  0
C  C31  1  0.99555007  0.29997101  0.40607180  1  0  -0.033978  0  3.722663  0  0  -0.054069  0  3.976779  0  0  -0.053298  0  3.996819  0  0  -0.075071  -0.054337  0  3.963071  0
C  C32  1  0.07304279  0.76858749  0.47866408  1  0  -0.064565  0  3.732103  0  0  -0.079779  0  3.990023  0  0  -0.083737  0  4.011154  0  0  -0.083422  -0.077213  0  3.975641  0
C  C33  1  0.92695883  0.23141488  0.52133421  1  0  -0.064504  0  3.732084  0  0  -0.079732  0  3.989987  0  0  -0.08369  0  4.011117  0  0  -0.08339  -0.077159  0  3.975594  0
C  C34  1  0.17093003  0.88541993  0.47024173  1  0  -0.087571  0  3.701086  0  0  -0.114721  0  3.963064  0  0  -0.114575  0  3.981914  0  0  -0.074665  -0.114664  0  3.950353  0
C  C35  1  0.82907027  0.11458243  0.52975758  1  0  -0.087602  0  3.701037  0  0  -0.114741  0  3.963048  0  0  -0.114589  0  3.981892  0  0  -0.074677  -0.114681  0  3.950333  0
C  C36  1  0.19793227  0.93207505  0.57754150  1  0  0.056462  0  3.691963  0  0  0.032334  0  3.943751  0  0  0.029205  0  3.966778  0  0  0.078625  0.034308  0  3.928191  0
C  C37  1  0.80207066  0.06792732  0.42245756  1  0  0.056593  0  3.691806  0  0  0.032384  0  3.943711  0  0  0.029252  0  3.966737  0  0  0.078623  0.034355  0  3.928154  0
C  C38  1  0.16547622  0.90779235  0.81192065  1  0  0.692434  0  3.932884  0  0  0.632138  0  4.243695  0  0  0.667782  0  4.23237  0  0  0.226458  0.60771  0  4.250593  0
C  C39  1  0.83452140  0.09220801  0.18807830  1  0  0.69242  0  3.933053  0  0  0.632163  0  4.243794  0  0  0.667806  0  4.23247  0  0  0.226487  0.60773  0  4.250696  0
C  C40  1  0.38244433  0.47494221  0.84471494  1  0  0.059125  0  3.689753  0  0  0.03579  0  3.941058  0  0  0.033149  0  3.963349  0  0  0.07865  0.036961  0  3.926137  0
C  C41  1  0.61755459  0.52505716  0.15528491  1  0  0.059111  0  3.689803  0  0  0.035761  0  3.941125  0  0  0.033121  0  3.963415  0  0  0.078649  0.036928  0  3.926208  0
C  C42  1  0.42731204  0.59133951  0.76270197  1  0  -0.08494  0  3.707854  0  0  -0.111191  0  3.96788  0  0  -0.111427  0  3.987293  0  0  -0.078942  -0.11026  0  3.954285  0
C  C43  1  0.57268687  0.40865986  0.23729878  1  0  -0.08482  0  3.707902  0  0  -0.111061  0  3.967936  0  0  -0.111296  0  3.987348  0  0  -0.078926  -0.110131  0  3.954349  0
C  C44  1  0.53465538  0.58362126  0.65248945  1  0  -0.06793  0  3.740501  0  0  -0.079658  0  3.991956  0  0  -0.083197  0  4.012807  0  0  -0.087119  -0.076753  0  3.9771  0
C  C45  1  0.46534617  0.41637812  0.34751104  1  0  -0.068085  0  3.740621  0  0  -0.079829  0  3.992102  0  0  -0.083371  0  4.012955  0  0  -0.087194  -0.076928  0  3.977251  0
C  C46  1  0.59708243  0.46041477  0.62650666  1  0  -0.047198  0  3.747505  0  0  -0.065137  0  4.000736  0  0  -0.066185  0  4.022405  0  0  -0.077744  -0.064384  0  3.985457  0
C  C47  1  0.40292047  0.53958660  0.37349522  1  0  -0.047103  0  3.747377  0  0  -0.065041  0  4.000604  0  0  -0.066099  0  4.022272  0  0  -0.077701  -0.064285  0  3.985315  0
C  C48  1  0.55047126  0.34510033  0.70920363  1  0  -0.055311  0  3.70854  0  0  -0.080709  0  3.961698  0  0  -0.082431  0  3.981149  0  0  -0.071487  -0.079509  0  3.948737  0
C  C49  1  0.44952901  0.65490104  0.29079761  1  0  -0.05521  0  3.708404  0  0  -0.08062  0  3.961557  0  0  -0.082342  0  3.981015  0  0  -0.071484  -0.079417  0  3.948587  0
C  C50  1  0.44087680  0.34989853  0.81965264  1  0  -0.067983  0  3.689637  0  0  -0.055963  0  3.931227  0  0  -0.058758  0  3.948993  0  0  0.004954  -0.054448  0  3.919773  0
C  C51  1  0.55912345  0.65010184  0.18034785  1  0  -0.068061  0  3.689604  0  0  -0.056021  0  3.931184  0  0  -0.05882  0  3.948957  0  0  0.004976  -0.054502  0  3.919725  0
C  C52  1  0.38156739  0.22050486  0.89811198  1  0  0.692799  0  3.921551  0  0  0.635231  0  4.227426  0  0  0.670533  0  4.216659  0  0  0.22553  0.611226  0  4.234037  0
C  C53  1  0.61843021  0.77949451  0.10188800  1  0  0.692982  0  3.921647  0  0  0.635397  0  4.227529  0  0  0.670705  0  4.216758  0  0  0.225594  0.611386  0  4.234144  0
N  N54  1  0.29099058  0.05975378  0.56597321  1  0  0.468222  0  3.95576  0  0  0.524243  0  4.218472  0  0  0.545507  0  4.226416  0  0  0.057385  0.510016  0  4.212979  0
N  N55  1  0.70901100  0.94024759  0.43402880  1  0  0.468207  0  3.955535  0  0  0.52424  0  4.218286  0  0  0.545503  0  4.226232  0  0  0.057358  0.510009  0  4.212794  0
N  N56  1  0.28244134  0.48889484  0.96360997  1  0  0.484075  0  3.928786  0  0  0.535772  0  4.191622  0  0  0.557769  0  4.197904  0  0  0.06061  0.521285  0  4.187035  0
N  N57  1  0.71755492  0.51110353  0.03639028  1  0  0.483938  0  3.928933  0  0  0.535636  0  4.191789  0  0  0.557635  0  4.19807  0  0  0.060567  0.52115  0  4.187205  0
O  O58  1  0.37313091  0.10661690  0.46445400  1  0  -0.36353  0  1.809691  0  0  -0.356053  0  2.015337  0  0  -0.369474  0  2.01279  0  0  -0.128423  -0.347158  0  2.017363  0
O  O59  1  0.62687332  0.89338448  0.53554596  1  0  -0.363508  0  1.809719  0  0  -0.356037  0  2.015394  0  0  -0.369452  0  2.012844  0  0  -0.128414  -0.347134  0  2.01742  0
O  O60  1  0.27992657  0.11625014  0.65762803  1  0  -0.330587  0  1.785522  0  0  -0.317425  0  1.977374  0  0  -0.32925  0  1.974882  0  0  -0.104373  -0.309572  0  1.979386  0
O  O61  1  0.72007500  0.88375023  0.34237233  1  0  -0.330627  0  1.78536  0  0  -0.317442  0  1.977178  0  0  -0.329267  0  1.974687  0  0  -0.10437  -0.309589  0  1.979191  0
O  O62  1  0.03751798  0.95129380  0.87828559  1  0  -0.707655  0  2.029548  0  0  -0.645625  0  2.283369  0  0  -0.6756  0  2.274589  0  0  -0.365252  -0.623638  0  2.288461  0
O  O63  1  0.96247962  0.04870557  0.12171350  1  0  -0.707599  0  2.029598  0  0  -0.645594  0  2.283411  0  0  -0.675569  0  2.274633  0  0  -0.36523  -0.623602  0  2.288504  0
O  O64  1  0.31635452  0.88821217  0.84534767  1  0  -0.677214  0  2.00558  0  0  -0.618722  0  2.24136  0  0  -0.646774  0  2.231417  0  0  -0.328612  -0.598549  0  2.247582  0
O  O65  1  0.68364441  0.11178819  0.15465384  1  0  -0.677229  0  2.005752  0  0  -0.618748  0  2.241528  0  0  -0.646799  0  2.231584  0  0  -0.328632  -0.598571  0  2.247749  0
O  O66  1  0.18062443  0.58448304  0.96849199  1  0  -0.367428  0  1.791792  0  0  -0.35224  0  1.987078  0  0  -0.365173  0  1.981106  0  0  -0.119033  -0.34382  0  1.991538  0
O  O67  1  0.81937314  0.41551533  0.03150903  1  0  -0.367384  0  1.791778  0  0  -0.352203  0  1.98708  0  0  -0.365137  0  1.98111  0  0  -0.119026  -0.343784  0  1.991544  0
O  O68  1  0.30767000  0.40821987  0.05401590  1  0  -0.34393  0  1.786162  0  0  -0.336249  0  1.985501  0  0  -0.347818  0  1.982078  0  0  -0.114649  -0.328617  0  1.987861  0
O  O69  1  0.69232226  0.59177551  0.94598245  1  0  -0.343838  0  1.786232  0  0  -0.336171  0  1.985581  0  0  -0.34774  0  1.982159  0  0  -0.114632  -0.328536  0  1.987937  0
O  O70  1  0.21785581  0.19724664  0.92996547  1  0  -0.676646  0  2.027572  0  0  -0.619095  0  2.262179  0  0  -0.646993  0  2.252964  0  0  -0.333356  -0.599459  0  2.268072  0
O  O71  1  0.78214179  0.80275273  0.07003452  1  0  -0.676769  0  2.027642  0  0  -0.619213  0  2.262256  0  0  -0.647122  0  2.253039  0  0  -0.333429  -0.599576  0  2.268147  0
O  O72  1  0.49744799  0.13617158  0.92488566  1  0  -0.722337  0  2.008208  0  0  -0.659679  0  2.261612  0  0  -0.689397  0  2.252399  0  0  -0.372751  -0.638202  0  2.267224  0
O  O73  1  0.50254963  0.86382878  0.07511508  1  0  -0.722389  0  2.008307  0  0  -0.65973  0  2.261734  0  0  -0.689449  0  2.25252  0  0  -0.372749  -0.638255  0  2.267349  0
O  O74  1  0.09730052  0.76398304  0.14333452  1  0  -0.870165  0  1.77128  0  0  -0.817855  0  1.939156  0  0  -0.838391  0  1.907875  0  0  -0.618697  -0.803022  0  1.961098  0
O  O75  1  0.90269840  0.23601634  0.85666534  1  0  -0.870182  0  1.771256  0  0  -0.817874  0  1.939124  0  0  -0.838413  0  1.907847  0  0  -0.618705  -0.803042  0  1.961065  0
O  O76  1  0.33246457  0.07350548  0.20500295  1  0  -0.860136  0  1.817504  0  0  -0.809065  0  2.006353  0  0  -0.828153  0  1.979594  0  0  -0.608597  -0.795337  0  2.02539  0
O  O77  1  0.66753437  0.92649488  0.79499676  1  0  -0.860105  0  1.817518  0  0  -0.809046  0  2.006374  0  0  -0.828136  0  1.979615  0  0  -0.608591  -0.795317  0  2.025408  0
