# generated using pymatgen
data_Na2H18C14S2Br2N2Cl2O7
_symmetry_space_group_name_H-M   'P 1'
_cell_length_a   6.33180963
_cell_length_b   6.33242021
_cell_length_c   30.71703111
_cell_angle_alpha   93.61581592
_cell_angle_beta   92.88511067
_cell_angle_gamma   116.65884234
_symmetry_Int_Tables_number   1
_chemical_formula_structural   Na2H18C14S2Br2N2Cl2O7
_chemical_formula_sum   'Na4 H36 C28 S4 Br4 N4 Cl4 O14'
_cell_volume   1094.22339114
_cell_formula_units_Z   2
loop_
 _symmetry_equiv_pos_site_id
 _symmetry_equiv_pos_as_xyz
  1  'x, y, z'
loop_
 _atom_site_type_symbol
 _atom_site_label
 _atom_site_symmetry_multiplicity
 _atom_site_fract_x
 _atom_site_fract_y
 _atom_site_fract_z
 _atom_site_occupancy
 _atom_site_hle17_bader_spin_density
 _atom_site_hle17_ddec_charge
 _atom_site_hle17_ddec_spin_density
 _atom_site_hle17_ddec_sum_bond_order
 _atom_site_hle17_magmom
 _atom_site_hse06_10hf_bader_spin_density
 _atom_site_hse06_10hf_ddec_charge
 _atom_site_hse06_10hf_ddec_spin_density
 _atom_site_hse06_10hf_ddec_sum_bond_order
 _atom_site_hse06_10hf_magmom
 _atom_site_hse06_bader_spin_density
 _atom_site_hse06_ddec_charge
 _atom_site_hse06_ddec_spin_density
 _atom_site_hse06_ddec_sum_bond_order
 _atom_site_hse06_magmom
 _atom_site_pbe_bader_spin_density
 _atom_site_pbe_cm5_charge
 _atom_site_pbe_ddec_charge
 _atom_site_pbe_ddec_spin_density
 _atom_site_pbe_ddec_sum_bond_order
 _atom_site_pbe_magmom
Na  Na0  1  0.46834338  0.92048127  0.26340981  1  0  0.916246  0  0.351197  0  0  0.883392  0  0.489243  0  0  0.892477  0  0.468487  0  0  0.646512  0.87652  0  0.504349  0
Na  Na1  1  0.15704727  0.20516519  0.23668068  1  0  0.916243  0  0.351073  0  0  0.883094  0  0.489518  0  0  0.892101  0  0.468858  0  0  0.646247  0.876201  0  0.504649  0
Na  Na2  1  0.53164262  0.07951325  0.73659002  1  0  0.916252  0  0.351214  0  0  0.883389  0  0.489284  0  0  0.892474  0  0.468513  0  0  0.646517  0.876527  0  0.504393  0
Na  Na3  1  0.84294192  0.79483646  0.76331992  1  0  0.916239  0  0.351057  0  0  0.883097  0  0.489505  0  0  0.892097  0  0.468838  0  0  0.646253  0.876204  0  0.504634  0
H  H4  1  0.41820266  0.05105744  0.47236604  1  0  0.109374  0  0.950845  0  0  0.121108  0  1.011751  0  0  0.124423  0  1.009906  0  0  0.099652  0.118787  0  1.013093  0
H  H5  1  0.07888323  0.94634970  0.02771919  1  0  0.10929  0  0.951104  0  0  0.121088  0  1.011952  0  0  0.124398  0  1.01014  0  0  0.099524  0.118756  0  1.013299  0
H  H6  1  0.58178641  0.94892640  0.52763341  1  0  0.109365  0  0.9509  0  0  0.121125  0  1.011778  0  0  0.124442  0  1.009927  0  0  0.099635  0.118804  0  1.013114  0
H  H7  1  0.92115118  0.05366066  0.97228052  1  0  0.109269  0  0.951063  0  0  0.121029  0  1.01196  0  0  0.124338  0  1.010151  0  0  0.099469  0.118698  0  1.013294  0
H  H8  1  0.95653562  0.38261313  0.46033852  1  0  0.105278  0  0.967163  0  0  0.110483  0  1.03808  0  0  0.114291  0  1.03603  0  0  0.093127  0.107813  0  1.039498  0
H  H9  1  0.42265555  0.49686882  0.03975962  1  0  0.104438  0  0.967016  0  0  0.109601  0  1.03801  0  0  0.113417  0  1.035922  0  0  0.092718  0.106937  0  1.039432  0
H  H10  1  0.04345645  0.61737796  0.53966430  1  0  0.105259  0  0.967179  0  0  0.110438  0  1.038124  0  0  0.114244  0  1.036075  0  0  0.093119  0.107773  0  1.039537  0
H  H11  1  0.57734691  0.50311322  0.96024034  1  0  0.104505  0  0.967096  0  0  0.10962  0  1.038121  0  0  0.113431  0  1.036042  0  0  0.092739  0.106959  0  1.03954  0
H  H12  1  0.84288117  0.21082468  0.38282677  1  0  0.097355  0  0.996133  0  0  0.102242  0  1.066791  0  0  0.105511  0  1.064595  0  0  0.096194  0.099841  0  1.068484  0
H  H13  1  0.32852139  0.46088221  0.11729802  1  0  0.097754  0  0.99598  0  0  0.102678  0  1.066511  0  0  0.106046  0  1.064209  0  0  0.096301  0.100202  0  1.068296  0
H  H14  1  0.15710953  0.78918058  0.61717519  1  0  0.097317  0  0.996234  0  0  0.102187  0  1.066911  0  0  0.105452  0  1.06473  0  0  0.096191  0.099792  0  1.068586  0
H  H15  1  0.67148181  0.53910165  0.88270294  1  0  0.097854  0  0.995955  0  0  0.102684  0  1.066572  0  0  0.106052  0  1.064266  0  0  0.096334  0.100209  0  1.068356  0
H  H16  1  0.46276566  0.82634353  0.41636457  1  0  0.103769  0  0.979419  0  0  0.119502  0  1.051659  0  0  0.121116  0  1.051708  0  0  0.077399  0.118308  0  1.051677  0
H  H17  1  0.91037763  0.04714550  0.08379338  1  0  0.104012  0  0.979363  0  0  0.119811  0  1.051503  0  0  0.12142  0  1.051533  0  0  0.077229  0.118615  0  1.051524  0
H  H18  1  0.53722192  0.17365099  0.58363529  1  0  0.103717  0  0.979411  0  0  0.119429  0  1.051677  0  0  0.121041  0  1.051729  0  0  0.077352  0.118236  0  1.051688  0
H  H19  1  0.08966482  0.95287905  0.91620658  1  0  0.103988  0  0.979298  0  0  0.119757  0  1.051493  0  0  0.12137  0  1.05153  0  0  0.077192  0.118555  0  1.051515  0
H  H20  1  0.42862889  0.89790594  0.36226992  1  0  0.119101  0  0.975494  0  0  0.134659  0  1.047383  0  0  0.137282  0  1.045723  0  0  0.091816  0.13264  0  1.048756  0
H  H21  1  0.03630783  0.06701441  0.13784263  1  0  0.119477  0  0.975383  0  0  0.135098  0  1.047183  0  0  0.137736  0  1.045497  0  0  0.091825  0.133083  0  1.048557  0
H  H22  1  0.57136509  0.10209209  0.63772942  1  0  0.119108  0  0.975506  0  0  0.13469  0  1.047359  0  0  0.137313  0  1.0457  0  0  0.091818  0.132667  0  1.048741  0
H  H23  1  0.96372653  0.93300313  0.86215877  1  0  0.119417  0  0.975524  0  0  0.135094  0  1.047244  0  0  0.137721  0  1.045586  0  0  0.091794  0.133081  0  1.048603  0
H  H24  1  0.19696152  0.65141163  0.38219770  1  0  0.11101  0  0.979914  0  0  0.129043  0  1.048104  0  0  0.130099  0  1.048929  0  0  0.085631  0.128232  0  1.047507  0
H  H25  1  0.76975091  0.81561211  0.11799469  1  0  0.111511  0  0.98012  0  0  0.129553  0  1.048038  0  0  0.130622  0  1.048848  0  0  0.085625  0.128713  0  1.047486  0
H  H26  1  0.80302534  0.34858464  0.61780151  1  0  0.111056  0  0.979908  0  0  0.129083  0  1.04809  0  0  0.130142  0  1.048913  0  0  0.085676  0.128268  0  1.0475  0
H  H27  1  0.23028689  0.18440524  0.88200285  1  0  0.111598  0  0.980168  0  0  0.129649  0  1.048051  0  0  0.130716  0  1.048866  0  0  0.085718  0.128809  0  1.047497  0
H  H28  1  0.74406252  0.79267825  0.19643472  1  0  0.415431  0  0.890089  0  0  0.383392  0  0.957188  0  0  0.393035  0  0.943021  0  0  0.288397  0.376543  0  0.967275  0
H  H29  1  0.09613660  0.54787549  0.30364760  1  0  0.415486  0  0.890221  0  0  0.383036  0  0.957804  0  0  0.392671  0  0.943651  0  0  0.288092  0.376183  0  0.967896  0
H  H30  1  0.25593700  0.20732512  0.80356540  1  0  0.415499  0  0.889994  0  0  0.383471  0  0.957073  0  0  0.393112  0  0.942909  0  0  0.28842  0.376622  0  0.967163  0
H  H31  1  0.90383987  0.45212267  0.69635343  1  0  0.415275  0  0.890516  0  0  0.382849  0  0.958108  0  0  0.392492  0  0.943942  0  0  0.287973  0.375998  0  0.968199  0
H  H32  1  0.69521472  0.00832119  0.18733346  1  0  0.381567  0  0.921749  0  0  0.350854  0  0.998028  0  0  0.359992  0  0.984389  0  0  0.278611  0.344349  0  1.007744  0
H  H33  1  0.32089624  0.50810264  0.31274925  1  0  0.381583  0  0.921559  0  0  0.350829  0  0.998024  0  0  0.359959  0  0.984401  0  0  0.278487  0.344337  0  1.007709  0
H  H34  1  0.30477765  0.99167686  0.81266617  1  0  0.381627  0  0.921765  0  0  0.350891  0  0.998022  0  0  0.360037  0  0.98437  0  0  0.278627  0.344382  0  1.007744  0
H  H35  1  0.67907531  0.49189207  0.68725364  1  0  0.381601  0  0.921623  0  0  0.350837  0  0.99804  0  0  0.359967  0  0.984417  0  0  0.278474  0.344349  0  1.007721  0
H  H36  1  0.68556283  0.44653258  0.27541513  1  0  0.395716  0  0.917933  0  0  0.364048  0  0.984718  0  0  0.373414  0  0.971011  0  0  0.281107  0.357475  0  0.994324  0
H  H37  1  0.67118156  0.41014837  0.22466353  1  0  0.395856  0  0.917643  0  0  0.363858  0  0.984796  0  0  0.373224  0  0.971087  0  0  0.281201  0.357288  0  0.994399  0
H  H38  1  0.31442166  0.55347264  0.72458544  1  0  0.395703  0  0.917964  0  0  0.36405  0  0.984722  0  0  0.373415  0  0.971016  0  0  0.281107  0.357476  0  0.994331  0
H  H39  1  0.32881084  0.58985682  0.77533683  1  0  0.395815  0  0.91769  0  0  0.363823  0  0.984831  0  0  0.373192  0  0.971119  0  0  0.281176  0.357253  0  0.994434  0
C  C40  1  0.06462045  0.03467554  0.38408653  1  0  -0.195324  0  3.689466  0  0  -0.179994  0  3.942627  0  0  -0.187936  0  3.963491  0  0  -0.033146  -0.174964  0  3.928441  0
C  C41  1  0.15080007  0.68109113  0.11602059  1  0  -0.195067  0  3.688693  0  0  -0.179924  0  3.941985  0  0  -0.187861  0  3.962886  0  0  -0.033158  -0.174872  0  3.927706  0
C  C42  1  0.93535698  0.96532787  0.61591294  1  0  -0.195336  0  3.689448  0  0  -0.180052  0  3.942588  0  0  -0.187997  0  3.96346  0  0  -0.033179  -0.175029  0  3.928404  0
C  C43  1  0.84923197  0.31892459  0.88397979  1  0  -0.195078  0  3.688553  0  0  -0.179894  0  3.941589  0  0  -0.187829  0  3.962483  0  0  -0.03315  -0.174848  0  3.92732  0
C  C44  1  0.22994819  0.98684223  0.40887246  1  0  0.177415  0  3.72773  0  0  0.195716  0  3.968197  0  0  0.200535  0  3.989961  0  0  -0.002788  0.192668  0  3.953077  0
C  C45  1  0.07835725  0.82180318  0.09124645  1  0  0.178377  0  3.726972  0  0  0.196793  0  3.967272  0  0  0.201608  0  3.98901  0  0  -0.002512  0.193742  0  3.952182  0
C  C46  1  0.77005144  0.01315750  0.59112567  1  0  0.177499  0  3.727803  0  0  0.195895  0  3.968163  0  0  0.200722  0  3.989917  0  0  -0.00269  0.19284  0  3.953046  0
C  C47  1  0.92165171  0.17819303  0.90875309  1  0  0.178253  0  3.727185  0  0  0.196834  0  3.967245  0  0  0.201659  0  3.98896  0  0  -0.002621  0.193777  0  3.952157  0
C  C48  1  0.29203987  0.08596936  0.45247274  1  0  -0.200625  0  3.719611  0  0  -0.229795  0  3.971241  0  0  -0.235834  0  3.990668  0  0  -0.106172  -0.225917  0  3.95825  0
C  C49  1  0.13354141  0.83999896  0.04761688  1  0  -0.200429  0  3.720722  0  0  -0.229749  0  3.972292  0  0  -0.23577  0  3.991692  0  0  -0.105922  -0.225869  0  3.95929  0
C  C50  1  0.70795009  0.91400547  0.54752403  1  0  -0.200683  0  3.719917  0  0  -0.22993  0  3.971509  0  0  -0.235971  0  3.990935  0  0  -0.106216  -0.226042  0  3.95851  0
C  C51  1  0.86649618  0.16001852  0.95238359  1  0  -0.200316  0  3.720669  0  0  -0.229679  0  3.972144  0  0  -0.235703  0  3.991546  0  0  -0.105796  -0.225785  0  3.959128  0
C  C52  1  0.19210767  0.22329436  0.47092551  1  0  0.15071  0  3.837798  0  0  0.158827  0  4.106197  0  0  0.165318  0  4.12611  0  0  0.008202  0.154325  0  4.093053  0
C  C53  1  0.25252030  0.72170626  0.02916047  1  0  0.149746  0  3.83904  0  0  0.157854  0  4.107355  0  0  0.164336  0  4.12725  0  0  0.007643  0.153357  0  4.094245  0
C  C54  1  0.80788693  0.77669841  0.52907541  1  0  0.150629  0  3.838298  0  0  0.158805  0  4.106603  0  0  0.16529  0  4.126537  0  0  0.008177  0.154294  0  4.093474  0
C  C55  1  0.74749187  0.27829707  0.97083950  1  0  0.149739  0  3.839412  0  0  0.1579  0  4.107677  0  0  0.164381  0  4.127573  0  0  0.007725  0.153393  0  4.094574  0
C  C56  1  0.03244843  0.27297783  0.44612182  1  0  -0.138086  0  3.739169  0  0  -0.160266  0  3.994294  0  0  -0.165661  0  4.013721  0  0  -0.106182  -0.156795  0  3.981222  0
C  C57  1  0.32710926  0.58692212  0.05397154  1  0  -0.136299  0  3.73952  0  0  -0.158308  0  3.994189  0  0  -0.1637  0  4.013712  0  0  -0.105171  -0.154857  0  3.981067  0
C  C58  1  0.96754673  0.72701330  0.55388203  1  0  -0.137902  0  3.73936  0  0  -0.160064  0  3.994433  0  0  -0.165453  0  4.013857  0  0  -0.106071  -0.156601  0  3.981365  0
C  C59  1  0.67290377  0.41307580  0.94602676  1  0  -0.136356  0  3.73984  0  0  -0.158341  0  3.994486  0  0  -0.163735  0  4.014009  0  0  -0.105226  -0.154885  0  3.981361  0
C  C60  1  0.96957213  0.17688213  0.40266923  1  0  -0.039005  0  3.766197  0  0  -0.063191  0  4.023297  0  0  -0.060653  0  4.042134  0  0  -0.088704  -0.064579  0  4.010432  0
C  C61  1  0.27465034  0.56766969  0.09744707  1  0  -0.039917  0  3.767396  0  0  -0.06386  0  4.024025  0  0  -0.06147  0  4.042905  0  0  -0.088982  -0.065157  0  4.011136  0
C  C62  1  0.03042424  0.82311767  0.59733016  1  0  -0.039029  0  3.766179  0  0  -0.063197  0  4.023313  0  0  -0.060663  0  4.042151  0  0  -0.088752  -0.064575  0  4.010445  0
C  C63  1  0.72535076  0.43232295  0.90255133  1  0  -0.040006  0  3.767339  0  0  -0.063892  0  4.024017  0  0  -0.061499  0  4.042894  0  0  -0.089023  -0.06519  0  4.011132  0
C  C64  1  0.33604821  0.83307758  0.39153857  1  0  -0.365271  0  3.738319  0  0  -0.448056  0  3.977353  0  0  -0.451655  0  3.986111  0  0  -0.257253  -0.445274  0  3.971225  0
C  C65  1  0.94200965  0.94522603  0.10859328  1  0  -0.366755  0  3.738359  0  0  -0.449887  0  3.977819  0  0  -0.453508  0  3.986578  0  0  -0.25705  -0.447052  0  3.971653  0
C  C66  1  0.66394091  0.16691697  0.60846196  1  0  -0.365286  0  3.73825  0  0  -0.448083  0  3.977275  0  0  -0.451682  0  3.986032  0  0  -0.257281  -0.445291  0  3.971147  0
C  C67  1  0.05801938  0.05479676  0.89140614  1  0  -0.366802  0  3.738599  0  0  -0.450002  0  3.978031  0  0  -0.453636  0  3.986771  0  0  -0.257077  -0.447179  0  3.971922  0
S  S68  1  0.95869377  0.90936967  0.32858158  1  0  1.205171  0  5.489521  0  0  1.125077  0  5.992049  0  0  1.168092  0  5.977637  0  0  0.525547  1.095445  0  6.000952  0
S  S69  1  0.08082113  0.63048420  0.17151402  1  0  1.205006  0  5.491499  0  0  1.125023  0  5.993785  0  0  1.168045  0  5.979395  0  0  0.525407  1.0954  0  6.002685  0
S  S70  1  0.04129617  0.09063022  0.67141934  1  0  1.204941  0  5.489097  0  0  1.124893  0  5.99162  0  0  1.167914  0  5.977211  0  0  0.525533  1.095289  0  6.000481  0
S  S71  1  0.91918654  0.36952614  0.82848368  1  0  1.20503  0  5.491286  0  0  1.125033  0  5.99359  0  0  1.168062  0  5.979203  0  0  0.525473  1.095418  0  6.00249  0
Br  Br72  1  0.62302275  0.47638012  0.36260670  1  0  0.069581  0  1.428867  0  0  0.096333  0  1.718707  0  0  0.093758  0  1.708988  0  0  0.172514  0.097882  0  1.725412  0
Br  Br73  1  0.61401131  0.26066621  0.13743725  1  0  0.069535  0  1.429302  0  0  0.096181  0  1.71955  0  0  0.093594  0  1.709874  0  0  0.172377  0.097707  0  1.726228  0
Br  Br74  1  0.37697203  0.52362327  0.63739335  1  0  0.069579  0  1.428767  0  0  0.096356  0  1.71862  0  0  0.093787  0  1.708911  0  0  0.172525  0.097908  0  1.72533  0
Br  Br75  1  0.38599854  0.73933888  0.86256238  1  0  0.069566  0  1.429306  0  0  0.096227  0  1.719487  0  0  0.093646  0  1.709819  0  0  0.172408  0.097762  0  1.726166  0
N  N76  1  0.87334766  0.62892709  0.32562232  1  0  -0.633252  0  2.641586  0  0  -0.572617  0  2.918634  0  0  -0.589015  0  2.913719  0  0  -0.38682  -0.561106  0  2.921905  0
N  N77  1  0.80325693  0.54773649  0.17444365  1  0  -0.633311  0  2.643603  0  0  -0.572851  0  2.921189  0  0  -0.589222  0  2.916081  0  0  -0.386714  -0.561288  0  2.924348  0
N  N78  1  0.12663282  0.37107997  0.67437919  1  0  -0.633086  0  2.641158  0  0  -0.572522  0  2.918287  0  0  -0.588939  0  2.913384  0  0  -0.386778  -0.56102  0  2.921557  0
N  N79  1  0.19675374  0.45226679  0.82555532  1  0  -0.633336  0  2.643463  0  0  -0.572859  0  2.921005  0  0  -0.589253  0  2.915915  0  0  -0.386757  -0.5613  0  2.924163  0
Cl  Cl80  1  0.26269146  0.32779313  0.52572397  1  0  -0.096029  0  1.497961  0  0  -0.075976  0  1.754099  0  0  -0.081287  0  1.752126  0  0  0.017847  -0.072005  0  1.755433  0
Cl  Cl81  1  0.30181048  0.73696893  0.97432261  1  0  -0.096091  0  1.496752  0  0  -0.076057  0  1.752678  0  0  -0.081349  0  1.750692  0  0  0.017692  -0.07211  0  1.75403  0
Cl  Cl82  1  0.73730602  0.67218908  0.47427917  1  0  -0.096041  0  1.498113  0  0  -0.076015  0  1.754238  0  0  -0.081325  0  1.752272  0  0  0.01783  -0.072036  0  1.755576  0
Cl  Cl83  1  0.69820575  0.26302895  0.02567508  1  0  -0.096063  0  1.496909  0  0  -0.076038  0  1.752817  0  0  -0.081333  0  1.750828  0  0  0.017687  -0.072081  0  1.754174  0
O  O84  1  0.15915133  0.99401058  0.30122095  1  0  -0.692925  0  1.982832  0  0  -0.651559  0  2.24973  0  0  -0.673159  0  2.237281  0  0  -0.389029  -0.636041  0  2.2575  0
O  O85  1  0.19249812  0.85814418  0.19890597  1  0  -0.693199  0  1.983113  0  0  -0.652061  0  2.250532  0  0  -0.673693  0  2.238112  0  0  -0.38914  -0.63655  0  2.258291  0
O  O86  1  0.84082844  0.00598748  0.69877818  1  0  -0.692929  0  1.982775  0  0  -0.651582  0  2.249686  0  0  -0.673178  0  2.23723  0  0  -0.389064  -0.636076  0  2.257455  0
O  O87  1  0.80750853  0.14185737  0.80109358  1  0  -0.693209  0  1.983046  0  0  -0.652066  0  2.250432  0  0  -0.673696  0  2.238003  0  0  -0.389142  -0.636563  0  2.258196  0
O  O88  1  0.77415287  0.97996699  0.31717053  1  0  -0.674316  0  1.992516  0  0  -0.629577  0  2.253086  0  0  -0.648741  0  2.238808  0  0  -0.377136  -0.615968  0  2.262666  0
O  O89  1  0.16304233  0.45753126  0.18292588  1  0  -0.674333  0  1.992968  0  0  -0.629299  0  2.253195  0  0  -0.648447  0  2.238942  0  0  -0.377181  -0.61572  0  2.262794  0
O  O90  1  0.22583782  0.02003471  0.68283107  1  0  -0.674222  0  1.992488  0  0  -0.629468  0  2.253027  0  0  -0.648631  0  2.238744  0  0  -0.377147  -0.615894  0  2.26265  0
O  O91  1  0.83696588  0.54247746  0.81707506  1  0  -0.674297  0  1.993075  0  0  -0.629294  0  2.253318  0  0  -0.648443  0  2.239071  0  0  -0.377198  -0.615703  0  2.262888  0
O  O92  1  0.74208646  0.93670473  0.21094201  1  0  -0.879762  0  1.828067  0  0  -0.842686  0  2.006795  0  0  -0.856706  0  1.975234  0  0  -0.677009  -0.832732  0  2.029065  0
O  O93  1  0.22570832  0.53140465  0.28914055  1  0  -0.879998  0  1.827568  0  0  -0.84238  0  2.00678  0  0  -0.856442  0  1.975342  0  0  -0.676795  -0.832406  0  2.029034  0
O  O94  1  0.25790508  0.06329514  0.78905860  1  0  -0.879884  0  1.827995  0  0  -0.842838  0  2.006716  0  0  -0.856843  0  1.975111  0  0  -0.677041  -0.832875  0  2.028995  0
O  O95  1  0.77426721  0.46858824  0.71086172  1  0  -0.879822  0  1.827854  0  0  -0.842255  0  2.006901  0  0  -0.856322  0  1.975453  0  0  -0.676656  -0.832278  0  2.029144  0
O  O96  1  0.58539423  0.33534197  0.25004428  1  0  -0.886041  0  1.800621  0  0  -0.841086  0  1.973682  0  0  -0.856411  0  1.943551  0  0  -0.676073  -0.830111  0  1.994539  0
O  O97  1  0.41459268  0.66466142  0.74995533  1  0  -0.886023  0  1.800723  0  0  -0.841056  0  1.97375  0  0  -0.856378  0  1.943612  0  0  -0.676065  -0.830074  0  1.994608  0
