# generated using pymatgen
data_Zn2H22C46N2O18F
_symmetry_space_group_name_H-M   'P 1'
_cell_length_a   16.49802717
_cell_length_b   17.89664759
_cell_length_c   28.98047842
_cell_angle_alpha   90.24560698
_cell_angle_beta   89.70132152
_cell_angle_gamma   89.89761863
_symmetry_Int_Tables_number   1
_chemical_formula_structural   Zn2H22C46N2O18F
_chemical_formula_sum   'Zn4 H44 C92 N4 O36 F2'
_cell_volume   8556.54915472
_cell_formula_units_Z   2
loop_
 _symmetry_equiv_pos_site_id
 _symmetry_equiv_pos_as_xyz
  1  'x, y, z'
loop_
 _atom_site_type_symbol
 _atom_site_label
 _atom_site_symmetry_multiplicity
 _atom_site_fract_x
 _atom_site_fract_y
 _atom_site_fract_z
 _atom_site_occupancy
 _atom_site_pbe_bader_charge
 _atom_site_pbe_bader_spin_density
 _atom_site_pbe_cm5_charge
 _atom_site_pbe_ddec_charge
 _atom_site_pbe_ddec_spin_density
 _atom_site_pbe_ddec_sum_bond_order
 _atom_site_pbe_magmom
Zn  Zn0  1  0.58216748  0.50045653  0.50139082  1  1.285664  0  0.666312  0.807101  0  2.441259  0
Zn  Zn1  1  0.41466217  0.49856714  0.50018311  1  1.282963  0  0.670256  0.811697  0  2.452131  0
Zn  Zn2  1  0.41553658  0.50341037  0.88559089  1  1.286229  0  0.669766  0.81539  0  2.439837  0
Zn  Zn3  1  0.58348315  0.50115370  0.88233911  1  1.271111  0  0.668711  0.80963  0  2.443289  0
H  H4  1  0.28479213  0.57478319  0.55315242  1  0.148368  0  0.143012  0.123019  0  0.950801  0
H  H5  1  0.13274659  0.57890978  0.55461360  1  0.116777  0  0.129774  0.142716  0  0.96168  0
H  H6  1  0.28606759  0.41981458  0.44631475  1  0.184734  0  0.141681  0.123191  0  0.966113  0
H  H7  1  0.70833628  0.58314251  0.55318897  1  0.149992  0  0.139496  0.118511  0  0.978328  0
H  H8  1  0.71476566  0.41447536  0.45481669  1  0.141389  0  0.141609  0.119336  0  0.952006  0
H  H9  1  0.86713994  0.41380624  0.45382055  1  0.109491  0  0.130029  0.144185  0  0.96143  0
H  H10  1  0.62685054  0.74019404  0.50509872  1  0.087807  0  0.113385  0.118696  0  0.985564  0
H  H11  1  0.62397023  0.87942817  0.50246923  1  0.093639  0  0.113304  0.119856  0  0.979725  0
H  H12  1  0.36713094  0.73617347  0.49462574  1  0.136305  0  0.115395  0.126781  0  0.999472  0
H  H13  1  0.63230248  0.26347989  0.49290171  1  0.143166  0  0.113294  0.122986  0  1.005681  0
H  H14  1  0.37205464  0.25872948  0.50005187  1  0.121257  0  0.116283  0.122684  0  0.980639  0
H  H15  1  0.37571632  0.11950303  0.49766080  1  0.099373  0  0.114651  0.12146  0  0.978545  0
H  H16  1  0.68890880  0.55225707  0.73203153  1  0.033027  0  0.09458  0.102436  0  0.985985  0
H  H17  1  0.68711482  0.45251650  0.73244380  1  0.026599  0  0.095257  0.103591  0  0.983907  0
H  H18  1  0.68226584  0.45139154  0.64547807  1  0.044475  0  0.095318  0.105838  0  0.98226  0
H  H19  1  0.68525516  0.55113314  0.64552458  1  0.067421  0  0.095718  0.110676  0  0.991292  0
H  H20  1  0.37498115  0.51019112  0.03371108  1  0.112023  0  0.112521  0.117062  0  0.986697  0
H  H21  1  0.37984284  0.50465560  0.11969595  1  0.086747  0  0.113186  0.120149  0  0.980757  0
H  H22  1  0.63503307  0.49645745  0.02831737  1  0.10867  0  0.116093  0.127264  0  0.998473  0
H  H23  1  0.37071575  0.49096581  0.35495725  1  0.140717  0  0.116649  0.128285  0  0.997547  0
H  H24  1  0.63085000  0.50433394  0.35261252  1  0.107354  0  0.11186  0.11604  0  0.988554  0
H  H25  1  0.62884118  0.50181837  0.26646306  1  0.089047  0  0.112801  0.119402  0  0.978701  0
H  H26  1  0.71493891  0.58370197  0.83471166  1  0.120631  0  0.141236  0.116949  0  0.955784  0
H  H27  1  0.86698497  0.58780483  0.83511161  1  0.110711  0  0.128923  0.142315  0  0.962046  0
H  H28  1  0.71046223  0.42088744  0.93603331  1  0.155685  0  0.141356  0.122677  0  0.967642  0
H  H29  1  0.28900111  0.58846822  0.83534016  1  0.190537  0  0.140368  0.123614  0  0.974054  0
H  H30  1  0.28349215  0.41385567  0.92888524  1  0.151715  0  0.140935  0.118671  0  0.954581  0
H  H31  1  0.13113724  0.41369777  0.93033048  1  0.136371  0  0.129688  0.143597  0  0.961515  0
H  H32  1  0.36850566  0.74565098  0.87819530  1  0.12369  0  0.115384  0.121393  0  0.983053  0
H  H33  1  0.37457499  0.88472432  0.88087464  1  0.081325  0  0.113702  0.119919  0  0.979612  0
H  H34  1  0.62825484  0.73611304  0.88757408  1  0.14434  0  0.114265  0.125388  0  1.002613  0
H  H35  1  0.36575695  0.26518188  0.89351680  1  0.154434  0  0.113959  0.123451  0  1.00409  0
H  H36  1  0.62595568  0.26259910  0.88502491  1  0.111512  0  0.115247  0.120885  0  0.982466  0
H  H37  1  0.62423711  0.12334339  0.88604585  1  0.089148  0  0.114365  0.121286  0  0.977446  0
H  H38  1  0.02840751  0.45158499  0.43501432  1  0.60486  0  0.308326  0.337039  0  0.962517  0
H  H39  1  0.96979463  0.59689770  0.54101133  1  0.603496  0  0.301822  0.33013  0  0.982491  0
H  H40  1  0.38146854  0.97740122  0.48771057  1  0.598932  0  0.293736  0.327028  0  1.000324  0
H  H41  1  0.61968974  0.02187007  0.49129954  1  0.59922  0  0.293256  0.326037  0  1.002072  0
H  H42  1  0.62394998  0.48379523  0.17741992  1  0.605467  0  0.293208  0.325877  0  1.002546  0
H  H43  1  0.38657887  0.48288572  0.20588573  1  0.597338  0  0.293234  0.326188  0  1.001841  0
H  H44  1  0.96825818  0.45128716  0.95076155  1  0.591823  0  0.30889  0.338054  0  0.960919  0
H  H45  1  0.02597346  0.59610309  0.84547165  1  0.593956  0  0.297352  0.32409  0  0.998159  0
H  H46  1  0.61952643  0.97764696  0.89478758  1  0.60194  0  0.294128  0.327363  0  0.99791  0
H  H47  1  0.38165721  0.02381041  0.89333623  1  0.600342  0  0.292813  0.325421  0  1.003584  0
C  C48  1  0.49854098  0.64560936  0.50022436  1  1.58757  0  0.216673  0.591499  0  4.172725  0
C  C49  1  0.49456023  0.50285275  0.59040713  1  1.535442  0  0.217007  0.618415  0  4.165024  0
C  C50  1  0.50039070  0.35363240  0.49888053  1  1.609967  0  0.216625  0.591145  0  4.173347  0
C  C51  1  0.50156007  0.49781352  0.41084282  1  1.612791  0  0.217193  0.592276  0  4.174734  0
C  C52  1  0.49540192  0.64831306  0.88233798  1  1.552972  0  0.217073  0.591628  0  4.174868  0
C  C53  1  0.50395643  0.50211797  0.79441916  1  1.631787  0  0.216876  0.618983  0  4.165764  0
C  C54  1  0.49665677  0.35654728  0.88764013  1  1.534606  0  0.21668  0.592156  0  4.170598  0
C  C55  1  0.50216257  0.50462888  0.97394625  1  1.528151  0  0.216474  0.590895  0  4.175511  0
C  C56  1  0.24864769  0.54168147  0.52923986  1  0.60725  0  0.082077  0.127064  0  3.874329  0
C  C57  1  0.16468456  0.54344294  0.52987779  1  -0.036702  0  -0.055564  -0.147747  0  3.877354  0
C  C58  1  0.12134939  0.49844129  0.49851973  1  0.003892  0  0.024962  0.140808  0  4.090384  0
C  C59  1  0.16533966  0.45206809  0.46748410  1  0.022724  0  0.006412  -0.130268  0  3.89794  0
C  C60  1  0.24995131  0.45449635  0.46964233  1  0.543399  0  0.087696  0.114241  0  3.849989  0
C  C61  1  0.03549757  0.50046408  0.49995603  1  -0.202275  0  -0.007551  -0.079433  0  4.062068  0
C  C62  1  0.96155026  0.50332125  0.50291651  1  -0.185165  0  -0.012416  -0.092085  0  4.070568  0
C  C63  1  0.87569333  0.50329110  0.50458855  1  0.064548  0  0.026393  0.148275  0  4.083127  0
C  C64  1  0.83011537  0.55137226  0.53385611  1  0.056129  0  0.002393  -0.138488  0  3.904179  0
C  C65  1  0.74564350  0.54685135  0.53147220  1  0.56976  0  0.085084  0.112287  0  3.858731  0
C  C66  1  0.74984945  0.45266647  0.47623444  1  0.529773  0  0.079578  0.122005  0  3.886495  0
C  C67  1  0.83384523  0.45268186  0.47588000  1  -0.0073  0  -0.057475  -0.151296  0  3.875944  0
C  C68  1  0.49726534  0.72943608  0.49972926  1  0.028912  0  -0.005879  -0.017558  0  3.943508  0
C  C69  1  0.56961681  0.77019386  0.50222030  1  -0.034894  0  -0.068874  -0.069589  0  3.963728  0
C  C70  1  0.56778483  0.84757607  0.50082136  1  0.002297  0  -0.075198  -0.116838  0  3.934224  0
C  C71  1  0.49338165  0.88648039  0.49727160  1  0.028834  0  0.004937  0.110984  0  4.098727  0
C  C72  1  0.41965735  0.84538076  0.49540645  1  -0.003769  0  -0.008626  -0.100509  0  3.924378  0
C  C73  1  0.42358937  0.76743871  0.49647884  1  -0.016924  0  -0.06182  -0.077614  0  3.914719  0
C  C74  1  0.49669128  0.96548039  0.49582835  1  -0.330989  0  -0.023193  -0.10247  0  4.102059  0
C  C75  1  0.50378478  0.03374315  0.49474882  1  -0.086638  0  -0.024049  -0.104847  0  4.103051  0
C  C76  1  0.50662543  0.11280981  0.49462799  1  0.060029  0  0.005156  0.112586  0  4.097401  0
C  C77  1  0.58020971  0.15416393  0.49302798  1  -0.023242  0  -0.011053  -0.104389  0  3.928625  0
C  C78  1  0.57586513  0.23209658  0.49401784  1  -0.013388  0  -0.06341  -0.07965  0  3.922941  0
C  C79  1  0.50195572  0.26987718  0.49686075  1  -0.069371  0  -0.005753  -0.016414  0  3.94194  0
C  C80  1  0.42959879  0.22893985  0.49803344  1  0.043063  0  -0.065633  -0.065807  0  3.952887  0
C  C81  1  0.43185346  0.15153465  0.49674546  1  -0.027353  0  -0.07357  -0.11542  0  3.928731  0
C  C82  1  0.49942154  0.50476601  0.74298608  1  0.051303  0  -0.017615  -0.160405  0  3.975969  0
C  C83  1  0.49451543  0.50475266  0.64193496  1  0.105024  0  -0.018181  -0.161714  0  3.975332  0
C  C84  1  0.56885396  0.50434670  0.71515518  1  -0.084629  0  -0.009912  0.060727  0  3.91255  0
C  C85  1  0.42399456  0.50674045  0.66958397  1  0.543077  0  0.095647  0.156505  0  4.040248  0
C  C86  1  0.56652207  0.50393472  0.66712566  1  -0.003859  0  -0.009218  0.064479  0  3.911968  0
C  C87  1  0.42629699  0.50660483  0.71804238  1  0.465175  0  0.097303  0.157177  0  4.041901  0
C  C88  1  0.66067453  0.50257101  0.71663459  1  0.030931  0  -0.151251  -0.19119  0  3.885214  0
C  C89  1  0.65796911  0.50202491  0.66207697  1  0.008925  0  -0.152405  -0.195731  0  3.873403  0
C  C90  1  0.50458998  0.50318258  0.02566130  1  0.141601  0  -0.00585  -0.015959  0  3.941205  0
C  C91  1  0.43268143  0.50585678  0.05160775  1  -0.045247  0  -0.06911  -0.070826  0  3.963685  0
C  C92  1  0.43560963  0.50287283  0.09934640  1  -0.00088  0  -0.075185  -0.117187  0  3.932401  0
C  C93  1  0.51074402  0.49784138  0.12245328  1  0.096684  0  0.005487  0.11272  0  4.098283  0
C  C94  1  0.58393964  0.49585325  0.09628610  1  0.002052  0  -0.008362  -0.100189  0  3.924215  0
C  C95  1  0.57892296  0.49833150  0.04823933  1  -0.094315  0  -0.060968  -0.076453  0  3.913457  0
C  C96  1  0.50854639  0.49579092  0.17125163  1  0.128071  0  -0.02399  -0.104823  0  4.106663  0
C  C97  1  0.50166555  0.49516083  0.21342966  1  -0.555599  0  -0.023916  -0.102964  0  4.105172  0
C  C98  1  0.49811068  0.49545064  0.26221749  1  0.085229  0  0.005886  0.113294  0  4.097726  0
C  C99  1  0.42401193  0.49274562  0.28753420  1  0.003128  0  -0.008628  -0.100882  0  3.922108  0
C  C100  1  0.42745504  0.49327883  0.33566657  1  -0.011372  0  -0.060493  -0.075672  0  3.911  0
C  C101  1  0.50103153  0.49713372  0.35911485  1  -0.066195  0  -0.007013  -0.018857  0  3.943345  0
C  C102  1  0.57377701  0.50059433  0.33401940  1  0.042682  0  -0.069538  -0.071382  0  3.969173  0
C  C103  1  0.57245426  0.49937775  0.28621158  1  -0.087734  0  -0.075332  -0.11707  0  3.933219  0
C  C104  1  0.75040355  0.54841070  0.85761916  1  0.563186  0  0.079425  0.122633  0  3.889728  0
C  C105  1  0.83430260  0.55030971  0.85807187  1  -0.028415  0  -0.057589  -0.15088  0  3.88077  0
C  C106  1  0.87667523  0.50275230  0.88824678  1  0.122425  0  0.025777  0.143572  0  4.091179  0
C  C107  1  0.83179651  0.45460684  0.91742549  1  -0.007297  0  0.005785  -0.13191  0  3.898341  0
C  C108  1  0.74729118  0.45706111  0.91424764  1  0.587444  0  0.087562  0.116933  0  3.847722  0
C  C109  1  0.96250901  0.50410055  0.88735090  1  -0.595472  0  -0.008776  -0.085489  0  4.064176  0
C  C110  1  0.03645642  0.50661540  0.88436024  1  0.093157  0  -0.009748  -0.084059  0  4.067977  0
C  C111  1  0.12226067  0.50641146  0.88231434  1  0.096867  0  0.026522  0.146358  0  4.084877  0
C  C112  1  0.16747976  0.55634530  0.85443986  1  0.081514  0  0.00451  -0.134054  0  3.892294  0
C  C113  1  0.25199370  0.55106932  0.85620749  1  0.504693  0  0.087686  0.119848  0  3.840376  0
C  C114  1  0.24823779  0.45348441  0.90869483  1  0.424876  0  0.079068  0.121367  0  3.889514  0
C  C115  1  0.16425793  0.45376626  0.90930537  1  0.078009  0  -0.057718  -0.151922  0  3.880416  0
C  C116  1  0.49801735  0.73211314  0.88293798  1  -0.001194  0  -0.005675  -0.01701  0  3.942403  0
C  C117  1  0.42648261  0.77433220  0.88088469  1  -0.052838  0  -0.067385  -0.069179  0  3.95769  0
C  C118  1  0.43008649  0.85169637  0.88234082  1  -0.011801  0  -0.073832  -0.114068  0  3.927266  0
C  C119  1  0.50532739  0.88907429  0.88568379  1  0.157299  0  0.005022  0.111569  0  4.097919  0
C  C120  1  0.57814231  0.84640870  0.88725282  1  -0.069587  0  -0.009538  -0.102171  0  3.928132  0
C  C121  1  0.57250013  0.76859241  0.88597997  1  0.063638  0  -0.063007  -0.078967  0  3.919386  0
C  C122  1  0.50364860  0.96815772  0.88725002  1  -0.027493  0  -0.024001  -0.104962  0  4.104283  0
C  C123  1  0.49701322  0.03646710  0.88870826  1  -0.501825  0  -0.023485  -0.102876  0  4.101833  0
C  C124  1  0.49344626  0.11553366  0.88959561  1  0.067488  0  0.00581  0.112562  0  4.096717  0
C  C125  1  0.41935270  0.15636191  0.89196811  1  -0.061482  0  -0.009569  -0.101569  0  3.923956  0
C  C126  1  0.42263637  0.23434489  0.89173646  1  0.06178  0  -0.063246  -0.079634  0  3.920323  0
C  C127  1  0.49601859  0.27272317  0.88894022  1  0.019203  0  -0.005195  -0.016979  0  3.941277  0
C  C128  1  0.56884246  0.23231408  0.88699184  1  0.02293  0  -0.066496  -0.065866  0  3.955229  0
C  C129  1  0.56766060  0.15486362  0.88752682  1  -0.021754  0  -0.074187  -0.11646  0  3.931436  0
C  C130  1  0.13040483  0.39781353  0.43298575  1  1.573299  0  0.237373  0.574191  0  4.129094  0
C  C131  1  0.86291863  0.60660129  0.56846583  1  1.560671  0  0.233875  0.571591  0  4.136696  0
C  C132  1  0.33550693  0.87811846  0.49248395  1  1.524059  0  0.225848  0.570985  0  4.125341  0
C  C133  1  0.66460355  0.12183821  0.49036316  1  1.505024  0  0.225031  0.57092  0  4.124804  0
C  C134  1  0.66857843  0.49158206  0.11560246  1  1.545022  0  0.225169  0.568641  0  4.12556  0
C  C135  1  0.33995607  0.48997550  0.26725855  1  1.540492  0  0.226795  0.571011  0  4.123926  0
C  C136  1  0.86581094  0.39840829  0.95081569  1  1.562435  0  0.236149  0.573479  0  4.130122  0
C  C137  1  0.13442729  0.61528572  0.82244206  1  1.545512  0  0.23278  0.56874  0  4.135576  0
C  C138  1  0.66305273  0.87716247  0.89012953  1  1.547462  0  0.225468  0.57192  0  4.124013  0
C  C139  1  0.33541067  0.12336610  0.89487897  1  1.562693  0  0.223693  0.568744  0  4.127674  0
N  N140  1  0.29016550  0.49818100  0.49930965  1  -1.243484  0  -0.30463  -0.177625  0  3.492974  0
N  N141  1  0.70683644  0.49970599  0.50328673  1  -1.249371  0  -0.306126  -0.177379  0  3.494234  0
N  N142  1  0.70800245  0.50240246  0.88529519  1  -1.207641  0  -0.305963  -0.180201  0  3.496819  0
N  N143  1  0.29101568  0.50198279  0.88288555  1  -1.225019  0  -0.305458  -0.17975  0  3.492174  0
O  O144  1  0.56652297  0.61433029  0.50820601  1  -1.164844  0  -0.318131  -0.549663  0  2.314268  0
O  O145  1  0.43186008  0.61253202  0.49241463  1  -1.164368  0  -0.313892  -0.539987  0  2.31134  0
O  O146  1  0.42802030  0.51399315  0.56951688  1  -1.147209  0  -0.316418  -0.547237  0  2.347225  0
O  O147  1  0.56300284  0.49002601  0.57127734  1  -1.150856  0  -0.312643  -0.537277  0  2.299244  0
O  O148  1  0.43228392  0.38456369  0.50698390  1  -1.162184  0  -0.315115  -0.542524  0  2.302902  0
O  O149  1  0.56759597  0.38708963  0.49242985  1  -1.162661  0  -0.316375  -0.548589  0  2.327917  0
O  O150  1  0.56890142  0.51083956  0.43054913  1  -1.163365  0  -0.31846  -0.549624  0  2.3047  0
O  O151  1  0.43415386  0.48517767  0.43088344  1  -1.164353  0  -0.313159  -0.539666  0  2.335936  0
O  O152  1  0.42650392  0.61773222  0.87671595  1  -1.1619  0  -0.315157  -0.545213  0  2.310245  0
O  O153  1  0.56254755  0.61447428  0.88782878  1  -1.165094  0  -0.315096  -0.54539  0  2.328722  0
O  O154  1  0.57394705  0.51227236  0.81190134  1  -1.162111  0  -0.314855  -0.540731  0  2.28846  0
O  O155  1  0.43909898  0.48910631  0.81682078  1  -1.159774  0  -0.317  -0.547011  0  2.348039  0
O  O156  1  0.56407610  0.38760352  0.87814329  1  -1.166746  0  -0.315696  -0.545055  0  2.312712  0
O  O157  1  0.42986644  0.38983923  0.89595366  1  -1.167581  0  -0.314868  -0.546245  0  2.318044  0
O  O158  1  0.43379947  0.51767382  0.95534342  1  -1.157853  0  -0.318778  -0.547782  0  2.307561  0
O  O159  1  0.56862641  0.49221508  0.95282942  1  -1.165614  0  -0.312565  -0.541392  0  2.331966  0
O  O160  1  0.05268130  0.40832790  0.41923224  1  -1.111836  0  -0.333219  -0.453828  0  2.222951  0
O  O161  1  0.17054688  0.34637791  0.41765372  1  -1.085313  0  -0.261797  -0.421262  0  2.030877  0
O  O162  1  0.94245176  0.62485398  0.56593051  1  -1.109564  0  -0.332146  -0.4488  0  2.2308  0
O  O163  1  0.81927457  0.63448975  0.59782961  1  -1.099645  0  -0.266984  -0.433995  0  2.047956  0
O  O164  1  0.32780959  0.95325481  0.48814131  1  -1.110087  0  -0.346063  -0.467476  0  2.23585  0
O  O165  1  0.27511151  0.83904348  0.49386338  1  -1.112454  0  -0.292558  -0.45843  0  2.039097  0
O  O166  1  0.67311771  0.04641505  0.48996181  1  -1.093219  0  -0.346538  -0.467027  0  2.236324  0
O  O167  1  0.72457913  0.16147723  0.48860242  1  -1.119334  0  -0.294597  -0.461198  0  2.039235  0
O  O168  1  0.67729669  0.48475254  0.16194994  1  -1.143801  0  -0.347108  -0.467959  0  2.237334  0
O  O169  1  0.72844043  0.49396640  0.09084712  1  -1.105234  0  -0.288933  -0.453585  0  2.040287  0
O  O170  1  0.33269737  0.48410457  0.22074328  1  -1.120466  0  -0.347771  -0.469934  0  2.235855  0
O  O171  1  0.27935277  0.49275964  0.29141403  1  -1.11108  0  -0.289165  -0.453614  0  2.04019  0
O  O172  1  0.94331113  0.40747720  0.96525547  1  -1.097852  0  -0.331446  -0.451553  0  2.221902  0
O  O173  1  0.82506528  0.34658370  0.96465298  1  -1.084996  0  -0.261752  -0.422012  0  2.032144  0
O  O174  1  0.05350600  0.62861215  0.82304395  1  -1.097391  0  -0.336656  -0.452982  0  2.23423  0
O  O175  1  0.17887118  0.65034370  0.79695601  1  -1.087823  0  -0.265238  -0.425619  0  2.03941  0
O  O176  1  0.67256739  0.95218165  0.89436104  1  -1.137369  0  -0.346025  -0.467134  0  2.233424  0
O  O177  1  0.72251709  0.83665630  0.88880336  1  -1.108269  0  -0.293236  -0.460011  0  2.03929  0
O  O178  1  0.32790557  0.04789193  0.89508666  1  -1.147388  0  -0.346543  -0.466918  0  2.237363  0
O  O179  1  0.27494514  0.16252499  0.89709084  1  -1.122488  0  -0.293044  -0.459414  0  2.041727  0
F  F180  1  0.34913595  0.50802555  0.65059963  1  -0.612387  0  -0.103129  -0.123539  0  1.382839  0
F  F181  1  0.35348697  0.50888412  0.73973823  1  -0.613753  0  -0.099286  -0.11615  0  1.387347  0
