# generated using pymatgen
data_CoH19C22N5O4
_symmetry_space_group_name_H-M   'P 1'
_cell_length_a   10.07193068
_cell_length_b   11.36954384
_cell_length_c   11.44064077
_cell_angle_alpha   114.01302978
_cell_angle_beta   98.80449972
_cell_angle_gamma   113.60264618
_symmetry_Int_Tables_number   1
_chemical_formula_structural   CoH19C22N5O4
_chemical_formula_sum   'Co2 H38 C44 N10 O8'
_cell_volume   1015.45836310
_cell_formula_units_Z   2
loop_
 _symmetry_equiv_pos_site_id
 _symmetry_equiv_pos_as_xyz
  1  'x, y, z'
loop_
 _atom_site_type_symbol
 _atom_site_label
 _atom_site_symmetry_multiplicity
 _atom_site_fract_x
 _atom_site_fract_y
 _atom_site_fract_z
 _atom_site_occupancy
 _atom_site_hle17_ddec_charge
 _atom_site_hle17_ddec_spin_density
 _atom_site_hle17_ddec_sum_bond_order
 _atom_site_hle17_magmom
 _atom_site_hse06_10hf_ddec_charge
 _atom_site_hse06_10hf_ddec_spin_density
 _atom_site_hse06_10hf_ddec_sum_bond_order
 _atom_site_hse06_10hf_magmom
 _atom_site_hse06_ddec_charge
 _atom_site_hse06_ddec_spin_density
 _atom_site_hse06_ddec_sum_bond_order
 _atom_site_hse06_magmom
 _atom_site_pbe_cm5_charge
 _atom_site_pbe_ddec_charge
 _atom_site_pbe_ddec_spin_density
 _atom_site_pbe_ddec_sum_bond_order
 _atom_site_pbe_magmom
Co  Co0  1  0.84419069  0.53680961  0.40647940  1  0.973195  2.998041  2.030215  2.584  0.933344  2.910642  2.443115  2.644  1.01311  2.939639  2.369103  2.72  0.667872  0.862723  2.883625  2.513231  2.574
Co  Co1  1  0.15580834  0.46319039  0.59351752  1  0.973105  -2.998043  2.030167  -2.584  0.933273  -2.910667  2.443059  -2.644  1.013011  -2.939644  2.36904  -2.72  0.667841  0.862636  -2.883635  2.513159  -2.574
H  H2  1  0.10375701  0.58602304  0.14661898  1  0.101484  0.000173  0.980011  0.0  0.111845  6.3e-05  1.045908  0.0  0.115478  1.5e-05  1.043539  0.0  0.100807  0.109204  0.000122  1.047492  0.0
H  H3  1  0.89624700  0.41398262  0.85338349  1  0.101481  -0.000174  0.979992  0.0  0.111838  -6.3e-05  1.04589  0.0  0.115468  -1.6e-05  1.043525  0.0  0.100814  0.109199  -0.000122  1.04748  0.0
H  H4  1  0.53029653  0.60499941  0.10659412  1  0.104585  0.000244  0.961499  0.0  0.113571  0.000187  1.02883  0.0  0.117649  0.000108  1.025716  0.0  0.10165  0.110552  0.000256  1.031146  0.0
H  H5  1  0.46970395  0.39499952  0.89340431  1  0.104594  -0.000244  0.961476  0.0  0.113579  -0.000187  1.028811  0.0  0.117656  -0.000109  1.025698  0.0  0.10164  0.110555  -0.000256  1.031132  0.0
H  H6  1  0.37679136  0.51062280  0.40586366  1  0.128321  0.000309  0.963529  0.0  0.133918  0.00027  1.033121  0.0  0.139399  0.000222  1.028245  0.0  0.108485  0.129665  0.000327  1.037129  0.0
H  H7  1  0.62321046  0.48938060  0.59413762  1  0.128303  -0.000308  0.963536  0.0  0.133903  -0.00027  1.033127  0.0  0.139388  -0.000224  1.028245  0.0  0.108483  0.129651  -0.000327  1.037137  0.0
H  H8  1  0.57327749  0.28705645  0.39514566  1  0.086192  0.000406  0.950673  0.001  0.094122  0.000194  1.01483  0.001  0.096923  0.000118  1.012401  0.001  0.118404  0.091568  0.000282  1.017532  0.001
H  H9  1  0.42672071  0.71294578  0.60485379  1  0.086196  -0.000407  0.950629  -0.001  0.094127  -0.000194  1.014795  -0.001  0.096926  -0.000118  1.012368  -0.001  0.118414  0.091573  -0.000282  1.01749  -0.001
H  H10  1  0.43436097  0.00740431  0.28356541  1  0.104434  0.000142  0.931511  0.0  0.11972  0.000307  0.979164  0.0  0.122708  0.000212  0.979096  0.0  0.108982  0.117476  0.000361  0.979422  0.0
H  H11  1  0.56563868  0.99259685  0.71643643  1  0.104439  -0.000141  0.931508  0.0  0.119732  -0.000307  0.979148  0.0  0.122719  -0.000213  0.97908  0.0  0.108975  0.117483  -0.000361  0.979403  0.0
H  H12  1  0.50685356  0.86186421  0.10378655  1  0.094069  0.000208  0.990268  0.001  0.101742  -5.8e-05  1.058366  0.0  0.104772  -3.6e-05  1.056357  0.0  0.100813  0.099187  -7.2e-05  1.060409  0.0
H  H13  1  0.49314972  0.13813812  0.89621712  1  0.094026  -0.000209  0.990245  -0.001  0.101688  5.8e-05  1.058387  0.0  0.104729  3.6e-05  1.056349  0.0  0.100778  0.099128  7.2e-05  1.060429  0.0
H  H14  1  0.85552034  0.28162250  0.16711166  1  0.079298  0.00053  0.971991  0.001  0.082128  0.000311  1.046105  0.001  0.08566  0.000213  1.041564  0.001  0.116394  0.079187  0.000407  1.050067  0.001
H  H15  1  0.14447988  0.71837977  0.83288895  1  0.079256  -0.00053  0.972006  -0.001  0.082105  -0.000311  1.046096  -0.001  0.085636  -0.000214  1.041553  -0.001  0.11638  0.079164  -0.000407  1.050062  -0.001
H  H16  1  0.54916155  0.75462122  0.88971744  1  0.127375  9.6e-05  0.949627  0.0  0.150418  0.000106  1.008093  0.0  0.151108  9.4e-05  1.009369  0.0  0.099319  0.149761  0.000122  1.007515  0.0
H  H17  1  0.45083692  0.24537769  0.11028247  1  0.127397  -9.6e-05  0.949622  0.0  0.150437  -0.000106  1.008083  0.0  0.151121  -9.3e-05  1.009377  0.0  0.099336  0.149783  -0.000122  1.007502  0.0
H  H18  1  0.68519606  0.79253955  0.03644679  1  0.110627  4.1e-05  0.962487  0.0  0.132806  2.8e-05  1.026168  0.0  0.133393  1.6e-05  1.026944  0.0  0.090698  0.132247  4.7e-05  1.026012  0.0
H  H19  1  0.31480258  0.20746160  0.96355491  1  0.11062  -4.1e-05  0.96251  0.0  0.132796  -2.8e-05  1.026189  0.0  0.133382  -1.5e-05  1.026966  0.0  0.090685  0.132237  -4.7e-05  1.02603  0.0
H  H20  1  0.73543162  0.78064110  0.88942638  1  0.13446  3.4e-05  0.957301  0.0  0.148329  5e-05  1.025077  0.0  0.151363  3.5e-05  1.023088  0.0  0.09829  0.146043  5.7e-05  1.026717  0.0
H  H21  1  0.26456760  0.21936117  0.11057585  1  0.134471  -3.4e-05  0.957265  0.0  0.148305  -5e-05  1.025077  0.0  0.151339  -3.6e-05  1.023087  0.0  0.098269  0.146019  -5.7e-05  1.026713  0.0
H  H22  1  0.90207095  0.24488873  0.90690273  1  0.120136  -2e-06  0.974919  0.0  0.135791  9e-06  1.045491  0.0  0.138211  7e-06  1.043561  0.0  0.095935  0.134086  2.6e-05  1.046756  0.0
H  H23  1  0.09793201  0.75510915  0.09309910  1  0.120131  2e-06  0.974942  0.0  0.135766  -9e-06  1.045528  0.0  0.138186  -8e-06  1.043599  0.0  0.095923  0.134065  -2.6e-05  1.046795  0.0
H  H24  1  0.01795496  0.26414673  0.80360102  1  0.125855  4.3e-05  0.95855  0.0  0.145722  6.6e-05  1.020339  0.0  0.147831  6.9e-05  1.018925  0.0  0.095355  0.144051  6.9e-05  1.02152  0.0
H  H25  1  0.98204597  0.73585112  0.19640053  1  0.125886  -4.3e-05  0.958563  0.0  0.145777  -6.6e-05  1.020317  0.0  0.147886  -6.8e-05  1.018903  0.0  0.095363  0.144106  -6.9e-05  1.02149  0.0
H  H26  1  0.10146245  0.30492037  0.97341480  1  0.129361  -4.9e-05  0.954804  0.0  0.153971  -2.3e-05  1.011213  0.0  0.153991  -1.3e-05  1.013531  0.0  0.099409  0.153612  -3e-05  1.010043  0.0
H  H27  1  0.89854009  0.69507862  0.02658830  1  0.129415  4.8e-05  0.954805  0.0  0.15401  2.3e-05  1.011226  0.0  0.154032  1.3e-05  1.013542  0.0  0.099428  0.153652  3e-05  1.010051  0.0
H  H28  1  0.83339355  0.77036120  0.64840429  1  0.097551  0.000589  0.935254  0.002  0.100093  0.000366  1.006789  0.001  0.10431  0.00027  1.001782  0.001  0.122106  0.096865  0.000454  1.01054  0.001
H  H29  1  0.16660416  0.22963435  0.35159330  1  0.097579  -0.000589  0.935274  -0.002  0.100092  -0.000366  1.006817  -0.001  0.104314  -0.000271  1.001803  -0.001  0.122101  0.096842  -0.000454  1.010589  -0.001
H  H30  1  0.12566188  0.80165901  0.43073721  1  0.082662  0.00037  0.955562  0.001  0.091619  0.000188  1.017342  0.001  0.094304  9.2e-05  1.01519  0.001  0.11547  0.089439  0.000271  1.019082  0.001
H  H31  1  0.87433278  0.19833649  0.56925820  1  0.08268  -0.00037  0.955543  -0.001  0.091648  -0.000188  1.017313  -0.001  0.094329  -9.4e-05  1.015167  -0.001  0.115481  0.089475  -0.000271  1.019052  -0.001
H  H32  1  0.27289861  0.08343032  0.57167832  1  0.102526  0.000186  0.938229  0.0  0.116017  0.000343  0.989476  0.0  0.118827  0.00024  0.989716  0.0  0.108083  0.113793  0.000426  0.989669  0.0
H  H33  1  0.72709969  0.91656634  0.42831892  1  0.102549  -0.000186  0.938184  0.0  0.116022  -0.000343  0.989458  0.0  0.118833  -0.000242  0.989696  0.0  0.108066  0.113799  -0.000426  0.989645  0.0
H  H34  1  0.18706255  0.21018731  0.75101701  1  0.104133  0.000218  0.96898  0.001  0.114068  -4.4e-05  1.033173  0.0  0.117538  1.5e-05  1.030499  0.0  0.106042  0.111082  -0.000105  1.035655  0.0
H  H35  1  0.81293576  0.78980937  0.24898199  1  0.104134  -0.000218  0.968972  -0.001  0.114086  4.4e-05  1.033149  0.0  0.117555  -1.4e-05  1.030475  0.0  0.106029  0.111098  0.000105  1.035624  0.0
H  H36  1  0.17967334  0.60715219  0.96540126  1  0.296043  3.5e-05  0.909788  0.0  0.288892  3.8e-05  0.966952  0.0  0.293735  4.5e-05  0.963868  0.0  0.295899  0.285505  2.7e-05  0.968991  0.0
H  H37  1  0.82032849  0.39285123  0.03460177  1  0.296011  -3.5e-05  0.909875  0.0  0.288883  -3.8e-05  0.967005  0.0  0.293726  -4.6e-05  0.963923  0.0  0.295901  0.285492  -2.7e-05  0.969043  0.0
H  H38  1  0.31632250  0.57120583  0.92301702  1  0.320842  0.000165  0.94309  0.0  0.306975  9.9e-05  1.006308  0.0  0.314282  0.000109  1.000589  0.0  0.28879  0.301543  7e-05  1.010571  0.0
H  H39  1  0.68367814  0.42879533  0.07698232  1  0.320829  -0.000165  0.943072  0.0  0.30696  -9.9e-05  1.006299  0.0  0.314266  -0.00011  1.000584  0.0  0.28878  0.301529  -7e-05  1.010549  0.0
C  C40  1  0.10930318  0.52223602  0.34649200  1  0.65151  -0.001912  3.863859  -0.004  0.610557  -0.002007  4.158042  -0.005  0.652391  -0.001951  4.147302  -0.005  0.219246  0.578564  -0.001966  4.164004  -0.004
C  C41  1  0.89069876  0.47776184  0.65350970  1  0.651474  0.001911  3.864038  0.004  0.610532  0.002006  4.158189  0.005  0.652366  0.001938  4.147449  0.005  0.219224  0.578539  0.001966  4.164162  0.004
C  C42  1  0.22932334  0.54853082  0.28334667  1  -0.054345  0.002465  3.818485  0.003  -0.031282  0.000844  4.053537  0.001  -0.038931  0.000721  4.07449  0.001  -0.024863  -0.026576  0.000622  4.041199  0.001
C  C43  1  0.77067889  0.45147145  0.71665158  1  -0.054351  -0.002464  3.818508  -0.003  -0.031265  -0.000842  4.053515  -0.001  -0.038928  -0.00072  4.074486  -0.001  -0.024872  -0.026563  -0.000622  4.041191  -0.001
C  C44  1  0.20743210  0.58019496  0.17843241  1  -0.1978  -0.004249  3.711509  -0.005  -0.226496  -0.00161  3.954349  -0.002  -0.227726  -0.000825  3.972012  -0.001  -0.100231  -0.223988  -0.001755  3.941394  -0.002
C  C45  1  0.79256855  0.41980619  0.82156781  1  -0.197799  0.004247  3.711409  0.005  -0.226496  0.00161  3.954248  0.002  -0.227722  0.000834  3.971921  0.001  -0.100219  -0.223988  0.001754  3.941302  0.002
C  C46  1  0.31248694  0.59776349  0.11038450  1  0.302409  0.001472  3.869218  0.002  0.303932  0.000253  4.117138  0.001  0.311359  0.000259  4.137733  0.0  0.092685  0.298259  9.8e-05  4.10282  0.0
C  C47  1  0.68751690  0.40223993  0.88961618  1  0.302488  -0.001471  3.86915  -0.002  0.304001  -0.000253  4.117082  -0.001  0.311429  -0.000265  4.137678  0.0  0.092718  0.298326  -9.7e-05  4.102764  0.0
C  C48  1  0.44506461  0.58977031  0.15560130  1  -0.185459  -0.00342  3.67091  -0.004  -0.216635  -0.000892  3.919296  -0.001  -0.217809  -0.000479  3.935969  0.0  -0.096468  -0.214475  -0.000552  3.907674  -0.001
C  C49  1  0.55493747  0.41022975  0.84439867  1  -0.18548  0.003418  3.670876  0.004  -0.216649  0.00089  3.919265  0.001  -0.217828  0.000477  3.935953  0.0  -0.096479  -0.214484  0.00055  3.907638  0.001
C  C50  1  0.46817231  0.56051603  0.26227548  1  -0.047677  0.003568  3.812237  0.005  -0.0196  0.001541  4.042943  0.002  -0.025244  0.000962  4.063609  0.001  -0.022675  -0.016535  0.00193  4.030394  0.003
C  C51  1  0.53183095  0.43948627  0.73772467  1  -0.047749  -0.003568  3.812266  -0.005  -0.019673  -0.001541  4.042998  -0.002  -0.025319  -0.00096  4.063667  -0.001  -0.022663  -0.016612  -0.00193  4.030463  -0.003
C  C52  1  0.35968065  0.53773014  0.32588898  1  -0.109273  -0.000955  3.697001  -0.001  -0.148752  0.000155  3.946684  0.0  -0.1474  -0.000128  3.963249  0.0  -0.093992  -0.151239  -0.000321  3.938269  0.0
C  C53  1  0.64032000  0.46227102  0.67411125  1  -0.109195  0.000953  3.697012  0.001  -0.14869  -0.000156  3.946696  0.0  -0.147325  0.000127  3.963257  0.0  -0.093985  -0.15118  0.00032  3.938294  0.0
C  C54  1  0.60808465  0.55059000  0.30768368  1  0.610793  -0.007081  3.911836  -0.012  0.564995  -0.002215  4.210149  -0.005  0.600757  -0.001398  4.206976  -0.003  0.198043  0.539409  -0.003155  4.209248  -0.007
C  C55  1  0.39191642  0.44941005  0.69231616  1  0.610812  0.007079  3.911789  0.012  0.564996  0.002216  4.210126  0.005  0.600763  0.001382  4.206944  0.003  0.197991  0.539411  0.003154  4.209231  0.007
C  C56  1  0.60487612  0.21988087  0.31867788  1  0.122016  -0.010101  3.687162  -0.014  0.093811  -0.003031  3.942692  -0.004  0.101979  -0.002698  3.95915  -0.004  0.042248  0.086651  -0.003599  3.93285  -0.005
C  C57  1  0.39512309  0.78012138  0.68132171  1  0.122021  0.010107  3.687193  0.014  0.09381  0.003031  3.942723  0.004  0.101974  0.002694  3.959188  0.004  0.042222  0.086658  0.003598  3.932863  0.005
C  C58  1  0.52858144  0.06487521  0.25613452  1  -0.116163  0.008538  3.751609  0.011  -0.127867  0.002295  4.003039  0.003  -0.135581  0.00214  4.023913  0.003  -0.08584  -0.122636  0.002477  3.990009  0.004
C  C59  1  0.47142141  0.93512822  0.74386866  1  -0.116224  -0.008544  3.75167  -0.011  -0.127938  -0.002295  4.003121  -0.003  -0.135652  -0.002137  4.023999  -0.003  -0.085841  -0.122708  -0.002476  3.99008  -0.004
C  C60  1  0.57112420  0.98397084  0.15634188  1  -0.036953  -0.010642  3.689744  -0.013  -0.063558  -0.003609  3.93764  -0.004  -0.058577  -0.002765  3.955472  -0.003  -0.068489  -0.067494  -0.004972  3.926914  -0.006
C  C61  1  0.42887604  0.01603144  0.84366049  1  -0.036822  0.010647  3.689676  0.013  -0.063462  0.003609  3.937556  0.004  -0.058476  0.00276  3.955389  0.003  -0.068447  -0.067393  0.00497  3.926822  0.006
C  C62  1  0.69032044  0.06133935  0.12114717  1  -0.053523  0.007797  3.738252  0.011  -0.031924  0.002307  3.968201  0.003  -0.040587  0.002186  3.99384  0.003  -0.005236  -0.02635  0.002465  3.951691  0.004
C  C63  1  0.30967980  0.93866293  0.87885520  1  -0.053535  -0.007803  3.738329  -0.011  -0.031853  -0.002306  3.968153  -0.003  -0.040515  -0.002187  3.993788  -0.003  -0.005204  -0.026295  -0.002465  3.951671  -0.004
C  C64  1  0.76183703  0.21833940  0.19105540  1  0.129841  -0.010437  3.638532  -0.014  0.091814  -0.002672  3.898115  -0.004  0.101797  -0.002328  3.91181  -0.004  0.057951  0.084214  -0.003119  3.889083  -0.005
C  C65  1  0.23816319  0.78166286  0.80894433  1  0.129821  0.010442  3.638607  0.014  0.091769  0.002672  3.89815  0.004  0.101756  0.002328  3.911836  0.004  0.057923  0.084162  0.003119  3.889131  0.005
C  C66  1  0.73758772  0.98243530  0.01273450  1  0.280065  -0.00037  3.678205  -0.001  0.278607  0.000198  3.93929  0.0  0.288197  5e-05  3.956895  0.0  0.150058  0.272411  0.000488  3.926525  0.001
C  C67  1  0.26241191  0.01756584  0.98726558  1  0.280045  0.000377  3.678346  0.001  0.27859  -0.000198  3.939377  0.0  0.28818  -5e-05  3.956983  0.0  0.150035  0.272399  -0.000488  3.926615  -0.001
C  C68  1  0.67458991  0.81825083  0.95397150  1  -0.380431  0.000327  3.696965  0.0  -0.462236  0.000238  3.931487  0.0  -0.465171  0.000168  3.938649  0.0  -0.243443  -0.459752  0.000282  3.926553  0.0
C  C69  1  0.32540872  0.18175031  0.04602932  1  -0.38046  -0.000328  3.697001  0.0  -0.462238  -0.000237  3.931526  0.0  -0.465171  -0.000169  3.938686  0.0  -0.243444  -0.459758  -0.000282  3.926586  0.0
C  C70  1  0.95128794  0.06967067  0.82509478  1  0.272657  -0.000526  3.676618  -0.001  0.276409  0.000138  3.929367  0.0  0.285292  5.4e-05  3.946393  0.0  0.14596  0.270704  0.00034  3.917188  0.0
C  C71  1  0.04871241  0.93032605  0.17490625  1  0.272651  0.000519  3.676842  0.001  0.276466  -0.000137  3.92948  0.0  0.285346  -5.4e-05  3.946509  0.0  0.145975  0.270758  -0.00034  3.917314  0.0
C  C72  1  0.99532765  0.22968288  0.87844687  1  -0.391424  0.000208  3.709362  0.0  -0.475633  0.000121  3.943785  0.0  -0.477851  9.2e-05  3.949382  0.0  -0.246121  -0.47359  0.000121  3.940144  0.0
C  C73  1  0.00467429  0.77031498  0.12155483  1  -0.391537  -0.000208  3.709506  0.0  -0.475759  -0.000122  3.943939  0.0  -0.477977  -9e-05  3.949537  0.0  -0.246143  -0.473716  -0.000121  3.940292  0.0
C  C74  1  0.00431382  0.99998353  0.71752459  1  -0.052284  0.007667  3.75729  0.011  -0.029198  0.002208  3.985235  0.003  -0.037359  0.00204  4.01092  0.003  -0.004775  -0.024062  0.002513  3.968481  0.004
C  C75  1  0.99568559  0.00001288  0.28247543  1  -0.052216  -0.007664  3.757383  -0.011  -0.029139  -0.002208  3.985257  -0.003  -0.037299  -0.002039  4.010943  -0.003  -0.004761  -0.024014  -0.002513  3.968528  -0.004
C  C76  1  0.93126831  0.84329006  0.63447191  1  0.116205  -0.011647  3.627783  -0.015  0.078521  -0.003373  3.884414  -0.005  0.088044  -0.002713  3.897704  -0.004  0.059384  0.071458  -0.004121  3.875201  -0.006
C  C77  1  0.06872940  0.15670549  0.36552569  1  0.11607  0.011643  3.627948  0.015  0.078429  0.003372  3.884509  0.005  0.087947  0.002713  3.897805  0.004  0.059398  0.071387  0.00412  3.875306  0.006
C  C78  1  0.09528612  0.86207200  0.51329839  1  0.120805  -0.009151  3.695961  -0.013  0.091035  -0.002103  3.954167  -0.003  0.098683  -0.00204  3.971354  -0.003  0.043044  0.085313  -0.002646  3.942145  -0.004
C  C79  1  0.90471217  0.13792465  0.48669798  1  0.120718  0.009146  3.696018  0.013  0.090927  0.002103  3.954229  0.003  0.098581  0.002039  3.971426  0.003  0.042995  0.085198  0.002645  3.942218  0.004
C  C80  1  0.17563930  0.01777811  0.59145758  1  -0.117009  0.008542  3.768952  0.011  -0.128624  0.00229  4.023156  0.003  -0.136566  0.002163  4.045816  0.003  -0.085679  -0.123354  0.002509  4.008429  0.004
C  C81  1  0.82435800  0.98221856  0.40854127  1  -0.117027  -0.00854  3.768815  -0.011  -0.12864  -0.002291  4.023041  -0.003  -0.136582  -0.002158  4.045697  -0.003  -0.085671  -0.12337  -0.002509  4.008311  -0.004
C  C82  1  0.12826383  0.08808886  0.69297229  1  -0.046458  -0.01011  3.693584  -0.013  -0.073855  -0.003136  3.942429  -0.004  -0.069928  -0.002449  3.960524  -0.003  -0.069061  -0.077154  -0.004812  3.931277  -0.006
C  C83  1  0.87173387  0.91190668  0.30702354  1  -0.04642  0.010107  3.693443  0.013  -0.073839  0.003136  3.942282  0.004  -0.069908  0.002446  3.960372  0.003  -0.06902  -0.077128  0.004811  3.93112  0.006
N  N84  1  0.28802475  0.62433511  0.00336129  1  -0.657309  0.000368  3.077515  0.0  -0.62768  0.000134  3.303651  0.0  -0.646815  0.000166  3.304577  0.0  -0.599795  -0.613639  6.5e-05  3.302834  0.0
N  N85  1  0.71197750  0.37566720  0.99664048  1  -0.657283  -0.000368  3.077523  0.0  -0.62767  -0.000132  3.303653  0.0  -0.646804  -0.000159  3.304582  0.0  -0.599777  -0.613625  -6.5e-05  3.302822  0.0
N  N86  1  0.72125380  0.29654123  0.28702618  1  -0.320418  0.038867  3.301757  0.067  -0.274552  0.024875  3.589477  0.042  -0.296155  0.021619  3.601314  0.036  -0.32438  -0.258252  0.027867  3.581613  0.046
N  N87  1  0.27874585  0.70345993  0.71297479  1  -0.320375  -0.038873  3.301819  -0.067  -0.274515  -0.024875  3.589545  -0.042  -0.296111  -0.021617  3.601374  -0.036  -0.324347  -0.25821  -0.027866  3.581671  -0.046
N  N88  1  0.82909423  0.06329573  0.97251361  1  -0.258591  0.001953  3.040994  0.003  -0.232027  0.000459  3.326746  0.001  -0.243451  0.000502  3.344658  0.001  -0.214315  -0.22461  0.000404  3.314723  0.001
N  N89  1  0.17090786  0.93670435  0.02748813  1  -0.258559  -0.001959  3.040977  -0.003  -0.232007  -0.000458  3.326729  -0.001  -0.243436  -0.000509  3.344645  -0.001  -0.214276  -0.224591  -0.000404  3.314707  -0.001
N  N90  1  0.86950303  0.98733936  0.86924251  1  -0.245441  0.002103  3.010874  0.003  -0.222583  0.000485  3.290714  0.001  -0.232295  0.000494  3.307925  0.001  -0.211477  -0.21603  0.000544  3.279351  0.001
N  N91  1  0.13049790  0.01265849  0.13075905  1  -0.245445  -0.002098  3.010965  -0.003  -0.222607  -0.000485  3.290775  -0.001  -0.232316  -0.000491  3.307987  -0.001  -0.211498  -0.216048  -0.000544  3.279414  -0.001
N  N92  1  0.97378807  0.77565904  0.53339676  1  -0.301424  0.040182  3.295213  0.069  -0.25382  0.026459  3.577881  0.043  -0.274909  0.023066  3.589917  0.037  -0.32073  -0.237944  0.029545  3.569837  0.048
N  N93  1  0.02620921  0.22433762  0.46660034  1  -0.301288  -0.040181  3.295294  -0.069  -0.253677  -0.026458  3.577912  -0.043  -0.27477  -0.023061  3.589961  -0.037  -0.320689  -0.237791  -0.029543  3.569856  -0.048
O  O94  1  0.00155730  0.54932529  0.31426761  1  -0.616611  0.042532  2.109376  0.065  -0.580174  0.033519  2.388345  0.048  -0.617257  0.025891  2.375072  0.036  -0.310062  -0.549239  0.039035  2.397134  0.056
O  O95  1  0.99843766  0.45067463  0.68572612  1  -0.616527  -0.042527  2.109683  -0.065  -0.580097  -0.033511  2.388625  -0.048  -0.617174  -0.025883  2.375366  -0.036  -0.310021  -0.549154  -0.039029  2.3974  -0.056
O  O96  1  0.11597069  0.47113483  0.42574971  1  -0.622056  -0.053592  2.230072  -0.083  -0.59398  -0.041472  2.536291  -0.061  -0.635067  -0.029392  2.523822  -0.04  -0.308796  -0.555893  -0.055542  2.540738  -0.084
O  O97  1  0.88402442  0.52886730  0.57424318  1  -0.622145  0.053607  2.229915  0.083  -0.594056  0.041485  2.536103  0.061  -0.635185  0.029404  2.523698  0.04  -0.308826  -0.555954  0.055555  2.540528  0.084
O  O98  1  0.63149315  0.52951705  0.40844529  1  -0.589074  0.050195  2.029317  0.082  -0.554108  0.036206  2.288886  0.059  -0.59347  0.0258  2.283332  0.042  -0.300236  -0.520596  0.047205  2.289447  0.076
O  O99  1  0.36850483  0.47047518  0.59155188  1  -0.589048  -0.050195  2.029333  -0.082  -0.554066  -0.036203  2.288884  -0.059  -0.593429  -0.025792  2.283338  -0.041  -0.300179  -0.520542  -0.047205  2.289429  -0.076
O  O100  1  0.70584355  0.56348941  0.24730970  1  -0.629726  0.033199  2.000286  0.054  -0.590193  0.026418  2.249149  0.043  -0.62492  0.018704  2.24354  0.03  -0.310785  -0.561172  0.034124  2.251213  0.055
O  O101  1  0.29415771  0.43651290  0.75269457  1  -0.62972  -0.033204  2.000151  -0.054  -0.590209  -0.026418  2.249054  -0.043  -0.624939  -0.018693  2.243439  -0.03  -0.310777  -0.561186  -0.034126  2.251118  -0.055
