# generated using pymatgen
data_CoH12C14(N2O)2
_symmetry_space_group_name_H-M   'P 1'
_cell_length_a   4.69496520
_cell_length_b   8.45761796
_cell_length_c   18.53343097
_cell_angle_alpha   97.15451708
_cell_angle_beta   90.10744872
_cell_angle_gamma   106.05448963
_symmetry_Int_Tables_number   1
_chemical_formula_structural   CoH12C14(N2O)2
_chemical_formula_sum   'Co2 H24 C28 N8 O4'
_cell_volume   701.21192699
_cell_formula_units_Z   2
loop_
 _symmetry_equiv_pos_site_id
 _symmetry_equiv_pos_as_xyz
  1  'x, y, z'
loop_
 _atom_site_type_symbol
 _atom_site_label
 _atom_site_symmetry_multiplicity
 _atom_site_fract_x
 _atom_site_fract_y
 _atom_site_fract_z
 _atom_site_occupancy
 _atom_site_hle17_ddec_charge
 _atom_site_hle17_ddec_spin_density
 _atom_site_hle17_ddec_sum_bond_order
 _atom_site_hle17_magmom
 _atom_site_hse06_10hf_bader_charge
 _atom_site_hse06_10hf_bader_spin_density
 _atom_site_hse06_10hf_ddec_charge
 _atom_site_hse06_10hf_ddec_spin_density
 _atom_site_hse06_10hf_ddec_sum_bond_order
 _atom_site_hse06_10hf_magmom
 _atom_site_hse06_ddec_charge
 _atom_site_hse06_ddec_spin_density
 _atom_site_hse06_ddec_sum_bond_order
 _atom_site_hse06_magmom
 _atom_site_pbe_cm5_charge
 _atom_site_pbe_ddec_charge
 _atom_site_pbe_ddec_spin_density
 _atom_site_pbe_ddec_sum_bond_order
 _atom_site_pbe_magmom
Co  Co0  1  0.95663715  0.00032698  0.74990844  1  0.971824  -2.883232  2.260364  -2.506  1.242694  -2.60519  0.907667  -2.811596  2.748586  -2.544  0.998498  -2.865058  2.658225  -2.644  0.739084  0.83492  -2.759784  2.817767  -2.446
Co  Co1  1  0.04337552  0.99967255  0.25009135  1  0.971654  2.883219  2.260604  2.506  1.242555  2.60517  0.907447  2.811585  2.74888  2.544  0.998282  2.865052  2.658534  2.644  0.739037  0.834709  2.75979  2.818021  2.446
H  H2  1  0.50611416  0.67207067  0.74229980  1  0.078263  -0.000816  0.945651  -0.002  0.100075  -0.002341  0.087815  -0.000815  1.006952  -0.001  0.089552  -0.000572  1.005251  -0.001  0.117831  0.086389  -0.00107  1.008458  -0.002
H  H3  1  0.83094327  0.32830116  0.75766852  1  0.079007  -0.000813  0.945648  -0.002  0.134812  -0.002309  0.088299  -0.000811  1.007169  -0.001  0.090197  -0.000568  1.005257  -0.001  0.117907  0.086757  -0.001065  1.008843  -0.002
H  H4  1  0.49390375  0.32793510  0.25769875  1  0.078354  0.000816  0.945698  0.002  0.099997  0.00234  0.087886  0.000815  1.006981  0.001  0.089629  0.000572  1.005288  0.001  0.117843  0.086455  0.00107  1.008499  0.002
H  H5  1  0.16904989  0.67169345  0.24232934  1  0.079012  0.000813  0.945619  0.002  0.134801  0.002309  0.088286  0.000811  1.007157  0.001  0.090184  0.000569  1.005245  0.001  0.117906  0.086748  0.001065  1.008823  0.002
H  H6  1  0.09196876  0.50120202  0.65603704  1  0.116657  -0.000314  0.949434  0.0  0.106741  -0.00101  0.126825  -0.000387  1.009063  0.0  0.130205  -0.00025  1.008098  0.0  0.109587  0.124162  -0.000539  1.010205  -0.001
H  H7  1  0.58758091  0.49846277  0.84407488  1  0.117255  -0.000313  0.950448  0.0  0.101365  -0.000999  0.127656  -0.000383  1.009707  0.0  0.131079  -0.000248  1.008698  0.0  0.109847  0.124959  -0.000533  1.010909  -0.001
H  H8  1  0.90801557  0.49879617  0.34396914  1  0.116741  0.000314  0.949463  0.0  0.106776  0.00101  0.126794  0.000387  1.009192  0.0  0.13017  0.00025  1.008241  0.0  0.109478  0.124131  0.000539  1.010339  0.001
H  H9  1  0.41240071  0.50153431  0.15592367  1  0.117272  0.000312  0.950651  0.0  0.101135  0.000999  0.127658  0.000383  1.009927  0.0  0.131082  0.000248  1.008916  0.0  0.109846  0.124958  0.000533  1.011129  0.001
H  H10  1  0.37762443  0.86457072  0.50843572  1  0.108162  -0.000315  0.963556  0.0  0.090582  -0.000791  0.118165  -0.00031  1.024708  0.0  0.121244  -0.000214  1.023918  0.0  0.106706  0.115859  -0.000413  1.025607  -0.001
H  H11  1  0.51668845  0.13493152  0.99144961  1  0.10816  -0.000316  0.962505  0.0  0.090633  -0.00079  0.11794  -0.000312  1.023969  0.0  0.120996  -0.000215  1.023215  0.0  0.10648  0.115649  -0.000415  1.024862  -0.001
H  H12  1  0.62233650  0.13542755  0.49156613  1  0.108196  0.000315  0.96359  0.0  0.091148  0.00079  0.118281  0.00031  1.024648  0.0  0.121363  0.000214  1.023855  0.0  0.1067  0.115969  0.000413  1.025551  0.001
H  H13  1  0.48336651  0.86507164  0.00855527  1  0.108117  0.000316  0.962548  0.0  0.091118  0.00079  0.117987  0.000312  1.023908  0.0  0.121043  0.000215  1.023154  0.0  0.106462  0.115694  0.000415  1.024808  0.001
H  H14  1  0.77162547  0.02579628  0.60239081  1  0.077499  -0.000881  0.95864  -0.002  0.127497  -0.002472  0.084765  -0.000877  1.023691  -0.001  0.086793  -0.000613  1.022098  -0.001  0.114697  0.08312  -0.001151  1.025161  -0.001
H  H15  1  0.74914585  0.97436792  0.89736714  1  0.077878  -0.00088  0.957547  -0.002  0.126139  -0.002476  0.085261  -0.000879  1.02229  -0.001  0.087272  -0.000615  1.020695  -0.001  0.114982  0.083622  -0.001153  1.023746  -0.001
H  H16  1  0.22835226  0.97420581  0.39760535  1  0.077529  0.000881  0.958629  0.002  0.127527  0.002473  0.084774  0.000878  1.023674  0.001  0.086801  0.000614  1.022087  0.001  0.114729  0.083133  0.001152  1.025133  0.001
H  H17  1  0.25090363  0.02563281  0.10263489  1  0.077809  0.00088  0.957642  0.002  0.126328  0.002476  0.085204  0.000879  1.022407  0.001  0.087217  0.000615  1.020814  0.001  0.114952  0.083567  0.001153  1.023866  0.001
H  H18  1  0.90855085  0.65299994  0.48321474  1  0.085732  4.9e-05  0.92561  0.0  0.026308  2.2e-05  0.102333  1.7e-05  0.985537  0.0  0.10377  9e-06  0.985117  0.0  0.096092  0.101102  3.1e-05  0.986044  0.0
H  H19  1  0.25839300  0.34637717  0.01707170  1  0.084742  5e-05  0.927135  0.0  0.025001  2.3e-05  0.101877  1.8e-05  0.986416  0.0  0.103382  1e-05  0.985986  0.0  0.09568  0.100556  3.2e-05  0.986976  0.0
H  H20  1  0.09142826  0.34699207  0.51678945  1  0.085699  -5e-05  0.925548  0.0  0.025984  -2.2e-05  0.102297  -1.7e-05  0.985477  0.0  0.103735  -1e-05  0.985055  0.0  0.096065  0.101059  -3.1e-05  0.985983  0.0
H  H21  1  0.74163636  0.65361738  0.98292834  1  0.084742  -4.9e-05  0.92703  0.0  0.025113  -2.2e-05  0.101864  -1.8e-05  0.986356  0.0  0.103369  -1e-05  0.98593  0.0  0.095641  0.100564  -3.2e-05  0.9869  0.0
H  H22  1  0.75118776  0.52344529  0.55005558  1  0.095732  0.000124  0.946034  0.0  0.076494  -2.8e-05  0.110811  -1e-06  1.009178  0.0  0.112335  2e-06  1.009499  0.0  0.09727  0.109562  -1e-06  1.009076  0.0
H  H23  1  0.22635883  0.47486459  0.95002014  1  0.096161  0.000129  0.944553  0.0  0.075753  -2.7e-05  0.110611  -0.0  1.008479  0.0  0.112143  3e-06  1.00881  0.0  0.09759  0.109356  0.0  1.00834  0.0
H  H24  1  0.24879446  0.47655297  0.44994682  1  0.095729  -0.000127  0.945997  0.0  0.076669  2.8e-05  0.110771  2e-06  1.00918  0.0  0.112291  -2e-06  1.009498  0.0  0.097278  0.109528  2e-06  1.009077  0.0
H  H25  1  0.77365835  0.52513116  0.04998320  1  0.096148  -0.000128  0.944712  0.0  0.075501  2.7e-05  0.110638  0.0  1.008574  0.0  0.112162  -3e-06  1.008927  0.0  0.097579  0.109378  -0.0  1.008437  0.0
C  C26  1  0.46597364  0.71114460  0.69025632  1  0.137371  0.006726  3.708275  0.009  0.503733  -0.000987  0.109583  -0.001113  3.96225  -0.001  0.119292  -0.000651  3.981597  0.0  0.049695  0.102185  -0.00141  3.949954  -0.001
C  C27  1  0.75344268  0.28912438  0.80973399  1  0.13682  0.006706  3.708851  0.009  0.457584  -0.001048  0.108826  -0.001123  3.962976  -0.001  0.118471  -0.00066  3.982311  0.0  0.04972  0.101467  -0.001424  3.950694  -0.001
C  C28  1  0.53402271  0.28886491  0.30974137  1  0.137212  -0.006727  3.70812  -0.009  0.503683  0.000986  0.109476  0.001112  3.961997  0.001  0.119172  0.00065  3.981358  0.0  0.049708  0.102081  0.001408  3.949708  0.001
C  C29  1  0.24656201  0.71086772  0.19026481  1  0.136651  -0.006709  3.709088  -0.009  0.457329  0.001049  0.1087  0.001123  3.963158  0.001  0.118343  0.00066  3.982491  0.0  0.049635  0.101339  0.001424  3.950866  0.001
C  C30  1  0.23850491  0.61678727  0.64192071  1  -0.159836  -0.007832  3.67553  -0.011  -0.033511  -0.004572  -0.178712  -0.002316  3.920289  -0.003  -0.187275  -0.001738  3.939778  -0.003  -0.078728  -0.173418  -0.00305  3.90852  -0.004
C  C31  1  0.62045302  0.38318730  0.85814216  1  -0.160235  -0.007817  3.675314  -0.011  -0.021579  -0.00457  -0.178931  -0.002324  3.920078  -0.003  -0.187559  -0.001743  3.939526  -0.003  -0.079217  -0.173607  -0.003059  3.908362  -0.004
C  C32  1  0.76148316  0.38321844  0.35808160  1  -0.159894  0.007832  3.675571  0.011  -0.033243  0.004572  -0.178682  0.002316  3.920297  0.003  -0.187251  0.001739  3.939789  0.003  -0.078655  -0.173389  0.00305  3.908532  0.004
C  C33  1  0.37954830  0.61680230  0.14185757  1  -0.160148  0.007822  3.67566  0.011  -0.021416  0.00457  -0.178886  0.002324  3.920404  0.003  -0.187513  0.001743  3.939847  0.003  -0.079162  -0.173561  0.003059  3.908679  0.004
C  C34  1  0.19619967  0.67178433  0.57549269  1  0.171233  0.007317  3.699028  0.009  -0.011287  0.00073  0.187014  0.00046  3.936283  0.001  0.194669  0.000216  3.95617  0.0  0.019421  0.181277  0.001033  3.923464  0.001
C  C35  1  0.52540827  0.32802221  0.92460829  1  0.171995  0.007312  3.696475  0.009  0.003778  0.000723  0.187035  0.000457  3.934433  0.001  0.194852  0.000212  3.95417  0.0  0.01961  0.181174  0.001031  3.92171  0.001
C  C36  1  0.80378681  0.32821393  0.42450918  1  0.17122  -0.007318  3.699152  -0.009  -0.011692  -0.000731  0.187001  -0.000461  3.936377  -0.001  0.194656  -0.000217  3.956264  0.0  0.019398  0.181264  -0.001035  3.923553  -0.001
C  C37  1  0.47461496  0.67196860  0.07539260  1  0.172015  -0.007314  3.696555  -0.009  0.003876  -0.000724  0.187143  -0.000458  3.934467  -0.001  0.194959  -0.000212  3.954202  0.0  0.019635  0.18128  -0.001033  3.921741  -0.001
C  C38  1  0.39524794  0.81979307  0.56042928  1  -0.173484  -0.007211  3.707659  -0.01  0.02271  -0.00357  -0.190846  -0.001802  3.950779  -0.003  -0.199656  -0.001314  3.971166  -0.002  -0.084463  -0.185269  -0.002446  3.938065  -0.004
C  C39  1  0.57799387  0.18004094  0.93951299  1  -0.174953  -0.00718  3.705744  -0.01  -0.068589  -0.003644  -0.191912  -0.001789  3.949046  -0.003  -0.200781  -0.001302  3.969409  -0.002  -0.084929  -0.186296  -0.002431  3.936363  -0.004
C  C40  1  0.60473614  0.18020892  0.43957227  1  -0.173667  0.007214  3.707502  0.01  0.022099  0.003572  -0.191139  0.001803  3.950625  0.003  -0.199957  0.001316  3.97102  0.002  -0.08453  -0.185556  0.002447  3.937903  0.004
C  C41  1  0.42205277  0.81994983  0.06049059  1  -0.175012  0.007183  3.705758  0.01  -0.069129  0.003646  -0.192032  0.001789  3.949022  0.003  -0.200901  0.001303  3.969384  0.002  -0.084903  -0.186417  0.002431  3.936342  0.004
C  C42  1  0.61589421  0.90858221  0.61150148  1  0.126127  0.00659  3.726508  0.009  0.413972  -0.000809  0.099463  -0.001006  3.978132  -0.001  0.108306  -0.000627  3.998642  0.0  0.04272  0.09274  -0.001179  3.964846  -0.001
C  C43  1  0.70936980  0.09147071  0.88832710  1  0.126129  0.006578  3.72719  0.009  0.497693  -0.000713  0.099493  -0.001007  3.978483  -0.001  0.108371  -0.000631  3.99899  0.0  0.042803  0.092775  -0.001179  3.965166  -0.001
C  C44  1  0.38408202  0.09142115  0.38849314  1  0.125931  -0.006592  3.726278  -0.009  0.413962  0.000809  0.099324  0.001007  3.977847  0.001  0.108166  0.000629  3.998361  0.0  0.042558  0.092603  0.001179  3.964555  0.001
C  C45  1  0.29067878  0.90853247  0.11167669  1  0.12626  -0.006585  3.726935  -0.009  0.497923  0.000709  0.099532  0.001006  3.978331  0.001  0.108406  0.00063  3.998839  0.0  0.042826  0.092805  0.001177  3.965018  0.001
C  C46  1  0.95490430  0.57319528  0.52151272  1  -0.155801  -0.000697  3.664369  -0.001  0.01644  -9.7e-05  -0.198502  -1.2e-05  3.912182  0.0  -0.200452  1.4e-05  3.922232  0.0  -0.155041  -0.196952  -7.4e-05  3.905629  0.0
C  C47  1  0.38241649  0.42623931  0.97861436  1  -0.155215  -0.000699  3.665329  -0.001  -0.008514  -9.4e-05  -0.197601  -1e-05  3.912818  0.0  -0.19969  1.5e-05  3.923093  0.0  -0.154718  -0.195885  -7.1e-05  3.906039  0.0
C  C48  1  0.04507572  0.42679431  0.47848754  1  -0.155742  0.000702  3.664332  0.001  -0.005927  9.7e-05  -0.198408  1.2e-05  3.912179  0.0  -0.200352  -1.4e-05  3.922223  0.0  -0.155018  -0.196852  7.4e-05  3.905619  0.0
C  C49  1  0.61760948  0.57375272  0.02138768  1  -0.155223  0.000694  3.665404  0.001  0.011391  9.4e-05  -0.197722  1e-05  3.913014  0.0  -0.199819  -1.6e-05  3.923291  0.0  -0.154691  -0.196022  7.1e-05  3.906232  0.0
C  C50  1  0.16870007  0.77520012  0.84263913  1  0.61885  -0.006423  4.106159  -0.01  1.833151  -0.019537  0.587771  -0.012438  4.404855  -0.018  0.624608  -0.010046  4.410406  -0.016  0.272698  0.561869  -0.014942  4.397578  -0.02
C  C51  1  0.39240874  0.22421835  0.65699382  1  0.621552  -0.006516  4.103083  -0.01  1.859214  -0.019418  0.590548  -0.0125  4.401756  -0.018  0.62736  -0.0101  4.407374  -0.016  0.274676  0.564663  -0.015012  4.394403  -0.02
C  C52  1  0.83129600  0.22481310  0.15735987  1  0.619022  0.006442  4.105771  0.01  1.833238  0.019565  0.58794  0.012454  4.404476  0.018  0.624782  0.010058  4.410033  0.016  0.272746  0.562039  0.014961  4.397183  0.02
C  C53  1  0.60755213  0.77580122  0.34299853  1  0.621625  0.00651  4.103185  0.01  1.861443  0.019377  0.590596  0.012491  4.401856  0.018  0.627406  0.010093  4.407466  0.016  0.274651  0.564709  0.015001  4.394499  0.02
N  N54  1  0.64971882  0.85684263  0.67620328  1  -0.336452  -0.053061  3.36851  -0.081  -1.293945  -0.06959  -0.283748  -0.036449  3.667066  -0.049  -0.316223  -0.028852  3.68503  -0.038  -0.340517  -0.259502  -0.043253  3.654924  -0.058
N  N55  1  0.79324633  0.14354830  0.82365098  1  -0.337046  -0.052995  3.369716  -0.081  -1.289136  -0.069453  -0.28397  -0.036383  3.668  -0.049  -0.316472  -0.0288  3.68602  -0.037  -0.340546  -0.259714  -0.043175  3.655869  -0.058
N  N56  1  0.35028021  0.14315949  0.32379127  1  -0.336033  0.05306  3.368262  0.081  -1.294097  0.069594  -0.283324  0.036448  3.666758  0.049  -0.315789  0.028851  3.68471  0.038  -0.340333  -0.259078  0.043247  3.654603  0.058
N  N57  1  0.20677876  0.85644626  0.17634905  1  -0.337  0.052996  3.369743  0.081  -1.288945  0.069453  -0.283867  0.036381  3.667977  0.049  -0.316371  0.028798  3.686015  0.037  -0.340567  -0.259613  0.043172  3.655831  0.058
N  N58  1  0.05418816  0.84910751  0.80596224  1  -0.7711  -0.04932  3.060182  -0.061  -1.406498  -0.066806  -0.752825  -0.034946  3.406714  -0.03  -0.797354  -0.02567  3.399919  -0.018  -0.479188  -0.716814  -0.044908  3.409103  -0.043
N  N59  1  0.20371918  0.15127961  0.69370012  1  -0.772016  -0.049344  3.056281  -0.061  -1.42589  -0.067077  -0.753871  -0.034953  3.402822  -0.03  -0.798466  -0.025654  3.396081  -0.018  -0.480054  -0.717808  -0.044943  3.405143  -0.043
N  N60  1  0.94583996  0.15088456  0.19403818  1  -0.771311  0.049353  3.059564  0.061  -1.406278  0.066835  -0.753046  0.034964  3.406161  0.03  -0.797587  0.025679  3.399354  0.018  -0.479281  -0.717017  0.04493  3.408525  0.043
N  N61  1  0.79627183  0.84871493  0.30630152  1  -0.772013  0.049319  3.056323  0.061  -1.427694  0.067081  -0.753836  0.034942  3.402809  0.03  -0.79842  0.025649  3.396063  0.018  -0.480036  -0.717784  0.044924  3.40512  0.043
O  O62  1  0.28295233  0.69867395  0.87917397  1  -0.504579  -0.013542  2.021316  -0.023  -1.182585  -0.024953  -0.463526  -0.012462  2.231597  -0.022  -0.488838  -0.008309  2.225644  -0.015  -0.258345  -0.443548  -0.017554  2.233992  -0.029
O  O63  1  0.58308511  0.29960136  0.62030181  1  -0.506376  -0.01362  2.022161  -0.023  -1.189431  -0.025072  -0.465248  -0.01249  2.232181  -0.022  -0.490557  -0.008329  2.226217  -0.015  -0.259303  -0.445282  -0.017595  2.234593  -0.029
O  O64  1  0.71705358  0.30132055  0.12082929  1  -0.504459  0.013543  2.021764  0.023  -1.182741  0.024964  -0.463399  0.012467  2.232023  0.022  -0.488706  0.008314  2.22607  0.015  -0.258221  -0.44343  0.017556  2.234413  0.029
O  O65  1  0.41680264  0.70043818  0.37968633  1  -0.506491  0.013617  2.022088  0.023  -1.189836  0.025062  -0.465325  0.012486  2.232103  0.022  -0.490626  0.008325  2.226119  0.015  -0.259324  -0.445361  0.017588  2.23452  0.029
