# generated using pymatgen
data_ZnH12C20N3O5
_symmetry_space_group_name_H-M   'P 1'
_cell_length_a   7.46298504
_cell_length_b   14.42729939
_cell_length_c   24.04955438
_cell_angle_alpha   103.85868563
_cell_angle_beta   90.00185973
_cell_angle_gamma   104.98522664
_symmetry_Int_Tables_number   1
_chemical_formula_structural   ZnH12C20N3O5
_chemical_formula_sum   'Zn4 H48 C80 N12 O20'
_cell_volume   2423.24966210
_cell_formula_units_Z   4
loop_
 _symmetry_equiv_pos_site_id
 _symmetry_equiv_pos_as_xyz
  1  'x, y, z'
loop_
 _atom_site_type_symbol
 _atom_site_label
 _atom_site_symmetry_multiplicity
 _atom_site_fract_x
 _atom_site_fract_y
 _atom_site_fract_z
 _atom_site_occupancy
 _atom_site_pbe_bader_charge
 _atom_site_pbe_bader_spin_density
 _atom_site_pbe_cm5_charge
 _atom_site_pbe_ddec_charge
 _atom_site_pbe_ddec_spin_density
 _atom_site_pbe_ddec_sum_bond_order
 _atom_site_pbe_magmom
Zn  Zn0  1  0.88943313  0.06857726  0.00783787  1  1.292133  0  0.672343  0.822551  0  2.391485  0
Zn  Zn1  1  0.82081081  0.93135846  0.49214128  1  1.291824  0  0.672085  0.822506  0  2.390084  0
Zn  Zn2  1  0.11057065  0.93142340  0.99216343  1  1.293212  0  0.672316  0.822451  0  2.39161  0
Zn  Zn3  1  0.17918395  0.06864294  0.50785805  1  1.291623  0  0.672118  0.822594  0  2.390004  0
H  H4  1  0.13461853  0.25499179  0.17074466  1  0.078093  0  0.106362  0.113147  0  0.993961  0
H  H5  1  0.87977102  0.74532160  0.32925479  1  0.080665  0  0.106221  0.112398  0  0.994386  0
H  H6  1  0.86538562  0.74500962  0.82925634  1  0.078075  0  0.106337  0.113134  0  0.993951  0
H  H7  1  0.12022397  0.25467758  0.67074506  1  0.080717  0  0.106226  0.112455  0  0.994322  0
H  H8  1  0.31224095  0.35015788  0.26512495  1  0.051687  0  0.106556  0.121601  0  0.990167  0
H  H9  1  0.96219481  0.65018793  0.23486752  1  0.060868  0  0.106306  0.121403  0  0.989662  0
H  H10  1  0.68777100  0.64984573  0.73487387  1  0.051491  0  0.106537  0.121614  0  0.990123  0
H  H11  1  0.03780568  0.34981421  0.76513192  1  0.06086  0  0.106318  0.12143  0  0.989611  0
H  H12  1  0.70456031  0.17427497  0.22923141  1  0.05982  0  0.109358  0.126591  0  0.988147  0
H  H13  1  0.53042064  0.82589377  0.27071239  1  0.073432  0  0.109249  0.126742  0  0.988365  0
H  H14  1  0.29544748  0.82572568  0.77076782  1  0.060006  0  0.109339  0.126582  0  0.988153  0
H  H15  1  0.46957754  0.17410911  0.72928881  1  0.073417  0  0.109245  0.126775  0  0.988322  0
H  H16  1  0.53118978  0.08218886  0.13567704  1  0.111955  0  0.105553  0.110376  0  1.033306  0
H  H17  1  0.44922446  0.91793497  0.36431649  1  0.102901  0  0.105644  0.110943  0  1.032469  0
H  H18  1  0.46880715  0.91780884  0.86432260  1  0.111956  0  0.105571  0.110418  0  1.033304  0
H  H19  1  0.55076799  0.08206717  0.63568336  1  0.102879  0  0.105635  0.110887  0  1.032462  0
H  H20  1  0.95649522  0.34626088  0.34102645  1  0.076461  0  0.105448  0.121712  0  0.989715  0
H  H21  1  0.61000408  0.65363621  0.15892986  1  0.06235  0  0.105737  0.12199  0  0.989137  0
H  H22  1  0.04351160  0.65374052  0.65897205  1  0.076534  0  0.105445  0.121711  0  0.989805  0
H  H23  1  0.38999956  0.34636150  0.84107186  1  0.061774  0  0.105728  0.122022  0  0.989137  0
H  H24  1  0.06363799  0.24315697  0.39839836  1  0.096392  0  0.103067  0.105678  0  1.010177  0
H  H25  1  0.82041368  0.75658295  0.10154550  1  0.079485  0  0.102978  0.105288  0  1.010237  0
H  H26  1  0.93636615  0.75684443  0.60160222  1  0.096455  0  0.103072  0.105678  0  1.010145  0
H  H27  1  0.17959129  0.24341475  0.89845580  1  0.079487  0  0.102957  0.105259  0  1.010249  0
H  H28  1  0.49923970  0.06996293  0.39651681  1  0.142856  0  0.105744  0.114464  0  1.038583  0
H  H29  1  0.42959125  0.93003352  0.10339681  1  0.158714  0  0.105711  0.114408  0  1.039138  0
H  H30  1  0.50075885  0.93004069  0.60348284  1  0.142811  0  0.105771  0.11451  0  1.038664  0
H  H31  1  0.57041640  0.06996418  0.89660325  1  0.158642  0  0.105692  0.114335  0  1.039215  0
H  H32  1  0.39381041  0.16918671  0.33780066  1  0.063742  0  0.111432  0.129664  0  0.978459  0
H  H33  1  0.22480575  0.83094420  0.16213428  1  0.075896  0  0.111266  0.129633  0  0.978199  0
H  H34  1  0.60619484  0.83081690  0.66219774  1  0.063667  0  0.11143  0.12969  0  0.978442  0
H  H35  1  0.77519936  0.16905647  0.83786620  1  0.075849  0  0.111289  0.129643  0  0.978191  0
H  H36  1  0.53140708  0.11984333  0.03920775  1  0.164793  0  0.125078  0.105191  0  1.019836  0
H  H37  1  0.41151492  0.87996048  0.46072470  1  0.16566  0  0.124717  0.105243  0  1.018621  0
H  H38  1  0.46858851  0.88015437  0.96079147  1  0.164843  0  0.125049  0.105169  0  1.019877  0
H  H39  1  0.58848118  0.12004092  0.53927547  1  0.165688  0  0.124661  0.105203  0  1.018637  0
H  H40  1  0.39361737  0.26090068  0.03876658  1  0.134956  0  0.116404  0.125479  0  1.013032  0
H  H41  1  0.13270261  0.73885902  0.46115877  1  0.115958  0  0.116349  0.125329  0  1.013773  0
H  H42  1  0.60637748  0.73909554  0.96123285  1  0.134749  0  0.116402  0.125483  0  1.01307  0
H  H43  1  0.86729543  0.26114091  0.53884201  1  0.115961  0  0.116353  0.125329  0  1.013787  0
H  H44  1  0.92097038  0.41385517  0.98686212  1  0.116548  0  0.109405  0.108544  0  1.046236  0
H  H45  1  0.50732986  0.58610105  0.51323587  1  0.112446  0  0.109212  0.108476  0  1.045774  0
H  H46  1  0.07902633  0.58614476  0.01313908  1  0.116603  0  0.109401  0.108557  0  1.046281  0
H  H47  1  0.49266952  0.41389887  0.48676325  1  0.112422  0  0.109202  0.108463  0  1.045715  0
H  H48  1  0.03800674  0.26820157  0.99168552  1  0.135427  0  0.119914  0.091931  0  1.035167  0
H  H49  1  0.76985911  0.73181023  0.50841978  1  0.127995  0  0.120266  0.092235  0  1.03457  0
H  H50  1  0.96199302  0.73179910  0.00831537  1  0.135395  0  0.119914  0.091962  0  1.035135  0
H  H51  1  0.23013894  0.26818969  0.49158017  1  0.128113  0  0.120248  0.092215  0  1.034595  0
C  C52  1  0.31969189  0.16178632  0.14794716  1  -0.038455  0  -0.030665  -0.066997  0  3.997369  0
C  C53  1  0.15811381  0.83843132  0.35203475  1  -0.021329  0  -0.029847  -0.066004  0  3.995135  0
C  C54  1  0.68030578  0.83821286  0.85205227  1  -0.038472  0  -0.030624  -0.067004  0  3.997438  0
C  C55  1  0.84187522  0.16156934  0.64796448  1  -0.021369  0  -0.029828  -0.065972  0  3.99497  0
C  C56  1  0.26044411  0.23868504  0.18399201  1  -0.011571  0  -0.083312  -0.069286  0  3.988503  0
C  C57  1  0.02189298  0.76160247  0.31599346  1  -0.038718  0  -0.083612  -0.069094  0  3.989198  0
C  C58  1  0.73955699  0.76131562  0.81600764  1  -0.011565  0  -0.083305  -0.069251  0  3.988518  0
C  C59  1  0.97810238  0.23839745  0.68400608  1  -0.038578  0  -0.083703  -0.069282  0  3.989205  0
C  C60  1  0.35803300  0.29130980  0.23620438  1  -0.006136  0  -0.105338  -0.209784  0  4.011809  0
C  C61  1  0.06686020  0.70900294  0.26378372  1  0.078807  0  -0.105063  -0.209344  0  4.011542  0
C  C62  1  0.64197396  0.70869455  0.76379412  1  -0.005922  0  -0.105341  -0.209837  0  4.011872  0
C  C63  1  0.93314052  0.29099698  0.73621624  1  0.078685  0  -0.105089  -0.209352  0  4.011491  0
C  C64  1  0.51591515  0.26643612  0.25233529  1  0.358302  0  0.084005  0.264122  0  4.057519  0
C  C65  1  0.24957424  0.73380003  0.24763489  1  0.32962  0  0.084457  0.264066  0  4.054513  0
C  C66  1  0.48409107  0.73356676  0.74766426  1  0.358426  0  0.084057  0.264128  0  4.057488  0
C  C67  1  0.75042686  0.26620063  0.75236600  1  0.329404  0  0.084522  0.264108  0  4.054688  0
C  C68  1  0.57948518  0.19159497  0.21628864  1  0.045472  0  -0.102683  -0.205159  0  3.995753  0
C  C69  1  0.38804680  0.80864140  0.28365762  1  0.015756  0  -0.102569  -0.204924  0  3.99284  0
C  C70  1  0.42052141  0.80840864  0.78370934  1  0.045156  0  -0.102658  -0.205086  0  3.99562  0
C  C71  1  0.61195347  0.19136297  0.71634338  1  0.01572  0  -0.102631  -0.205131  0  3.993081  0
C  C72  1  0.48141519  0.13977415  0.16425503  1  -0.044109  0  -0.081359  -0.066054  0  3.977258  0
C  C73  1  0.34182570  0.86042677  0.33571250  1  -0.049473  0  -0.081637  -0.067079  0  3.974638  0
C  C74  1  0.51859067  0.86022800  0.83574608  1  -0.044131  0  -0.081423  -0.066165  0  3.977317  0
C  C75  1  0.65816579  0.13957611  0.66428745  1  -0.049486  0  -0.081566  -0.066838  0  3.974469  0
C  C76  1  0.21013143  0.10333136  0.09306659  1  1.577729  0  0.210749  0.580085  0  4.189259  0
C  C77  1  0.10709104  0.89677363  0.40697833  1  1.554954  0  0.210491  0.57972  0  4.188349  0
C  C78  1  0.78986795  0.89666856  0.90693461  1  1.577788  0  0.210833  0.580241  0  4.189169  0
C  C79  1  0.89289823  0.10322481  0.59302141  1  1.554957  0  0.210591  0.579865  0  4.188397  0
C  C80  1  0.67029884  0.26262222  0.33628460  1  0.383954  0  0.081265  0.257965  0  4.063248  0
C  C81  1  0.40764419  0.73739063  0.16366827  1  0.391305  0  0.081192  0.257801  0  4.063022  0
C  C82  1  0.32970775  0.73738141  0.66371588  1  0.383919  0  0.081306  0.258  0  4.063181  0
C  C83  1  0.59236287  0.26260856  0.83633449  1  0.391569  0  0.081272  0.257695  0  4.062925  0
C  C84  1  0.85849347  0.28554543  0.35360065  1  0.009673  0  -0.107586  -0.212663  0  4.013061  0
C  C85  1  0.57282996  0.71437433  0.14634407  1  0.019565  0  -0.107789  -0.212686  0  4.01279  0
C  C86  1  0.14151238  0.71445671  0.64639837  1  0.009063  0  -0.107587  -0.212674  0  4.01304  0
C  C87  1  0.42717709  0.28562485  0.85365744  1  0.02003  0  -0.107793  -0.212709  0  4.012773  0
C  C88  1  0.91713042  0.22806093  0.38519721  1  -0.054922  0  -0.087168  -0.077347  0  4.000306  0
C  C89  1  0.68907223  0.77178940  0.11474725  1  -0.037944  0  -0.086957  -0.076601  0  4.000488  0
C  C90  1  0.08287446  0.77194194  0.61480192  1  -0.05425  0  -0.087165  -0.077307  0  4.000319  0
C  C91  1  0.31093200  0.22820682  0.88525260  1  -0.038127  0  -0.086922  -0.076464  0  4.000441  0
C  C92  1  0.78919896  0.14894949  0.39984457  1  -0.006793  0  -0.027761  -0.05895  0  3.982551  0
C  C93  1  0.64037297  0.85092431  0.10007822  1  0.00861  0  -0.028072  -0.061043  0  3.9855  0
C  C94  1  0.21080287  0.85105265  0.60015528  1  -0.006792  0  -0.027781  -0.059077  0  3.982648  0
C  C95  1  0.35963164  0.14907264  0.89992131  1  0.008924  0  -0.028068  -0.061198  0  3.985693  0
C  C96  1  0.59996440  0.12883214  0.38327635  1  -0.019514  0  -0.080914  -0.068415  0  3.964064  0
C  C97  1  0.47134185  0.87113778  0.11664834  1  -0.083295  0  -0.080864  -0.067119  0  3.963183  0
C  C98  1  0.40003647  0.87117075  0.61672444  1  -0.019479  0  -0.080954  -0.068436  0  3.964108  0
C  C99  1  0.52866409  0.12885917  0.88335119  1  -0.083324  0  -0.080816  -0.066942  0  3.96308  0
C  C100  1  0.54036149  0.18500632  0.35131925  1  -0.035111  0  -0.098564  -0.196659  0  3.985707  0
C  C101  1  0.35545784  0.81503160  0.14861341  1  -0.037788  0  -0.097976  -0.196455  0  3.984436  0
C  C102  1  0.45964071  0.81499656  0.64868029  1  -0.035174  0  -0.098619  -0.196744  0  3.985687  0
C  C103  1  0.64455093  0.18496832  0.85138780  1  -0.0378  0  -0.098071  -0.196461  0  3.984286  0
C  C104  1  0.85270544  0.08824606  0.43442385  1  1.54122  0  0.209853  0.580713  0  4.191595  0
C  C105  1  0.76459852  0.91160400  0.06550980  1  1.553633  0  0.209956  0.580306  0  4.194718  0
C  C106  1  0.14729981  0.91175756  0.56557579  1  1.541258  0  0.209949  0.580913  0  4.191416  0
C  C107  1  0.23540802  0.08839148  0.93448910  1  1.55426  0  0.209895  0.580181  0  4.194699  0
C  C108  1  0.61298502  0.18720000  0.02883022  1  0.490541  0  0.060626  0.107023  0  3.881202  0
C  C109  1  0.42573573  0.81261309  0.47112814  1  0.443621  0  0.06101  0.106811  0  3.882284  0
C  C110  1  0.38701191  0.81279770  0.97116942  1  0.490461  0  0.060636  0.107064  0  3.881221  0
C  C111  1  0.57426000  0.18738757  0.52887108  1  0.443734  0  0.061093  0.106897  0  3.882313  0
C  C112  1  0.53690361  0.26539736  0.02822806  1  0.00172  0  -0.067085  -0.141196  0  3.910222  0
C  C113  1  0.27152037  0.73439661  0.47170565  1  0.052201  0  -0.066907  -0.141001  0  3.911018  0
C  C114  1  0.46309064  0.73460034  0.97177116  1  0.002002  0  -0.067129  -0.141393  0  3.910432  0
C  C115  1  0.72847938  0.26560405  0.52829441  1  0.052115  0  -0.066901  -0.141013  0  3.911036  0
C  C116  1  0.64611577  0.34802226  0.01192463  1  -0.060622  0  0.01453  0.050824  0  3.984846  0
C  C117  1  0.29822256  0.65178155  0.48801532  1  -0.025188  0  0.014246  0.050623  0  3.986749  0
C  C118  1  0.35388094  0.65197766  0.98807574  1  -0.060551  0  0.014588  0.051019  0  3.984817  0
C  C119  1  0.70177720  0.34821911  0.51198557  1  -0.025111  0  0.014215  0.050548  0  3.986783  0
C  C120  1  0.83063823  0.35089318  0.99928698  1  0.019644  0  -0.072703  -0.147349  0  3.928747  0
C  C121  1  0.47988447  0.64899550  0.50073637  1  -0.005095  0  -0.072575  -0.147374  0  3.929734  0
C  C122  1  0.16935773  0.64910526  0.00071359  1  0.019484  0  -0.072705  -0.147399  0  3.928805  0
C  C123  1  0.52011722  0.35100369  0.49926390  1  -0.005226  0  -0.072531  -0.147288  0  3.929742  0
C  C124  1  0.89657439  0.27040084  0.00163966  1  0.496371  0  0.056832  0.10714  0  3.894479  0
C  C125  1  0.62621291  0.72952789  0.49840201  1  0.481727  0  0.056496  0.106182  0  3.895072  0
C  C126  1  0.10342328  0.72959834  0.99836102  1  0.496366  0  0.056874  0.107103  0  3.894264  0
C  C127  1  0.37378453  0.27047351  0.50159732  1  0.481568  0  0.056503  0.106173  0  3.895092  0
C  C128  1  0.56810810  0.42923391  0.00625738  1  0.944415  0  0.252974  0.249087  0  3.970271  0
C  C129  1  0.13899806  0.57066369  0.49371176  1  0.975895  0  0.25319  0.249622  0  3.972804  0
C  C130  1  0.43188786  0.57076453  0.99374277  1  0.944439  0  0.253004  0.248992  0  3.9704  0
C  C131  1  0.86100511  0.42933846  0.50628892  1  0.97595  0  0.253132  0.249655  0  3.972692  0
N  N132  1  0.78818531  0.18933684  0.01497246  1  -1.24768  0  -0.317557  -0.192462  0  3.508739  0
N  N133  1  0.59883868  0.81055449  0.48502787  1  -1.230671  0  -0.317278  -0.191404  0  3.508356  0
N  N134  1  0.21181102  0.81066235  0.98502780  1  -1.247673  0  -0.317563  -0.192324  0  3.508476  0
N  N135  1  0.40115973  0.18944617  0.51497177  1  -1.230661  0  -0.317285  -0.191459  0  3.508378  0
N  N136  1  0.38189041  0.41511430  0.00806589  1  -0.527697  0  -0.136597  -0.125343  0  3.198494  0
N  N137  1  0.96697896  0.58490639  0.49189319  1  -0.553965  0  -0.136968  -0.125117  0  3.201363  0
N  N138  1  0.61810458  0.58488488  0.99193437  1  -0.527711  0  -0.136639  -0.125352  0  3.198492  0
N  N139  1  0.03302079  0.41509427  0.50810729  1  -0.554042  0  -0.136932  -0.125078  0  3.201325  0
N  N140  1  0.31262578  0.48730681  0.00161771  1  -0.55181  0  -0.140865  -0.131716  0  3.193615  0
N  N141  1  0.82538418  0.51281822  0.49836888  1  -0.544896  0  -0.140555  -0.132421  0  3.199585  0
N  N142  1  0.68737152  0.51269163  0.99838287  1  -0.551724  0  -0.140885  -0.13178  0  3.19344  0
N  N143  1  0.17461424  0.48718244  0.50163118  1  -0.544876  0  -0.140563  -0.132422  0  3.199596  0
O  O144  1  0.25852899  0.02729347  0.06520872  1  -1.168459  0  -0.311354  -0.53922  0  2.341326  0
O  O145  1  0.23146032  0.97283467  0.43483828  1  -1.175936  0  -0.311158  -0.539053  0  2.340808  0
O  O146  1  0.74147321  0.97270942  0.93479165  1  -1.168484  0  -0.311385  -0.539298  0  2.341325  0
O  O147  1  0.76852687  0.02716229  0.56516250  1  -1.175918  0  -0.311205  -0.539079  0  2.340805  0
O  O148  1  0.07730448  0.13402284  0.07768031  1  -1.173505  0  -0.319347  -0.550029  0  2.341179  0
O  O149  1  0.94363945  0.86597836  0.42237998  1  -1.169603  0  -0.319282  -0.549745  0  2.341069  0
O  O150  1  0.92269260  0.86597783  0.92232183  1  -1.173546  0  -0.319402  -0.55009  0  2.341232  0
O  O151  1  0.05634639  0.13401860  0.57761872  1  -1.169507  0  -0.319295  -0.549862  0  2.341239  0
O  O152  1  0.02201527  0.11747510  0.45383066  1  -1.180957  0  -0.315548  -0.562391  0  2.36703  0
O  O153  1  0.90480068  0.88243077  0.04617028  1  -1.183004  0  -0.315634  -0.561639  0  2.367499  0
O  O154  1  0.97798485  0.88252630  0.54616784  1  -1.180888  0  -0.315565  -0.562437  0  2.366897  0
O  O155  1  0.09520734  0.11756767  0.95382947  1  -1.183813  0  -0.315696  -0.561659  0  2.36736  0
O  O156  1  0.73297405  0.01267504  0.44277994  1  -1.164134  0  -0.311273  -0.53135  0  2.309228  0
O  O157  1  0.72030644  0.98711745  0.05710896  1  -1.160218  0  -0.311179  -0.531017  0  2.311985  0
O  O158  1  0.26702451  0.98732858  0.55722013  1  -1.164294  0  -0.311315  -0.531449  0  2.309294  0
O  O159  1  0.27969303  0.01287729  0.94288984  1  -1.16001  0  -0.311085  -0.530855  0  2.311966  0
O  O160  1  0.61159778  0.31958716  0.30454140  1  -1.101608  0  -0.169974  -0.241862  0  2.508716  0
O  O161  1  0.29194352  0.68051747  0.19544361  1  -1.098036  0  -0.17068  -0.242208  0  2.50859  0
O  O162  1  0.38840674  0.68041499  0.69545887  1  -1.101547  0  -0.169989  -0.241862  0  2.508609  0
O  O163  1  0.70806086  0.31948172  0.80455832  1  -1.098005  0  -0.170727  -0.242175  0  2.508569  0
