# generated using pymatgen
data_ZnH29C38N7O4
_symmetry_space_group_name_H-M   'P 1'
_cell_length_a   14.68358793
_cell_length_b   15.38238906
_cell_length_c   16.56098974
_cell_angle_alpha   90.43736817
_cell_angle_beta   97.93050756
_cell_angle_gamma   99.73371914
_symmetry_Int_Tables_number   1
_chemical_formula_structural   ZnH29C38N7O4
_chemical_formula_sum   'Zn2 H58 C76 N14 O8'
_cell_volume   3649.66270299
_cell_formula_units_Z   2
loop_
 _symmetry_equiv_pos_site_id
 _symmetry_equiv_pos_as_xyz
  1  'x, y, z'
loop_
 _atom_site_type_symbol
 _atom_site_label
 _atom_site_symmetry_multiplicity
 _atom_site_fract_x
 _atom_site_fract_y
 _atom_site_fract_z
 _atom_site_occupancy
 _atom_site_pbe_bader_charge
 _atom_site_pbe_bader_spin_density
 _atom_site_pbe_cm5_charge
 _atom_site_pbe_ddec_charge
 _atom_site_pbe_ddec_spin_density
 _atom_site_pbe_ddec_sum_bond_order
 _atom_site_pbe_magmom
Zn  Zn0  1  0.59570905  0.48739027  0.52382237  1  1.289612  0  0.67757  0.835308  0  2.378472  0
Zn  Zn1  1  0.41164607  0.53110999  0.47316470  1  1.292711  0  0.681234  0.841177  0  2.363903  0
H  H2  1  0.41950864  0.54871486  0.22039887  1  0.054782  0  0.092451  0.095078  0  1.026786  0
H  H3  1  0.41508089  0.56517633  0.76573886  1  0.052506  0  0.101914  0.110477  0  0.991783  0
H  H4  1  0.64661800  0.17172876  0.51974979  1  0.060103  0  0.093454  0.104648  0  1.029223  0
H  H5  1  0.44330066  0.86640402  0.36470204  1  0.011544  0  0.092612  0.101791  0  1.035102  0
H  H6  1  0.99209860  0.64231255  0.31505908  1  0.071561  0  0.105738  0.112669  0  0.993463  0
H  H7  1  0.99361791  0.31102485  0.62204235  1  0.049941  0  0.103271  0.110113  0  1.003357  0
H  H8  1  0.76123079  0.51675107  0.45384653  1  0.146584  0  0.117826  0.092183  0  1.05156  0
H  H9  1  0.23193127  0.46484188  0.51260675  1  0.144346  0  0.120178  0.097159  0  1.036472  0
H  H10  1  0.15952260  0.68643403  0.31277027  1  0.058252  0  0.107355  0.126505  0  0.995315  0
H  H11  1  0.85017096  0.32779757  0.67876058  1  0.064171  0  0.103768  0.123909  0  0.99865  0
H  H12  1  0.39207188  0.51012463  0.90447710  1  0.053332  0  0.095164  0.098468  0  1.006543  0
H  H13  1  0.38592281  0.48719101  0.07741649  1  0.052327  0  0.094136  0.099279  0  1.013822  0
H  H14  1  0.53381305  0.22837871  0.50302454  1  0.08286  0  0.101116  0.110208  0  1.029898  0
H  H15  1  0.49152732  0.79276692  0.45472374  1  0.08783  0  0.096586  0.10601  0  1.042137  0
H  H16  1  0.70524999  0.35473958  0.72594250  1  0.445721  0  0.312182  0.306869  0  0.940379  0
H  H17  1  0.63091528  0.41656762  0.67120615  1  0.500402  0  0.29831  0.316798  0  0.999275  0
H  H18  1  0.32342641  0.70124036  0.29677724  1  0.412859  0  0.314681  0.306972  0  0.931647  0
H  H19  1  0.39628192  0.63452315  0.34568870  1  0.508328  0  0.302675  0.325097  0  0.988015  0
H  H20  1  0.83490899  0.68934885  0.39385983  1  0.078947  0  0.10103  0.102544  0  0.996399  0
H  H21  1  0.69919810  0.71019194  0.29293420  1  0.071278  0  0.101949  0.098609  0  0.988524  0
H  H22  1  0.63093324  0.59346873  0.18581355  1  0.035925  0  0.096663  0.092153  0  1.014562  0
H  H23  1  0.69472946  0.45388859  0.18420498  1  0.079581  0  0.096828  0.090594  0  1.029481  0
H  H24  1  0.82597443  0.43050063  0.28859443  1  0.057582  0  0.096529  0.095923  0  1.000658  0
H  H25  1  0.16939385  0.35519742  0.66348369  1  0.073577  0  0.100792  0.101457  0  0.997849  0
H  H26  1  0.27665575  0.24666784  0.66562686  1  0.072181  0  0.093335  0.084088  0  1.053777  0
H  H27  1  0.29288040  0.16894273  0.53746101  1  0.074353  0  0.101494  0.101146  0  0.998474  0
H  H28  1  0.20137161  0.20120077  0.40678046  1  0.062335  0  0.0926  0.083308  0  1.035973  0
H  H29  1  0.09533237  0.31157483  0.40366725  1  0.061913  0  0.095806  0.095235  0  1.004765  0
H  H30  1  0.49799976  0.24778931  0.70470236  1  0.43425  0  0.298182  0.284566  0  0.954625  0
H  H31  1  0.47550288  0.31518340  0.62736671  1  0.472965  0  0.290594  0.297493  0  0.990463  0
H  H32  1  0.57167701  0.26438227  0.29970016  1  0.421151  0  0.299327  0.290956  0  0.954088  0
H  H33  1  0.60316014  0.36016953  0.35744787  1  0.486658  0  0.293515  0.303243  0  0.987767  0
H  H34  1  0.23137516  0.40230891  0.87932686  1  0.080618  0  0.097417  0.098671  0  1.029204  0
H  H35  1  0.07161703  0.37593157  0.91686480  1  0.039002  0  0.09794  0.093184  0  0.997657  0
H  H36  1  0.03726698  0.28633598  0.03747215  1  0.080688  0  0.098451  0.094253  0  1.000836  0
H  H37  1  0.16400548  0.22177968  0.11826877  1  0.03769  0  0.090509  0.078952  0  1.021085  0
H  H38  1  0.32497391  0.25064476  0.08192123  1  0.054828  0  0.096533  0.096497  0  1.027704  0
H  H39  1  0.59813625  0.50729945  0.04205585  1  0.067264  0  0.101261  0.10159  0  1.006583  0
H  H40  1  0.75632151  0.53170702  0.00037830  1  0.046502  0  0.102168  0.098792  0  0.990356  0
H  H41  1  0.80968294  0.41203092  0.92645440  1  0.032232  0  0.095347  0.088658  0  1.005504  0
H  H42  1  0.70177078  0.26848280  0.89268291  1  0.055158  0  0.09467  0.088608  0  1.002351  0
H  H43  1  0.54233487  0.24671055  0.93021419  1  0.079551  0  0.092914  0.092492  0  1.046495  0
H  H44  1  0.55229126  0.25087108  0.08731480  1  0.445079  0  0.289394  0.280555  0  0.990448  0
H  H45  1  0.61174254  0.25832469  0.18241761  1  0.426199  0  0.297572  0.285378  0  0.96179  0
H  H46  1  0.38365487  0.18796504  0.77279610  1  0.42233  0  0.29748  0.283921  0  0.966213  0
H  H47  1  0.37082275  0.20401546  0.87114397  1  0.422029  0  0.298051  0.287499  0  0.954501  0
H  H48  1  0.78516900  0.15929072  0.58616782  1  0.420878  0  0.289675  0.277286  0  0.972401  0
H  H49  1  0.83105514  0.06797201  0.58206916  1  0.434242  0  0.300548  0.291907  0  0.946108  0
H  H50  1  0.35160230  0.89469076  0.24372795  1  0.390107  0  0.291327  0.280945  0  0.964774  0
H  H51  1  0.31243700  0.99340163  0.22887544  1  0.46905  0  0.276425  0.273389  0  1.048602  0
H  H52  1  0.31401249  0.34394727  0.33194351  1  0.485045  0  0.299628  0.315529  0  0.972593  0
H  H53  1  0.25207511  0.26032267  0.26457320  1  0.429577  0  0.294539  0.268928  0  0.999795  0
H  H54  1  0.73837474  0.68951758  0.60436326  1  0.464727  0  0.289002  0.298166  0  0.990071  0
H  H55  1  0.82347579  0.77842591  0.62925350  1  0.411692  0  0.293982  0.280211  0  0.965733  0
H  H56  1  0.80281000  0.88631598  0.69785940  1  0.407006  0  0.291434  0.278577  0  0.973309  0
H  H57  1  0.79659432  0.99162941  0.67386114  1  0.450327  0  0.286219  0.278002  0  1.008142  0
H  H58  1  0.22222797  0.09602699  0.25192774  1  0.407343  0  0.29285  0.2722  0  0.952096  0
H  H59  1  0.29359469  0.16041827  0.19961243  1  0.395028  0  0.288615  0.270192  0  0.982732  0
C  C60  1  0.57696290  0.67251733  0.52382313  1  1.528292  0  0.220848  0.621653  0  4.128353  0
C  C61  1  0.43779080  0.34665857  0.45462588  1  1.532745  0  0.208541  0.590289  0  4.157538  0
C  C62  1  0.61256527  0.76918264  0.53110937  1  0.018513  0  -0.033949  -0.132858  0  4.017022  0
C  C63  1  0.42645086  0.25809781  0.41496891  1  0.015991  0  -0.036582  -0.155441  0  4.015128  0
C  C64  1  0.71972750  0.89838645  0.59247020  1  0.36462  0  0.072246  0.142184  0  4.028811  0
C  C65  1  0.35401486  0.14007474  0.31499324  1  0.344359  0  0.054882  0.093951  0  3.950916  0
C  C66  1  0.69728173  0.80597083  0.58027477  1  0.372035  0  0.078148  0.164761  0  4.058757  0
C  C67  1  0.36208506  0.22820033  0.34337473  1  0.400442  0  0.094518  0.190406  0  4.0948  0
C  C68  1  0.55758442  0.82403083  0.48915035  1  -0.014819  0  -0.103129  -0.161612  0  4.029188  0
C  C69  1  0.48457639  0.20224548  0.44982489  1  -0.116769  0  -0.090997  -0.133273  0  4.017056  0
C  C70  1  0.58401819  0.91594423  0.49201715  1  0.012966  0  -0.020186  0.030895  0  4.025418  0
C  C71  1  0.48011387  0.11546868  0.42196823  1  0.039685  0  -0.023283  0.016009  0  4.044177  0
C  C72  1  0.66649274  0.95496169  0.54615226  1  -0.022546  0  -0.021336  -0.107793  0  3.957763  0
C  C73  1  0.40941944  0.08106516  0.35518776  1  -0.002355  0  -0.010996  -0.077696  0  3.937263  0
C  C74  1  0.52680599  0.97086872  0.44483758  1  -0.016466  0  -0.019519  0.034833  0  4.044084  0
C  C75  1  0.54420785  0.06241664  0.46198766  1  0.011131  0  -0.025014  0.026713  0  4.057486  0
C  C76  1  0.62700697  0.10002014  0.51386702  1  -0.017344  0  -0.125764  -0.280767  0  4.028238  0
C  C77  1  0.45496751  0.93678258  0.38073212  1  -0.011072  0  -0.117642  -0.265604  0  3.986788  0
C  C78  1  0.68933406  0.05003841  0.55124144  1  0.305047  0  0.071493  0.237348  0  4.080175  0
C  C79  1  0.40044675  0.98824208  0.33380900  1  0.359725  0  0.079984  0.251094  0  4.092534  0
C  C80  1  0.17330588  0.63568487  0.35620644  1  -0.009268  0  -0.107088  -0.311591  0  3.945555  0
C  C81  1  0.83254004  0.37020362  0.62849874  1  -0.016847  0  -0.115276  -0.326689  0  3.961263  0
C  C82  1  0.52314411  0.49463847  0.34706013  1  1.517143  0  0.208595  0.598477  0  4.163277  0
C  C83  1  0.46084683  0.47603849  0.64248484  1  1.567016  0  0.224315  0.626808  0  4.144099  0
C  C84  1  0.26389615  0.61930538  0.37729304  1  0.941855  0  0.221118  0.444555  0  4.104633  0
C  C85  1  0.74712349  0.40001797  0.61944846  1  0.968855  0  0.217251  0.44122  0  4.115556  0
C  C86  1  0.21038475  0.51012572  0.46654580  1  0.450662  0  0.059434  0.084459  0  3.889769  0
C  C87  1  0.78586106  0.47614747  0.50285644  1  0.465655  0  0.056905  0.08409  0  3.890627  0
C  C88  1  0.11586774  0.51775397  0.44499509  1  0.07912  0  -0.015983  -0.047455  0  3.979391  0
C  C89  1  0.87577016  0.45419926  0.50989854  1  0.02991  0  -0.016841  -0.045012  0  3.97285  0
C  C90  1  0.09920681  0.58574496  0.38910425  1  -0.045802  0  -0.001551  0.128771  0  4.09634  0
C  C91  1  0.89722491  0.39671680  0.57493967  1  -0.013669  0  -0.001668  0.131252  0  4.096838  0
C  C92  1  0.03827458  0.46712980  0.47905091  1  -0.002271  0  0.002215  -0.0009  0  3.905591  0
C  C93  1  0.94729536  0.48960011  0.46071007  1  -0.009493  0  0.002226  -0.002897  0  3.907737  0
C  C94  1  0.93150492  0.54981287  0.39530494  1  -0.071106  0  0.00545  0.047601  0  3.960438  0
C  C95  1  0.04983786  0.39438415  0.53264937  1  -0.005093  0  0.005218  0.0505  0  3.962185  0
C  C96  1  0.00585573  0.59730784  0.36412826  1  -0.007161  0  -0.08823  -0.185602  0  3.967258  0
C  C97  1  0.98286692  0.36467875  0.58097386  1  -0.037293  0  -0.09449  -0.19746  0  3.971567  0
C  C98  1  0.50277965  0.45226402  0.26455429  1  -0.009614  0  -0.034932  -0.151392  0  3.985222  0
C  C99  1  0.43493322  0.43883453  0.72094971  1  0.017177  0  -0.03134  -0.128528  0  4.004857  0
C  C100  1  0.44605398  0.49010600  0.20375992  1  -0.01332  0  -0.109548  -0.113309  0  4.08396  0
C  C101  1  0.41512230  0.49605525  0.77960651  1  -0.006533  0  -0.109154  -0.126884  0  4.087909  0
C  C102  1  0.42699821  0.45574693  0.12484608  1  -0.005477  0  -0.112373  -0.159254  0  4.077943  0
C  C103  1  0.40110536  0.46509381  0.85614817  1  -0.036878  0  -0.112435  -0.157475  0  4.092524  0
C  C104  1  0.46517458  0.38197172  0.10303072  1  -0.037252  0  -0.0232  -0.024406  0  4.032831  0
C  C105  1  0.39841944  0.37540448  0.87291062  1  -0.001809  0  -0.027164  -0.032519  0  4.044344  0
C  C106  1  0.51632069  0.33966867  0.16381301  1  0.397801  0  0.081071  0.13603  0  4.046408  0
C  C107  1  0.41054121  0.31649804  0.81187652  1  0.385101  0  0.078123  0.137144  0  4.057389  0
C  C108  1  0.53555744  0.37421948  0.24560027  1  0.432344  0  0.098267  0.198766  0  4.012882  0
C  C109  1  0.43599519  0.34945684  0.73679407  1  0.357441  0  0.082805  0.166098  0  4.048813  0
C  C110  1  0.46437630  0.36232185  0.01514665  1  -0.051094  0  -0.005824  -0.022321  0  3.927431  0
C  C111  1  0.38617884  0.35013220  0.95822563  1  -0.033878  0  -0.011654  -0.029927  0  3.947238  0
C  C112  1  0.83953180  0.55862604  0.34779083  1  0.001996  0  -0.012415  0.056725  0  4.019233  0
C  C113  1  0.80331311  0.63727734  0.34849551  1  -0.095552  0  -0.094012  -0.14001  0  3.990487  0
C  C114  1  0.72761533  0.64924441  0.29111517  1  -0.052297  0  -0.092711  -0.072372  0  4.024457  0
C  C115  1  0.68931864  0.58396028  0.23122996  1  -0.009404  0  -0.096478  -0.093012  0  4.021704  0
C  C116  1  0.72459089  0.50514412  0.23065976  1  -0.065697  0  -0.09144  -0.065642  0  4.021904  0
C  C117  1  0.79806516  0.49184709  0.28936323  1  -0.039893  0  -0.093201  -0.132034  0  3.974543  0
C  C118  1  0.12484806  0.34047579  0.53345653  1  -0.016277  0  -0.012317  0.059157  0  4.019359  0
C  C119  1  0.17596636  0.32106980  0.60712430  1  -0.083017  0  -0.09331  -0.135173  0  3.976758  0
C  C120  1  0.23593659  0.25972250  0.60843846  1  -0.024583  0  -0.093119  -0.065003  0  4.025306  0
C  C121  1  0.24530088  0.21632644  0.53652764  1  -0.030047  0  -0.093815  -0.085902  0  3.998478  0
C  C122  1  0.19446909  0.23514365  0.46299317  1  -0.053979  0  -0.096441  -0.072934  0  4.036649  0
C  C123  1  0.13543438  0.29734071  0.46108293  1  -0.093814  0  -0.096432  -0.140961  0  3.989144  0
C  C124  1  0.29034036  0.33036329  0.97910200  1  -0.067912  0  -0.011319  0.072858  0  4.010154  0
C  C125  1  0.21675068  0.36316210  0.93210583  1  -0.051246  0  -0.094931  -0.129697  0  3.964868  0
C  C126  1  0.12682647  0.34808479  0.95330453  1  -0.016395  0  -0.100947  -0.090109  0  4.061277  0
C  C127  1  0.10755287  0.29812670  0.02085702  1  -0.140294  0  -0.102567  -0.099967  0  4.04829  0
C  C128  1  0.17925183  0.26262170  0.06648967  1  0.018601  0  -0.103452  -0.089581  0  4.063067  0
C  C129  1  0.26932236  0.27835470  0.04604870  1  -0.042263  0  -0.094456  -0.13336  0  3.988143  0
C  C130  1  0.55928808  0.37535572  0.98937064  1  -0.036041  0  -0.007796  0.071728  0  4.001125  0
C  C131  1  0.62116701  0.45515829  0.00916997  1  0.016436  0  -0.084575  -0.11556  0  3.954138  0
C  C132  1  0.71000974  0.46867710  0.98576917  1  -0.083997  0  -0.095334  -0.083486  0  4.033465  0
C  C133  1  0.73965690  0.40177231  0.94376048  1  -0.054967  0  -0.101248  -0.099457  0  4.05529  0
C  C134  1  0.67926010  0.32168040  0.92469443  1  -0.025107  0  -0.103185  -0.092803  0  4.058903  0
C  C135  1  0.58971292  0.30871107  0.94698923  1  -0.102976  0  -0.09863  -0.140219  0  3.995066  0
N  N136  1  0.28085804  0.55791137  0.43446552  1  -1.244667  0  -0.332422  -0.308134  0  3.450558  0
N  N137  1  0.72413918  0.45036869  0.55417590  1  -1.247196  0  -0.337155  -0.316938  0  3.44825  0
N  N138  1  0.68348355  0.37984761  0.67177057  1  -1.273953  0  -0.582452  -0.634926  0  3.316445  0
N  N139  1  0.33833254  0.66372647  0.34509887  1  -1.226728  0  -0.579364  -0.631084  0  3.298267  0
N  N140  1  0.45549442  0.28951300  0.68022759  1  -1.241491  0  -0.602655  -0.613817  0  3.325938  0
N  N141  1  0.59134562  0.33115435  0.30043593  1  -1.230517  0  -0.602315  -0.61737  0  3.331309  0
N  N142  1  0.55000161  0.26284134  0.14740935  1  -1.22354  0  -0.60354  -0.599669  0  3.314004  0
N  N143  1  0.40645043  0.22593105  0.82470300  1  -1.217477  0  -0.600473  -0.609668  0  3.337709  0
N  N144  1  0.77488102  0.09320181  0.59565972  1  -1.206674  0  -0.608638  -0.627416  0  3.28504  0
N  N145  1  0.33483638  0.94892600  0.26928102  1  -1.214757  0  -0.622649  -0.637629  0  3.330402  0
N  N146  1  0.31154069  0.28530251  0.30171071  1  -1.237281  0  -0.599187  -0.605513  0  3.399414  0
N  N147  1  0.75406777  0.75377445  0.62503044  1  -1.209878  0  -0.613907  -0.621602  0  3.305881  0
N  N148  1  0.79688123  0.92964131  0.65185964  1  -1.201924  0  -0.619832  -0.626703  0  3.309109  0
N  N149  1  0.29002981  0.11206877  0.24156573  1  -1.1508  0  -0.602918  -0.602256  0  3.301579  0
O  O150  1  0.63665765  0.61980759  0.52888337  1  -1.167764  0  -0.319562  -0.556132  0  2.332002  0
O  O151  1  0.38395117  0.40063421  0.42747224  1  -1.172186  0  -0.301953  -0.533903  0  2.332328  0
O  O152  1  0.48882591  0.64864190  0.51266497  1  -1.160956  0  -0.317277  -0.542275  0  2.348258  0
O  O153  1  0.50344126  0.36609872  0.51468884  1  -1.197298  0  -0.327044  -0.583159  0  2.384477  0
O  O154  1  0.58606832  0.46911648  0.39897774  1  -1.174503  0  -0.308168  -0.543541  0  2.354789  0
O  O155  1  0.39567441  0.49154672  0.58896199  1  -1.161759  0  -0.304837  -0.527203  0  2.306889  0
O  O156  1  0.47618747  0.55327641  0.36474699  1  -1.192125  0  -0.32673  -0.582151  0  2.341366  0
O  O157  1  0.54801917  0.48958030  0.63622868  1  -1.17486  0  -0.314109  -0.555749  0  2.331273  0
