# generated using pymatgen
data_Zr3H8C20(N3O8)2
_symmetry_space_group_name_H-M   'P 1'
_cell_length_a   17.18337434
_cell_length_b   17.17816089
_cell_length_c   32.01545533
_cell_angle_alpha   90.04354888
_cell_angle_beta   89.89360240
_cell_angle_gamma   89.94018855
_symmetry_Int_Tables_number   1
_chemical_formula_structural   Zr3H8C20(N3O8)2
_chemical_formula_sum   'Zr12 H32 C80 N24 O64'
_cell_volume   9450.25850480
_cell_formula_units_Z   4
loop_
 _symmetry_equiv_pos_site_id
 _symmetry_equiv_pos_as_xyz
  1  'x, y, z'
loop_
 _atom_site_type_symbol
 _atom_site_label
 _atom_site_symmetry_multiplicity
 _atom_site_fract_x
 _atom_site_fract_y
 _atom_site_fract_z
 _atom_site_occupancy
 _atom_site_pbe_bader_charge
 _atom_site_pbe_bader_spin_density
 _atom_site_pbe_cm5_charge
 _atom_site_pbe_ddec_charge
 _atom_site_pbe_ddec_spin_density
 _atom_site_pbe_ddec_sum_bond_order
 _atom_site_pbe_magmom
Zr  Zr0  1  0.05616655  0.90417395  0.45304563  1  2.623726  0  1.586617  2.376338  0  2.760665  0
Zr  Zr1  1  0.04810281  0.91329254  0.56406409  1  2.629474  0  1.590938  2.392037  0  2.748871  0
Zr  Zr2  1  0.91147708  0.04980123  0.44809879  1  2.616138  0  1.575056  2.364265  0  2.808276  0
Zr  Zr3  1  0.89894542  0.05817361  0.55889016  1  2.615234  0  1.565792  2.370715  0  2.809269  0
Zr  Zr4  1  0.87595990  0.87764307  0.50538245  1  2.618522  0  1.60742  2.36069  0  2.726255  0
Zr  Zr5  1  0.08249384  0.08498422  0.50610010  1  2.634798  0  1.609743  2.365781  0  2.729156  0
Zr  Zr6  1  0.39278509  0.39916271  0.95173489  1  2.613214  0  1.563871  2.366215  0  2.816603  0
Zr  Zr7  1  0.40511222  0.41008218  0.06247538  1  2.616609  0  1.574232  2.372567  0  2.803054  0
Zr  Zr8  1  0.54072148  0.54312712  0.94719157  1  2.61401  0  1.572192  2.361576  0  2.81601  0
Zr  Zr9  1  0.54868039  0.55773740  0.05795990  1  2.613458  0  1.565398  2.367668  0  2.814801  0
Zr  Zr10  1  0.36849008  0.58094395  0.00423909  1  2.60116  0  1.603877  2.358895  0  2.72893  0
Zr  Zr11  1  0.57626592  0.37335103  0.00543920  1  2.635221  0  1.608239  2.361445  0  2.740365  0
H  H12  1  0.17571386  0.94351507  0.50664558  1  0.579651  0  0.330108  0.422309  0  0.859646  0
H  H13  1  0.89434647  0.90421481  0.59348204  1  0.62196  0  0.332026  0.427643  0  0.855566  0
H  H14  1  0.92861312  0.17656147  0.50503256  1  0.6229  0  0.329574  0.436438  0  0.843836  0
H  H15  1  0.90292684  0.89785075  0.41639845  1  0.61647  0  0.338259  0.440695  0  0.829696  0
H  H16  1  0.02289165  0.89228307  0.64786801  1  0.602836  0  0.310852  0.406551  0  0.883159  0
H  H17  1  0.96592008  0.99596149  0.63180447  1  0.635819  0  0.285146  0.410259  0  0.927911  0
H  H18  1  0.77022045  0.14156439  0.55855907  1  0.581152  0  0.299423  0.408502  0  0.884995  0
H  H19  1  0.83725879  0.19114526  0.42370834  1  0.660644  0  0.345015  0.431182  0  0.847967  0
H  H20  1  0.94170549  0.07319339  0.36717419  1  0.600121  0  0.301179  0.395731  0  0.902536  0
H  H21  1  0.99297901  0.96887409  0.38001506  1  0.640324  0  0.283768  0.407419  0  0.932671  0
H  H22  1  0.13847467  0.77278496  0.45696699  1  0.603809  0  0.306079  0.401895  0  0.893165  0
H  H23  1  0.14513597  0.81528290  0.51591825  1  0.645872  0  0.283553  0.407695  0  0.932698  0
H  H24  1  0.77284243  0.12528687  0.43029286  1  0.640585  0  0.340567  0.430845  0  0.854776  0
H  H25  1  0.08391602  0.94525286  0.37113819  1  0.612023  0  0.330637  0.419681  0  0.863648  0
H  H26  1  0.19022150  0.82808413  0.56069955  1  0.600302  0  0.333246  0.416811  0  0.860838  0
H  H27  1  0.93995782  0.08607228  0.64036824  1  0.626825  0  0.333962  0.424972  0  0.856211  0
H  H28  1  0.42268553  0.28153731  0.00627515  1  0.593596  0  0.328753  0.434595  0  0.846807  0
H  H29  1  0.39388590  0.56299579  0.09256815  1  0.593106  0  0.332346  0.427854  0  0.853378  0
H  H30  1  0.66754771  0.52739465  0.00426337  1  0.636772  0  0.328669  0.435316  0  0.846371  0
H  H31  1  0.38950130  0.55424793  0.91560092  1  0.600664  0  0.338077  0.440637  0  0.830691  0
H  H32  1  0.37591654  0.44087843  0.14537945  1  0.591411  0  0.304653  0.400245  0  0.893647  0
H  H33  1  0.48407116  0.49051802  0.13094353  1  0.650405  0  0.285648  0.408176  0  0.928991  0
H  H34  1  0.63255678  0.68598981  0.05758302  1  0.584763  0  0.299979  0.408851  0  0.884394  0
H  H35  1  0.68223899  0.61697889  0.92282833  1  0.647832  0  0.34394  0.429931  0  0.84964  0
H  H36  1  0.56453228  0.51304183  0.86636428  1  0.593597  0  0.301238  0.395933  0  0.902023  0
H  H37  1  0.45870636  0.46156557  0.87894634  1  0.648697  0  0.285222  0.406535  0  0.932531  0
H  H38  1  0.26532112  0.31456855  0.95040733  1  0.619593  0  0.300144  0.408614  0  0.884903  0
H  H39  1  0.33472329  0.26986873  0.08564004  1  0.645002  0  0.340986  0.428048  0  0.856348  0
H  H40  1  0.61630446  0.68129814  0.92975533  1  0.634308  0  0.338325  0.42919  0  0.858432  0
H  H41  1  0.43431836  0.37114530  0.87050476  1  0.662118  0  0.332787  0.422968  0  0.860552  0
H  H42  1  0.26595312  0.33141371  0.07961747  1  0.646276  0  0.340262  0.429204  0  0.854596  0
H  H43  1  0.57393000  0.51507746  0.13970766  1  0.673282  0  0.334439  0.425795  0  0.855385  0
C  C44  1  0.94853391  0.74996439  0.44101243  1  1.717794  0  0.249441  0.706671  0  4.18449  0
C  C45  1  0.20219712  0.02223948  0.57628545  1  1.711136  0  0.24586  0.704534  0  4.184722  0
C  C46  1  0.94268206  0.75512956  0.57269697  1  1.714326  0  0.247234  0.70601  0  4.181002  0
C  C47  1  0.20411872  0.02172909  0.43618205  1  1.697887  0  0.245417  0.704111  0  4.184105  0
C  C48  1  0.02299467  0.20377659  0.43378803  1  1.689417  0  0.245492  0.707846  0  4.187635  0
C  C49  1  0.74573856  0.94453927  0.56836872  1  1.695888  0  0.246348  0.701184  0  4.186657  0
C  C50  1  0.02225212  0.20601260  0.57450347  1  1.681303  0  0.247885  0.705127  0  4.190752  0
C  C51  1  0.75032531  0.94484530  0.43952349  1  1.692654  0  0.249962  0.710581  0  4.178679  0
C  C52  1  0.54146988  0.96279246  0.38039068  1  1.227239  0  0.269932  0.438466  0  4.085762  0
C  C53  1  0.47927495  0.97596008  0.31869766  1  1.156271  0  0.272725  0.445182  0  4.084373  0
C  C54  1  0.41458907  0.99724580  0.37918444  1  1.177457  0  0.271628  0.442281  0  4.08448  0
C  C55  1  0.99911622  0.41560407  0.37841809  1  1.228684  0  0.268513  0.439386  0  4.092238  0
C  C56  1  0.97818571  0.48051635  0.31814213  1  1.16264  0  0.271269  0.442868  0  4.087945  0
C  C57  1  0.96509749  0.54261694  0.37999551  1  1.13548  0  0.271113  0.439856  0  4.085926  0
C  C58  1  0.99973442  0.41746015  0.63038136  1  1.094187  0  0.271377  0.44224  0  4.085039  0
C  C59  1  0.96444601  0.54418101  0.62940574  1  1.213307  0  0.27086  0.439699  0  4.08903  0
C  C60  1  0.97921580  0.48181246  0.69095049  1  1.250663  0  0.271004  0.439488  0  4.093971  0
C  C61  1  0.53927889  0.96169799  0.62987519  1  1.236285  0  0.269997  0.441021  0  4.086187  0
C  C62  1  0.47909814  0.97817769  0.69203159  1  1.150955  0  0.271699  0.442348  0  4.085694  0
C  C63  1  0.41321104  0.99897651  0.63209490  1  1.21629  0  0.270462  0.439709  0  4.09  0
C  C64  1  0.03271515  0.49205909  0.12893994  1  1.166951  0  0.268979  0.437051  0  4.094528  0
C  C65  1  0.90606851  0.45706466  0.13109653  1  1.204668  0  0.272861  0.444917  0  4.080161  0
C  C66  1  0.97210475  0.47763286  0.19105516  1  1.218244  0  0.271002  0.441271  0  4.094559  0
C  C67  1  0.23966682  0.51283341  0.94120282  1  1.702046  0  0.247394  0.703523  0  4.190337  0
C  C68  1  0.51582361  0.25401402  0.07616433  1  1.722221  0  0.2457  0.704003  0  4.19302  0
C  C69  1  0.24234971  0.51325047  0.07058809  1  1.675925  0  0.246264  0.708784  0  4.184295  0
C  C70  1  0.51818261  0.25305101  0.93620564  1  1.689717  0  0.246908  0.703774  0  4.191061  0
C  C71  1  0.69547575  0.43238557  0.93338612  1  1.688175  0  0.245675  0.708945  0  4.185849  0
C  C72  1  0.43484280  0.71073198  0.06770447  1  1.674211  0  0.246033  0.700786  0  4.189631  0
C  C73  1  0.69551633  0.43430826  0.07467792  1  1.688206  0  0.247861  0.703376  0  4.191117  0
C  C74  1  0.43820086  0.70662234  0.93906187  1  1.685383  0  0.249046  0.711106  0  4.17633  0
C  C75  1  0.45568410  0.91625702  0.12951440  1  1.198404  0  0.271729  0.443233  0  4.082776  0
C  C76  1  0.47722292  0.97515544  0.19151767  1  1.135906  0  0.271165  0.439242  0  4.094272  0
C  C77  1  0.49407582  0.04196977  0.13145116  1  1.167272  0  0.269143  0.439586  0  4.089792  0
C  C78  1  0.03304223  0.49553117  0.88027524  1  1.21126  0  0.271293  0.441563  0  4.082181  0
C  C79  1  0.97320213  0.47973421  0.81803774  1  1.164368  0  0.27181  0.44236  0  4.086398  0
C  C80  1  0.90712199  0.45826381  0.87794629  1  1.125349  0  0.268128  0.436507  0  4.095705  0
C  C81  1  0.46218728  0.91571153  0.88077321  1  1.239298  0  0.27002  0.43855  0  4.090462  0
C  C82  1  0.49802338  0.04211365  0.87976301  1  1.114914  0  0.271858  0.443611  0  4.083839  0
C  C83  1  0.48050031  0.97695909  0.81916705  1  1.274069  0  0.272947  0.443099  0  4.087788  0
C  C84  1  0.77228842  0.43074812  0.91477714  1  0.154331  0  -0.010397  -0.123484  0  3.871428  0
C  C85  1  0.83557595  0.44057127  0.89855712  1  -0.334168  0  0.001363  -0.055046  0  3.947196  0
C  C86  1  0.16376301  0.51709183  0.92173203  1  0.122964  0  -0.000203  -0.101681  0  3.849539  0
C  C87  1  0.10223985  0.51071636  0.90331494  1  -0.327679  0  0.001895  -0.061127  0  3.941383  0
C  C88  1  0.43074383  0.78640549  0.08758730  1  0.014774  0  -0.002245  -0.104136  0  3.850551  0
C  C89  1  0.43847000  0.84749728  0.10637413  1  -0.180889  0  0.002309  -0.06092  0  3.93992  0
C  C90  1  0.51873626  0.17719249  0.09469771  1  -0.256439  0  -0.004632  -0.111633  0  3.8606  0
C  C91  1  0.51031072  0.11365039  0.11080967  1  0.055544  0  -0.000129  -0.061435  0  3.948043  0
C  C92  1  0.43758893  0.78375439  0.92088499  1  -0.162914  0  -0.006761  -0.118522  0  3.86214  0
C  C93  1  0.44603845  0.84579846  0.90317792  1  -0.041423  0  0.003615  -0.05337  0  3.943564  0
C  C94  1  0.52190303  0.17663265  0.91726098  1  -0.025619  0  -0.002144  -0.105659  0  3.857696  0
C  C95  1  0.51390857  0.11325813  0.90089225  1  -0.137609  0  0.0005  -0.062206  0  3.9478  0
C  C96  1  0.83473177  0.44032693  0.11045566  1  -0.428155  0  -0.000361  -0.065643  0  3.947553  0
C  C97  1  0.77151357  0.43153016  0.09410424  1  0.251651  0  0.000255  -0.100958  0  3.851976  0
C  C98  1  0.10264861  0.50657359  0.10615369  1  -0.174784  0  0.001964  -0.054711  0  3.947308  0
C  C99  1  0.16501610  0.51417262  0.08860730  1  0.000154  0  -0.008356  -0.119845  0  3.867746  0
C  C100  1  0.48067100  0.97616303  0.77456476  1  -0.189494  0  0.01109  -0.061028  0  3.91386  0
C  C101  1  0.48059683  0.97668293  0.73661329  1  -0.011095  0  0.010854  -0.062722  0  3.915493  0
C  C102  1  0.97705513  0.48210580  0.73555028  1  -0.207405  0  0.011954  -0.057409  0  3.915309  0
C  C103  1  0.97542435  0.48134909  0.77348643  1  0.004081  0  0.009296  -0.066719  0  3.920198  0
C  C104  1  0.97561867  0.48087174  0.27356982  1  -0.253538  0  0.009336  -0.06493  0  3.917125  0
C  C105  1  0.97406043  0.47957949  0.23563952  1  0.050902  0  0.011032  -0.060391  0  3.916208  0
C  C106  1  0.47860481  0.97326721  0.23613738  1  -0.037564  0  0.011836  -0.058093  0  3.913555  0
C  C107  1  0.47966472  0.97381396  0.27409040  1  -0.028002  0  0.008946  -0.066712  0  3.915897  0
C  C108  1  0.34177923  0.01625257  0.61146417  1  -0.244405  0  0.002019  -0.057214  0  3.940426  0
C  C109  1  0.27848625  0.02518650  0.59521934  1  0.060527  0  -0.005015  -0.112011  0  3.860925  0
C  C110  1  0.66987921  0.93994644  0.58800543  1  0.152211  0  -0.002601  -0.105222  0  3.855385  0
C  C111  1  0.60852246  0.94639695  0.60670703  1  -0.360815  0  0.001199  -0.061343  0  3.94414  0
C  C112  1  0.28033883  0.02355842  0.41685308  1  0.189355  0  -0.005085  -0.111951  0  3.859512  0
C  C113  1  0.34344350  0.01430504  0.40028962  1  -0.374366  0  0.001754  -0.057732  0  3.94113  0
C  C114  1  0.61173901  0.94899731  0.40287376  1  -0.032442  0  0.00266  -0.055973  0  3.940239  0
C  C115  1  0.67375610  0.94240255  0.42079698  1  -0.163501  0  -0.004624  -0.11361  0  3.857858  0
C  C116  1  0.02514996  0.28267152  0.59326435  1  0.013554  0  -0.001754  -0.105555  0  3.852939  0
C  C117  1  0.01647878  0.34629161  0.60932295  1  -0.136945  0  0.001526  -0.06122  0  3.943463  0
C  C118  1  0.94201060  0.67769354  0.59048289  1  -0.566771  0  -0.002744  -0.107266  0  3.854381  0
C  C119  1  0.94962602  0.61472757  0.60733753  1  0.338826  0  0.002731  -0.057636  0  3.940736  0
C  C120  1  0.01583112  0.34414493  0.39925844  1  -0.187066  0  0.000684  -0.057405  0  3.949699  0
C  C121  1  0.02501282  0.28064905  0.41530262  1  0.00406  0  -0.009545  -0.120951  0  3.870151  0
C  C122  1  0.94554278  0.67432295  0.42117093  1  -0.231681  0  0.000224  -0.103088  0  3.850998  0
C  C123  1  0.95153995  0.61265500  0.40275466  1  0.026327  0  0.003547  -0.057527  0  3.938524  0
N  N124  1  0.54601654  0.95777326  0.33839689  1  -1.166061  0  -0.295724  -0.393401  0  3.074529  0
N  N125  1  0.41176915  0.99651882  0.33708969  1  -1.124432  0  -0.296358  -0.395193  0  3.080061  0
N  N126  1  0.47764145  0.98166895  0.40273023  1  -1.086474  0  -0.294303  -0.390533  0  3.072417  0
N  N127  1  0.99841184  0.41280090  0.33633075  1  -1.157555  0  -0.296994  -0.397462  0  3.083773  0
N  N128  1  0.96031685  0.54727029  0.33800540  1  -1.076646  0  -0.293466  -0.38946  0  3.072692  0
N  N129  1  0.98358660  0.47848806  0.40214896  1  -1.100776  0  -0.293747  -0.389607  0  3.074217  0
N  N130  1  0.98316441  0.48049075  0.60694765  1  -1.108402  0  -0.293258  -0.388966  0  3.073441  0
N  N131  1  0.96018892  0.54850677  0.67144694  1  -1.130116  0  -0.296113  -0.394176  0  3.079937  0
N  N132  1  0.00002901  0.41456205  0.67249500  1  -1.086015  0  -0.293994  -0.390662  0  3.079768  0
N  N133  1  0.54480171  0.95771553  0.67185526  1  -1.145566  0  -0.293992  -0.391122  0  3.073976  0
N  N134  1  0.41163195  0.00002976  0.67419398  1  -1.167174  0  -0.294782  -0.390951  0  3.075311  0
N  N135  1  0.47509863  0.98104484  0.60804138  1  -1.103606  0  -0.296065  -0.394449  0  3.080292  0
N  N136  1  0.96856010  0.47337799  0.10708553  1  -1.137283  0  -0.294084  -0.389132  0  3.073739  0
N  N137  1  0.90438334  0.45692381  0.17324903  1  -1.128118  0  -0.295272  -0.392624  0  3.078246  0
N  N138  1  0.03828570  0.49644596  0.17090375  1  -1.072596  0  -0.297714  -0.397024  0  3.082777  0
N  N139  1  0.45464022  0.91004889  0.17154817  1  -1.137923  0  -0.295607  -0.392456  0  3.075984  0
N  N140  1  0.49847351  0.04268794  0.17350809  1  -1.128104  0  -0.296509  -0.393978  0  3.080327  0
N  N141  1  0.47379429  0.98070018  0.10757101  1  -1.09784  0  -0.295671  -0.392693  0  3.076294  0
N  N142  1  0.03867871  0.50001428  0.83830486  1  -1.154283  0  -0.293909  -0.38904  0  3.071174  0
N  N143  1  0.90557982  0.45788966  0.83585552  1  -1.053112  0  -0.297057  -0.395138  0  3.081624  0
N  N144  1  0.96880637  0.47574529  0.90206221  1  -1.085355  0  -0.294908  -0.391941  0  3.075699  0
N  N145  1  0.47998608  0.97952106  0.90323454  1  -1.09266  0  -0.294728  -0.391157  0  3.075979  0
N  N146  1  0.50058706  0.04434575  0.83766091  1  -1.087677  0  -0.295391  -0.393343  0  3.078664  0
N  N147  1  0.46017364  0.91064791  0.83873805  1  -1.167037  0  -0.296973  -0.395118  0  3.074633  0
O  O148  1  0.01058113  0.78774720  0.43273812  1  -1.159539  0  -0.343854  -0.619671  0  2.250375  0
O  O149  1  0.89187509  0.77141972  0.46375544  1  -1.15114  0  -0.332281  -0.59191  0  2.209621  0
O  O150  1  0.16334490  0.96188872  0.58625222  1  -1.156147  0  -0.339883  -0.616996  0  2.251587  0
O  O151  1  0.18222741  0.07621330  0.55132080  1  -1.151179  0  -0.338113  -0.595575  0  2.209197  0
O  O152  1  0.99945550  0.79695473  0.58466422  1  -1.148267  0  -0.338485  -0.607557  0  2.252523  0
O  O153  1  0.88838899  0.77419888  0.54766243  1  -1.157482  0  -0.342338  -0.601174  0  2.21219  0
O  O154  1  0.16217171  0.96468522  0.42428531  1  -1.16719  0  -0.339191  -0.622456  0  2.249499  0
O  O155  1  0.18704215  0.07334399  0.46314935  1  -1.154885  0  -0.333933  -0.590251  0  2.203242  0
O  O156  1  0.14425636  0.82376516  0.46982151  1  -1.231115  0  -0.654017  -0.928893  0  1.883703  0
O  O157  1  0.03593787  0.92540491  0.38341323  1  -1.238704  0  -0.606756  -0.817307  0  2.001439  0
O  O158  1  0.13902933  0.81920022  0.54871732  1  -1.238124  0  -0.603093  -0.816348  0  2.014734  0
O  O159  1  0.02731107  0.93432637  0.62778877  1  -1.240108  0  -0.655091  -0.933188  0  1.881954  0
O  O160  1  0.99600823  0.87694719  0.50746304  1  -1.195593  0  -0.784306  -1.16399  0  2.07781  0
O  O161  1  0.12078838  0.95674890  0.50669795  1  -1.220079  0  -0.689033  -1.056378  0  2.299958  0
O  O162  1  0.96485259  0.16298122  0.42179314  1  -1.169335  0  -0.345133  -0.643017  0  2.266303  0
O  O163  1  0.07492772  0.18469033  0.45977244  1  -1.154124  0  -0.328043  -0.580818  0  2.217626  0
O  O164  1  0.78208960  0.00678531  0.57716869  1  -1.156722  0  -0.332375  -0.601178  0  2.256143  0
O  O165  1  0.76843019  0.88873053  0.54509797  1  -1.165066  0  -0.342367  -0.600305  0  2.208031  0
O  O166  1  0.96757065  0.16327920  0.58776989  1  -1.161623  0  -0.320847  -0.594401  0  2.251856  0
O  O167  1  0.07183645  0.18951757  0.54605951  1  -1.158487  0  -0.351526  -0.609948  0  2.222139  0
O  O168  1  0.78780600  0.00721570  0.43143182  1  -1.16784  0  -0.337375  -0.626042  0  2.259138  0
O  O169  1  0.77330287  0.88743872  0.46112506  1  -1.161086  0  -0.331907  -0.587855  0  2.204941  0
O  O170  1  0.81910606  0.14992655  0.44224113  1  -1.244962  0  -0.573566  -0.779143  0  2.038484  0
O  O171  1  0.92890721  0.02751306  0.38372783  1  -1.237188  0  -0.656257  -0.932309  0  1.886358  0
O  O172  1  0.82541057  0.14793376  0.55311339  1  -1.189081  0  -0.701055  -0.955566  0  1.773021  0
O  O173  1  0.92143654  0.03747840  0.62817544  1  -1.241059  0  -0.605926  -0.819307  0  1.995596  0
O  O174  1  0.94855160  0.12360604  0.50307809  1  -1.267734  0  -0.676087  -1.050707  0  2.198102  0
O  O175  1  0.87288998  0.99732461  0.50338246  1  -1.217332  0  -0.784824  -1.172847  0  2.095  0
O  O176  1  0.02492210  0.02322528  0.46027864  1  -1.21041  0  -0.794338  -1.175419  0  2.13604  0
O  O177  1  0.91577930  0.92707896  0.56825054  1  -1.256205  0  -0.688531  -1.064536  0  2.291857  0
O  O178  1  0.92482550  0.92009158  0.44169435  1  -1.24403  0  -0.682675  -1.037678  0  2.231083  0
O  O179  1  0.02078643  0.02719368  0.55100305  1  -1.209863  0  -0.783311  -1.16332  0  2.078028  0
O  O180  1  0.27621825  0.45040069  0.93285797  1  -1.154785  0  -0.331869  -0.604074  0  2.257595  0
O  O181  1  0.26227202  0.56928977  0.96393118  1  -1.150321  0  -0.34247  -0.601994  0  2.214049  0
O  O182  1  0.45626458  0.29342969  0.08697630  1  -1.161374  0  -0.332658  -0.612146  0  2.261275  0
O  O183  1  0.56921448  0.27418531  0.05099904  1  -1.148444  0  -0.335979  -0.590683  0  2.224846  0
O  O184  1  0.28202334  0.45304420  0.08065985  1  -1.175773  0  -0.34399  -0.64449  0  2.265827  0
O  O185  1  0.26393979  0.56952357  0.04784717  1  -1.151903  0  -0.328138  -0.580354  0  2.2067  0
O  O186  1  0.46390563  0.29583613  0.92250697  1  -1.158625  0  -0.321899  -0.595226  0  2.253521  0
O  O187  1  0.56674088  0.26913151  0.96505537  1  -1.144923  0  -0.349223  -0.604848  0  2.227391  0
O  O188  1  0.32031673  0.30873786  0.95648286  1  -1.22334  0  -0.699879  -0.950657  0  1.772221  0
O  O189  1  0.41487404  0.41980733  0.88229643  1  -1.291776  0  -0.604605  -0.813844  0  2.003811  0
O  O190  1  0.31288342  0.30928607  0.06702047  1  -1.235379  0  -0.573158  -0.777213  0  2.041289  0
O  O191  1  0.41929926  0.42926957  0.12696470  1  -1.232234  0  -0.661142  -0.941911  0  1.878949  0
O  O192  1  0.36541203  0.46087326  0.00673059  1  -1.206665  0  -0.781956  -1.173525  0  2.077308  0
O  O193  1  0.44214017  0.33470267  0.00712974  1  -1.239382  0  -0.67673  -1.050595  0  2.203869  0
O  O194  1  0.65388755  0.48971311  0.92102798  1  -1.172504  0  -0.344314  -0.642031  0  2.271007  0
O  O195  1  0.67702392  0.38098059  0.95988638  1  -1.153178  0  -0.328928  -0.5818  0  2.21736  0
O  O196  1  0.49712935  0.67411412  0.07633180  1  -1.158092  0  -0.334573  -0.604389  0  2.259741  0
O  O197  1  0.37904721  0.68837454  0.04454012  1  -1.152255  0  -0.33968  -0.597242  0  2.206892  0
O  O198  1  0.65218666  0.48878370  0.08783774  1  -1.159253  0  -0.322707  -0.595281  0  2.251481  0
O  O199  1  0.68047258  0.38512529  0.04597112  1  -1.14605  0  -0.346278  -0.601993  0  2.224293  0
O  O200  1  0.49964776  0.66775920  0.93064224  1  -1.173501  0  -0.336672  -0.625561  0  2.259502  0
O  O201  1  0.38033534  0.68433001  0.96058839  1  -1.15346  0  -0.332745  -0.589095  0  2.208933  0
O  O202  1  0.64156243  0.63528589  0.94172081  1  -1.227176  0  -0.574092  -0.779328  0  2.037584  0
O  O203  1  0.51902743  0.52606013  0.88307000  1  -1.229256  0  -0.657547  -0.932903  0  1.882412  0
O  O204  1  0.63878310  0.63058777  0.05270153  1  -1.189045  0  -0.700121  -0.952822  0  1.774376  0
O  O205  1  0.52562344  0.53428091  0.12750546  1  -1.306877  0  -0.60496  -0.816596  0  1.997959  0
O  O206  1  0.61461067  0.50753308  0.00258279  1  -1.281366  0  -0.675576  -1.048944  0  2.198813  0
O  O207  1  0.48808310  0.58306651  0.00270797  1  -1.200085  0  -0.785431  -1.174559  0  2.098013  0
O  O208  1  0.51417360  0.43048159  0.96053270  1  -1.214037  0  -0.792725  -1.181266  0  2.141479  0
O  O209  1  0.41640488  0.54070156  0.06744274  1  -1.231043  0  -0.689878  -1.062437  0  2.290368  0
O  O210  1  0.41093619  0.53176821  0.94094748  1  -1.230826  0  -0.681669  -1.038333  0  2.224522  0
O  O211  1  0.51811441  0.43556905  0.05069531  1  -1.215782  0  -0.787535  -1.166664  0  2.096514  0
