# generated using pymatgen
data_CdH10C12S2(NO2)2
_symmetry_space_group_name_H-M   'P 1'
_cell_length_a   7.16304273
_cell_length_b   13.74069748
_cell_length_c   14.19872358
_cell_angle_alpha   93.13023393
_cell_angle_beta   90.00036311
_cell_angle_gamma   90.00180554
_symmetry_Int_Tables_number   1
_chemical_formula_structural   CdH10C12S2(NO2)2
_chemical_formula_sum   'Cd4 H40 C48 S8 N8 O16'
_cell_volume   1395.42715712
_cell_formula_units_Z   4
loop_
 _symmetry_equiv_pos_site_id
 _symmetry_equiv_pos_as_xyz
  1  'x, y, z'
loop_
 _atom_site_type_symbol
 _atom_site_label
 _atom_site_symmetry_multiplicity
 _atom_site_fract_x
 _atom_site_fract_y
 _atom_site_fract_z
 _atom_site_occupancy
 _atom_site_hle17_bader_spin_density
 _atom_site_hle17_ddec_charge
 _atom_site_hle17_ddec_spin_density
 _atom_site_hle17_ddec_sum_bond_order
 _atom_site_hle17_magmom
 _atom_site_hse06_10hf_bader_spin_density
 _atom_site_hse06_10hf_ddec_charge
 _atom_site_hse06_10hf_ddec_spin_density
 _atom_site_hse06_10hf_ddec_sum_bond_order
 _atom_site_hse06_10hf_magmom
 _atom_site_hse06_bader_spin_density
 _atom_site_hse06_ddec_charge
 _atom_site_hse06_ddec_spin_density
 _atom_site_hse06_ddec_sum_bond_order
 _atom_site_hse06_magmom
 _atom_site_pbe_bader_spin_density
 _atom_site_pbe_cm5_charge
 _atom_site_pbe_ddec_charge
 _atom_site_pbe_ddec_spin_density
 _atom_site_pbe_ddec_sum_bond_order
 _atom_site_pbe_magmom
Cd  Cd0  1  0.75151820  0.75934594  0.35377983  1  0  1.010677  0  1.801223  0  0  0.830521  0  2.25293  0  0  0.879617  0  2.210109  0  0  0.672298  0.795783  0  2.282247  0
Cd  Cd1  1  0.25151570  0.74064435  0.14620851  1  0  1.010696  0  1.80123  0  0  0.830569  0  2.252905  0  0  0.87964  0  2.210128  0  0  0.672296  0.79584  0  2.282193  0
Cd  Cd2  1  0.24849843  0.24063996  0.64621838  1  0  1.010768  0  1.80122  0  0  0.830627  0  2.252892  0  0  0.879698  0  2.210107  0  0  0.672328  0.795889  0  2.282177  0
Cd  Cd3  1  0.74849395  0.25936117  0.85378815  1  0  1.010753  0  1.801201  0  0  0.830603  0  2.252855  0  0  0.879673  0  2.210084  0  0  0.67231  0.795865  0  2.282141  0
H  H4  1  0.88720232  0.53519866  0.27685535  1  0  0.080672  0  0.945706  0  0  0.088945  0  1.012315  0  0  0.091142  0  1.009904  0  0  0.113368  0.087247  0  1.014148  0
H  H5  1  0.38719531  0.96479379  0.22314868  1  0  0.080774  0  0.94558  0  0  0.089014  0  1.01222  0  0  0.091207  0  1.009801  0  0  0.113373  0.087315  0  1.01405  0
H  H6  1  0.11280175  0.46478295  0.72314556  1  0  0.080648  0  0.945731  0  0  0.088904  0  1.012371  0  0  0.091092  0  1.009953  0  0  0.113356  0.087204  0  1.014199  0
H  H7  1  0.61280038  0.03521326  0.77685084  1  0  0.080661  0  0.945633  0  0  0.088868  0  1.012345  0  0  0.091052  0  1.009921  0  0  0.113338  0.087167  0  1.014172  0
H  H8  1  0.89551365  0.36523987  0.33471831  1  0  0.091184  0  0.992432  0  0  0.102242  0  1.054142  0  0  0.104335  0  1.054841  0  0  0.102165  0.100742  0  1.053804  0
H  H9  1  0.39549651  0.13475655  0.16529597  1  0  0.091122  0  0.992547  0  0  0.102198  0  1.05424  0  0  0.104294  0  1.054929  0  0  0.102151  0.100697  0  1.053902  0
H  H10  1  0.10449740  0.63474175  0.66528331  1  0  0.091295  0  0.992369  0  0  0.102341  0  1.05409  0  0  0.104438  0  1.054777  0  0  0.102187  0.100838  0  1.053748  0
H  H11  1  0.60448522  0.86525137  0.83470922  1  0  0.091255  0  0.992394  0  0  0.102298  0  1.054139  0  0  0.104394  0  1.054828  0  0  0.10219  0.100794  0  1.053797  0
H  H12  1  0.79600717  0.33736011  0.49887067  1  0  0.120445  0  0.957354  0  0  0.128202  0  1.020331  0  0  0.131493  0  1.017461  0  0  0.110215  0.12572  0  1.022524  0
H  H13  1  0.29599119  0.16264512  0.00114512  1  0  0.120414  0  0.957455  0  0  0.128185  0  1.020395  0  0  0.131472  0  1.017531  0  0  0.110198  0.125703  0  1.022588  0
H  H14  1  0.20399410  0.66262592  0.50113248  1  0  0.120447  0  0.957262  0  0  0.128207  0  1.020229  0  0  0.131494  0  1.017367  0  0  0.110172  0.125724  0  1.02242  0
H  H15  1  0.70397518  0.83736589  0.99886650  1  0  0.12045  0  0.957274  0  0  0.128207  0  1.020282  0  0  0.131497  0  1.017412  0  0  0.11019  0.125723  0  1.022476  0
H  H16  1  0.67544687  0.40691801  0.65320258  1  0  0.117981  0  0.959141  0  0  0.12838  0  1.020962  0  0  0.130879  0  1.019923  0  0  0.101765  0.126474  0  1.021914  0
H  H17  1  0.17543023  0.09309409  0.84680290  1  0  0.118105  0  0.959063  0  0  0.128523  0  1.020832  0  0  0.131023  0  1.019793  0  0  0.101856  0.126618  0  1.02178  0
H  H18  1  0.32456697  0.59307096  0.34680136  1  0  0.117926  0  0.959249  0  0  0.128313  0  1.021078  0  0  0.13081  0  1.020042  0  0  0.101791  0.126412  0  1.022026  0
H  H19  1  0.82455708  0.90692761  0.15319987  1  0  0.117987  0  0.959195  0  0  0.128375  0  1.021  0  0  0.130872  0  1.019965  0  0  0.101833  0.126474  0  1.021947  0
H  H20  1  0.56869110  0.54945122  0.75274737  1  0  0.108239  0  0.935854  0  0  0.119493  0  0.993804  0  0  0.122517  0  0.992618  0  0  0.106682  0.117266  0  0.99478  0
H  H21  1  0.06866693  0.95056147  0.74725347  1  0  0.108286  0  0.935797  0  0  0.119512  0  0.993786  0  0  0.122535  0  0.992598  0  0  0.106655  0.117283  0  0.99476  0
H  H22  1  0.43131715  0.45053784  0.24726010  1  0  0.108333  0  0.935905  0  0  0.119516  0  0.993914  0  0  0.122539  0  0.992728  0  0  0.10674  0.117295  0  0.994885  0
H  H23  1  0.93132876  0.04945584  0.25274846  1  0  0.108226  0  0.93594  0  0  0.119486  0  0.99387  0  0  0.122511  0  0.99268  0  0  0.106706  0.117262  0  0.994848  0
H  H24  1  0.49516002  0.72759663  0.76851077  1  0  0.103483  0  0.929826  0  0  0.11785  0  0.983596  0  0  0.12055  0  0.982224  0  0  0.112035  0.115877  0  0.984638  0
H  H25  1  0.99516234  0.77240649  0.73148700  1  0  0.103416  0  0.929888  0  0  0.117776  0  0.983676  0  0  0.120474  0  0.982301  0  0  0.112016  0.115805  0  0.984718  0
H  H26  1  0.50483846  0.27239158  0.23149245  1  0  0.103442  0  0.929809  0  0  0.117726  0  0.98366  0  0  0.120433  0  0.982281  0  0  0.111983  0.115756  0  0.984704  0
H  H27  1  0.00483474  0.22760986  0.26850575  1  0  0.10343  0  0.929888  0  0  0.117732  0  0.983709  0  0  0.12043  0  0.982346  0  0  0.111988  0.115762  0  0.984751  0
H  H28  1  0.50188759  0.89232364  0.69610018  1  0  0.10574  0  0.961734  0  0  0.11678  0  1.021331  0  0  0.119558  0  1.02086  0  0  0.10934  0.114762  0  1.021836  0
H  H29  1  0.00190290  0.60767637  0.80387907  1  0  0.105825  0  0.961781  0  0  0.116868  0  1.021352  0  0  0.119632  0  1.020896  0  0  0.109343  0.114852  0  1.021858  0
H  H30  1  0.49812206  0.10766441  0.30389669  1  0  0.105708  0  0.961765  0  0  0.116723  0  1.021399  0  0  0.119507  0  1.020922  0  0  0.109305  0.114708  0  1.021908  0
H  H31  1  0.99810396  0.39233559  0.19611285  1  0  0.105781  0  0.961758  0  0  0.116772  0  1.021395  0  0  0.119584  0  1.020875  0  0  0.109372  0.114759  0  1.021904  0
H  H32  1  0.64254860  0.90493894  0.53826275  1  0  0.079818  0  0.971161  0  0  0.08705  0  1.039368  0  0  0.089832  0  1.035994  0  0  0.115079  0.084906  0  1.042013  0
H  H33  1  0.14255390  0.59506088  0.96172076  1  0  0.079809  0  0.971084  0  0  0.087139  0  1.039194  0  0  0.089923  0  1.035815  0  0  0.115116  0.084995  0  1.04184  0
H  H34  1  0.35748059  0.09504782  0.46174042  1  0  0.079707  0  0.971237  0  0  0.086937  0  1.039451  0  0  0.089715  0  1.036084  0  0  0.11503  0.084797  0  1.042087  0
H  H35  1  0.85745435  0.40495473  0.03827197  1  0  0.079783  0  0.970979  0  0  0.087098  0  1.039148  0  0  0.089882  0  1.03577  0  0  0.115078  0.084949  0  1.041786  0
H  H36  1  0.74327981  0.97203293  0.40347179  1  0  0.428581  0  0.815032  0  0  0.410583  0  0.870005  0  0  0.41925  0  0.860342  0  0  0.317816  0.404403  0  0.876927  0
H  H37  1  0.24325551  0.52796094  0.09652316  1  0  0.428557  0  0.815078  0  0  0.410556  0  0.870064  0  0  0.41922  0  0.860408  0  0  0.317774  0.404374  0  0.876989  0
H  H38  1  0.25674240  0.02795892  0.59653083  1  0  0.428633  0  0.814873  0  0  0.410623  0  0.869888  0  0  0.419289  0  0.860224  0  0  0.317801  0.404438  0  0.876819  0
H  H39  1  0.75675694  0.47204462  0.90347491  1  0  0.428551  0  0.814911  0  0  0.410533  0  0.869943  0  0  0.419199  0  0.860283  0  0  0.317763  0.404351  0  0.876867  0
H  H40  1  0.53491720  0.93711516  0.38017686  1  0  0.419157  0  0.89391  0  0  0.385853  0  0.962569  0  0  0.396734  0  0.946834  0  0  0.28366  0.378187  0  0.973629  0
H  H41  1  0.03489996  0.56287684  0.11981018  1  0  0.419349  0  0.893653  0  0  0.386051  0  0.96232  0  0  0.396931  0  0.946568  0  0  0.283753  0.378384  0  0.973382  0
H  H42  1  0.46510223  0.06287361  0.61981932  1  0  0.41925  0  0.8938  0  0  0.385967  0  0.962435  0  0  0.396848  0  0.946685  0  0  0.283744  0.378301  0  0.973496  0
H  H43  1  0.96510969  0.43712943  0.88018721  1  0  0.419262  0  0.89376  0  0  0.385962  0  0.962432  0  0  0.396844  0  0.946677  0  0  0.28374  0.378296  0  0.973502  0
C  C44  1  0.84836082  0.52072120  0.34910396  1  0  0.146067  0  3.709092  0  0  0.112451  0  3.968875  0  0  0.120893  0  3.986499  0  0  0.053915  0.107055  0  3.956704  0
C  C45  1  0.34834218  0.97927672  0.15090171  1  0  0.145919  0  3.709044  0  0  0.11235  0  3.968831  0  0  0.120803  0  3.986448  0  0  0.053916  0.106955  0  3.956653  0
C  C46  1  0.15163767  0.47925898  0.65089832  1  0  0.146272  0  3.70873  0  0  0.112658  0  3.968529  0  0  0.121118  0  3.986132  0  0  0.054118  0.107259  0  3.956344  0
C  C47  1  0.65163816  0.02073327  0.84909861  1  0  0.146228  0  3.708701  0  0  0.112636  0  3.968545  0  0  0.121106  0  3.986132  0  0  0.054041  0.107238  0  3.956356  0
C  C48  1  0.85113730  0.42598046  0.38135253  1  0  -0.124359  0  3.753344  0  0  -0.140035  0  4.011763  0  0  -0.147157  0  4.033443  0  0  -0.088478  -0.135458  0  3.997035  0
C  C49  1  0.35111868  0.07402182  0.11865646  1  0  -0.124422  0  3.753366  0  0  -0.140119  0  4.011822  0  0  -0.147241  0  4.033497  0  0  -0.088552  -0.135544  0  3.997095  0
C  C50  1  0.14886258  0.57400410  0.61864988  1  0  -0.124527  0  3.753325  0  0  -0.14022  0  4.011714  0  0  -0.147342  0  4.033386  0  0  -0.08866  -0.135634  0  3.996964  0
C  C51  1  0.64885467  0.92598833  0.88135021  1  0  -0.12454  0  3.753104  0  0  -0.140198  0  4.011493  0  0  -0.147319  0  4.033164  0  0  -0.088606  -0.135616  0  3.996749  0
C  C52  1  0.79602995  0.41030909  0.47242179  1  0  -0.028209  0  3.642976  0  0  -0.053966  0  3.89315  0  0  -0.05036  0  3.909068  0  0  -0.060295  -0.056019  0  3.882218  0
C  C53  1  0.29601308  0.08969740  0.02758629  1  0  -0.027989  0  3.642756  0  0  -0.053801  0  3.892958  0  0  -0.050197  0  3.908877  0  0  -0.060203  -0.055858  0  3.882024  0
C  C54  1  0.20396155  0.58967772  0.52758350  1  0  -0.028372  0  3.643259  0  0  -0.054089  0  3.893442  0  0  -0.050485  0  3.909367  0  0  -0.060244  -0.056145  0  3.882506  0
C  C55  1  0.70395469  0.91031856  0.97241983  1  0  -0.028335  0  3.642886  0  0  -0.054057  0  3.893151  0  0  -0.050454  0  3.909077  0  0  -0.060296  -0.056122  0  3.882212  0
C  C56  1  0.73821875  0.49040996  0.53162927  1  0  0.023968  0  3.785061  0  0  0.040123  0  4.016741  0  0  0.037306  0  4.040844  0  0  -0.000964  0.041798  0  4.000406  0
C  C57  1  0.23820975  0.00959953  0.96837419  1  0  0.023959  0  3.784997  0  0  0.040267  0  4.016582  0  0  0.037454  0  4.04068  0  0  -0.000861  0.041957  0  4.000224  0
C  C58  1  0.26177694  0.50958466  0.46836779  1  0  0.02412  0  3.784735  0  0  0.040189  0  4.016512  0  0  0.037371  0  4.040618  0  0  -0.000939  0.041867  0  4.000185  0
C  C59  1  0.76176640  0.99041579  0.03163544  1  0  0.024247  0  3.784491  0  0  0.040153  0  4.016471  0  0  0.037336  0  4.040578  0  0  -0.000955  0.041851  0  4.000105  0
C  C60  1  0.67711419  0.47971751  0.62643447  1  0  -0.082219  0  3.71044  0  0  -0.107084  0  3.96707  0  0  -0.109817  0  3.990406  0  0  -0.081177  -0.105125  0  3.95127  0
C  C61  1  0.17709111  0.02029468  0.87357309  1  0  -0.082329  0  3.710436  0  0  -0.107233  0  3.967073  0  0  -0.109968  0  3.990405  0  0  -0.081278  -0.105277  0  3.951269  0
C  C62  1  0.32288569  0.52027138  0.37356665  1  0  -0.082146  0  3.710598  0  0  -0.106996  0  3.967242  0  0  -0.109727  0  3.990578  0  0  -0.081183  -0.105039  0  3.951457  0
C  C63  1  0.82288364  0.97972634  0.12643177  1  0  -0.082215  0  3.710541  0  0  -0.107022  0  3.967265  0  0  -0.109755  0  3.990603  0  0  -0.081212  -0.105066  0  3.951469  0
C  C64  1  0.61889091  0.55860911  0.68121887  1  0  -0.104597  0  3.746647  0  0  -0.127166  0  4.003466  0  0  -0.131167  0  4.026922  0  0  -0.085647  -0.124329  0  3.987523  0
C  C65  1  0.11887138  0.94140142  0.81878303  1  0  -0.104666  0  3.746324  0  0  -0.127236  0  4.003214  0  0  -0.131237  0  4.02668  0  0  -0.085644  -0.124398  0  3.987266  0
C  C66  1  0.38110757  0.44138193  0.31878090  1  0  -0.104643  0  3.74682  0  0  -0.127165  0  4.003547  0  0  -0.131165  0  4.026995  0  0  -0.085722  -0.124335  0  3.987631  0
C  C67  1  0.88111593  0.05861301  0.18122023  1  0  -0.104549  0  3.746762  0  0  -0.127104  0  4.003523  0  0  -0.131102  0  4.026979  0  0  -0.085635  -0.124278  0  3.987606  0
C  C68  1  0.61951923  0.65405530  0.64558210  1  0  0.022343  0  3.806662  0  0  0.039372  0  4.037897  0  0  0.036838  0  4.063167  0  0  -0.001926  0.040879  0  4.020875  0
C  C69  1  0.11950788  0.84594786  0.85441535  1  0  0.022372  0  3.806686  0  0  0.039405  0  4.037912  0  0  0.036859  0  4.063199  0  0  -0.001909  0.040912  0  4.020887  0
C  C70  1  0.38048204  0.34593422  0.35441481  1  0  0.022247  0  3.806851  0  0  0.039405  0  4.03783  0  0  0.036874  0  4.063094  0  0  -0.001865  0.040908  0  4.020813  0
C  C71  1  0.88046966  0.15406586  0.14558860  1  0  0.022167  0  3.807065  0  0  0.039165  0  4.038183  0  0  0.036624  0  4.063463  0  0  -0.001975  0.040673  0  4.021168  0
C  C72  1  0.55160025  0.73680608  0.69810104  1  0  -0.058024  0  3.703127  0  0  -0.083006  0  3.951827  0  0  -0.080895  0  3.969644  0  0  -0.065201  -0.084087  0  3.939576  0
C  C73  1  0.05159212  0.76320246  0.80189932  1  0  -0.057979  0  3.703462  0  0  -0.082981  0  3.952219  0  0  -0.08086  0  3.970032  0  0  -0.065271  -0.084064  0  3.939969  0
C  C74  1  0.44840102  0.26318374  0.30190786  1  0  -0.058077  0  3.70343  0  0  -0.083015  0  3.952057  0  0  -0.080913  0  3.969887  0  0  -0.065278  -0.084096  0  3.939814  0
C  C75  1  0.94839379  0.23681610  0.19809491  1  0  -0.05797  0  3.703729  0  0  -0.082877  0  3.952372  0  0  -0.080773  0  3.970206  0  0  -0.065215  -0.083958  0  3.940129  0
C  C76  1  0.55657569  0.82682372  0.65930652  1  0  -0.115466  0  3.728066  0  0  -0.128031  0  3.98061  0  0  -0.134196  0  4.000893  0  0  -0.082292  -0.124052  0  3.96691  0
C  C77  1  0.05656497  0.67318232  0.84067605  1  0  -0.115583  0  3.728034  0  0  -0.128147  0  3.980566  0  0  -0.134291  0  4.000832  0  0  -0.082208  -0.12417  0  3.966875  0
C  C78  1  0.44343396  0.17316433  0.34069035  1  0  -0.115382  0  3.727946  0  0  -0.127951  0  3.980483  0  0  -0.134111  0  4.000747  0  0  -0.082223  -0.123975  0  3.966798  0
C  C79  1  0.94343072  0.32683411  0.15932022  1  0  -0.115514  0  3.728073  0  0  -0.128045  0  3.980669  0  0  -0.134223  0  4.000923  0  0  -0.082323  -0.12407  0  3.966989  0
C  C80  1  0.63206960  0.83422140  0.56871539  1  0  0.161653  0  3.676009  0  0  0.125364  0  3.930347  0  0  0.13389  0  3.94587  0  0  0.058401  0.119768  0  3.919828  0
C  C81  1  0.13207673  0.66577738  0.93126759  1  0  0.16172  0  3.675718  0  0  0.125366  0  3.930069  0  0  0.133895  0  3.945582  0  0  0.058356  0.119767  0  3.919556  0
C  C82  1  0.36794005  0.16576316  0.43128701  1  0  0.16182  0  3.675704  0  0  0.125522  0  3.930035  0  0  0.134049  0  3.945553  0  0  0.05839  0.119925  0  3.919522  0
C  C83  1  0.86792175  0.33423614  0.06872860  1  0  0.161754  0  3.675447  0  0  0.12532  0  3.929895  0  0  0.133846  0  3.945421  0  0  0.058349  0.119736  0  3.919375  0
C  C84  1  0.68506616  0.66793404  0.55258659  1  0  0.13675  0  3.727602  0  0  0.129761  0  3.961332  0  0  0.134301  0  3.982657  0  0  0.120847  0.126717  0  3.946946  0
C  C85  1  0.18506027  0.83207310  0.94740686  1  0  0.136492  0  3.727792  0  0  0.129577  0  3.961525  0  0  0.134119  0  3.982851  0  0  0.120715  0.126534  0  3.947139  0
C  C86  1  0.31493651  0.33205265  0.44741376  1  0  0.136601  0  3.727085  0  0  0.129604  0  3.960755  0  0  0.134144  0  3.982079  0  0  0.120812  0.126563  0  3.94636  0
C  C87  1  0.81491867  0.16794193  0.05259149  1  0  0.136754  0  3.727154  0  0  0.129925  0  3.960576  0  0  0.134471  0  3.981895  0  0  0.120901  0.126881  0  3.946191  0
C  C88  1  0.74249205  0.58410136  0.49387226  1  0  0.130672  0  3.761441  0  0  0.125151  0  3.996674  0  0  0.129936  0  4.018729  0  0  0.117218  0.121951  0  3.981647  0
C  C89  1  0.24248388  0.91590347  0.00612514  1  0  0.130819  0  3.761422  0  0  0.125153  0  3.996765  0  0  0.12994  0  4.018817  0  0  0.117239  0.121947  0  3.981742  0
C  C90  1  0.25750503  0.41588895  0.50612750  1  0  0.130881  0  3.760948  0  0  0.12537  0  3.996202  0  0  0.130155  0  4.018256  0  0  0.117366  0.12217  0  3.98118  0
C  C91  1  0.75748668  0.08410644  0.99387236  1  0  0.130637  0  3.761327  0  0  0.125249  0  3.996397  0  0  0.130032  0  4.018451  0  0  0.117281  0.122042  0  3.981371  0
S  S92  1  0.05740352  0.82071429  0.28549582  1  0  -0.571748  0  2.054746  0  0  -0.518287  0  2.460658  0  0  -0.537449  0  2.437657  0  0  -0.225908  -0.504522  0  2.476157  0
S  S93  1  0.55739871  0.67927390  0.21448785  1  0  -0.571835  0  2.054567  0  0  -0.518355  0  2.460431  0  0  -0.537511  0  2.437432  0  0  -0.225999  -0.504592  0  2.475932  0
S  S94  1  0.94260893  0.17927301  0.71450032  1  0  -0.571749  0  2.054741  0  0  -0.518238  0  2.460524  0  0  -0.537388  0  2.437527  0  0  -0.225854  -0.504473  0  2.476014  0
S  S95  1  0.44260116  0.32072583  0.78551006  1  0  -0.571848  0  2.054611  0  0  -0.518385  0  2.460503  0  0  -0.537538  0  2.437503  0  0  -0.225998  -0.504616  0  2.47599  0
S  S96  1  0.22752067  0.83878960  0.40629432  1  0  1.300271  0  5.675288  0  0  1.212951  0  6.216783  0  0  1.262792  0  6.194161  0  0  0.476078  1.178351  0  6.231313  0
S  S97  1  0.72751267  0.66121163  0.09369340  1  0  1.300518  0  5.674862  0  0  1.213189  0  6.216348  0  0  1.263015  0  6.193735  0  0  0.476175  1.178585  0  6.230885  0
S  S98  1  0.77249456  0.16120938  0.59370286  1  0  1.300486  0  5.674723  0  0  1.213188  0  6.216213  0  0  1.263018  0  6.193594  0  0  0.476211  1.178589  0  6.230751  0
S  S99  1  0.27249419  0.33879757  0.90630478  1  0  1.300583  0  5.674979  0  0  1.213226  0  6.21648  0  0  1.263057  0  6.193861  0  0  0.476344  1.178626  0  6.231016  0
N  N100  1  0.79666130  0.59747243  0.40414601  1  0  -0.358556  0  3.268197  0  0  -0.289505  0  3.531816  0  0  -0.309927  0  3.552582  0  0  -0.325248  -0.275559  0  3.517377  0
N  N101  1  0.29665127  0.90252812  0.09585019  1  0  -0.35858  0  3.26818  0  0  -0.289545  0  3.531888  0  0  -0.309957  0  3.552625  0  0  -0.325316  -0.275601  0  3.517448  0
N  N102  1  0.20333858  0.40251344  0.59585080  1  0  -0.358817  0  3.268428  0  0  -0.289752  0  3.532013  0  0  -0.310173  0  3.552772  0  0  -0.325453  -0.275807  0  3.517569  0
N  N103  1  0.70333186  0.09747677  0.90414998  1  0  -0.358644  0  3.268786  0  0  -0.289605  0  3.532289  0  0  -0.310031  0  3.553067  0  0  -0.325334  -0.275662  0  3.517845  0
N  N104  1  0.69182032  0.75719115  0.51673551  1  0  -0.318791  0  3.25246  0  0  -0.24448  0  3.507996  0  0  -0.26299  0  3.526187  0  0  -0.317452  -0.231878  0  3.49543  0
N  N105  1  0.19181573  0.74281246  0.98325489  1  0  -0.318654  0  3.252238  0  0  -0.244398  0  3.507842  0  0  -0.262907  0  3.526031  0  0  -0.317387  -0.231796  0  3.495277  0
N  N106  1  0.30818933  0.24279485  0.48326624  1  0  -0.318721  0  3.252112  0  0  -0.244429  0  3.507681  0  0  -0.262938  0  3.525869  0  0  -0.317328  -0.231822  0  3.495104  0
N  N107  1  0.80817158  0.25720324  0.01674136  1  0  -0.318834  0  3.25212  0  0  -0.244584  0  3.507735  0  0  -0.263096  0  3.52592  0  0  -0.317396  -0.231975  0  3.49516  0
O  O108  1  0.10427424  0.83198279  0.48776400  1  0  -0.645029  0  1.888044  0  0  -0.60371  0  2.122229  0  0  -0.624477  0  2.109572  0  0  -0.356983  -0.589001  0  2.130394  0
O  O109  1  0.60427028  0.66802062  0.01222059  1  0  -0.645152  0  1.887949  0  0  -0.603815  0  2.122109  0  0  -0.624596  0  2.109491  0  0  -0.357025  -0.589104  0  2.130271  0
O  O110  1  0.89573820  0.16801909  0.51223256  1  0  -0.645092  0  1.887924  0  0  -0.603781  0  2.122106  0  0  -0.624546  0  2.10946  0  0  -0.356994  -0.589074  0  2.13027  0
O  O111  1  0.39573099  0.33198787  0.98777827  1  0  -0.645101  0  1.888025  0  0  -0.603783  0  2.122212  0  0  -0.624553  0  2.109571  0  0  -0.35703  -0.589078  0  2.130379  0
O  O112  1  0.31208425  0.93746460  0.40155895  1  0  -0.686618  0  1.971811  0  0  -0.630103  0  2.216327  0  0  -0.652226  0  2.2008  0  0  -0.352348  -0.614432  0  2.226594  0
O  O113  1  0.81207275  0.56253458  0.09842352  1  0  -0.686676  0  1.971771  0  0  -0.630202  0  2.216321  0  0  -0.652321  0  2.200796  0  0  -0.352348  -0.614526  0  2.226587  0
O  O114  1  0.68793098  0.06253053  0.59842967  1  0  -0.686678  0  1.971602  0  0  -0.630229  0  2.216144  0  0  -0.652345  0  2.200608  0  0  -0.352424  -0.614561  0  2.226417  0
O  O115  1  0.18794109  0.43747526  0.90157116  1  0  -0.686565  0  1.971714  0  0  -0.630078  0  2.216265  0  0  -0.652195  0  2.200734  0  0  -0.352329  -0.614411  0  2.226537  0
O  O116  1  0.36973302  0.76144415  0.39707035  1  0  -0.675334  0  2.018126  0  0  -0.615154  0  2.2773  0  0  -0.639186  0  2.265891  0  0  -0.345518  -0.59813  0  2.284593  0
O  O117  1  0.86973113  0.73855761  0.10291950  1  0  -0.675417  0  2.018158  0  0  -0.615163  0  2.277262  0  0  -0.639198  0  2.26587  0  0  -0.345519  -0.598144  0  2.28456  0
O  O118  1  0.63027104  0.23854978  0.60292880  1  0  -0.67545  0  2.017976  0  0  -0.615252  0  2.277138  0  0  -0.639293  0  2.265751  0  0  -0.34562  -0.598235  0  2.284436  0
O  O119  1  0.13026596  0.26145381  0.89708015  1  0  -0.675602  0  2.018171  0  0  -0.615346  0  2.277303  0  0  -0.639386  0  2.265919  0  0  -0.345693  -0.598322  0  2.284596  0
O  O120  1  0.66906157  0.93121888  0.35942551  1  0  -0.818737  0  1.84825  0  0  -0.760513  0  2.043652  0  0  -0.781987  0  2.016665  0  0  -0.581419  -0.745259  0  2.062311  0
O  O121  1  0.16903822  0.56877424  0.14056737  1  0  -0.818883  0  1.848103  0  0  -0.760673  0  2.043493  0  0  -0.782129  0  2.01653  0  0  -0.58147  -0.745418  0  2.062158  0
O  O122  1  0.33096623  0.06877072  0.64057493  1  0  -0.818907  0  1.848048  0  0  -0.760701  0  2.043419  0  0  -0.782155  0  2.016449  0  0  -0.581493  -0.745447  0  2.062084  0
O  O123  1  0.83097282  0.43123059  0.85943069  1  0  -0.818818  0  1.848042  0  0  -0.760591  0  2.043405  0  0  -0.782045  0  2.016441  0  0  -0.58145  -0.74534  0  2.062051  0
