# generated using pymatgen
data_AgH5C9(NO2)2
_symmetry_space_group_name_H-M   'P 1'
_cell_length_a   4.92278133
_cell_length_b   9.01209463
_cell_length_c   19.99583488
_cell_angle_alpha   89.99996112
_cell_angle_beta   90.00017107
_cell_angle_gamma   93.15646230
_symmetry_Int_Tables_number   1
_chemical_formula_structural   AgH5C9(NO2)2
_chemical_formula_sum   'Ag4 H20 C36 N8 O16'
_cell_volume   885.76080487
_cell_formula_units_Z   4
loop_
 _symmetry_equiv_pos_site_id
 _symmetry_equiv_pos_as_xyz
  1  'x, y, z'
loop_
 _atom_site_type_symbol
 _atom_site_label
 _atom_site_symmetry_multiplicity
 _atom_site_fract_x
 _atom_site_fract_y
 _atom_site_fract_z
 _atom_site_occupancy
 _atom_site_pbe_bader_spin_density
 _atom_site_pbe_cm5_charge
 _atom_site_pbe_ddec_charge
 _atom_site_pbe_ddec_spin_density
 _atom_site_pbe_ddec_sum_bond_order
 _atom_site_pbe_magmom
Ag  Ag0  1  0.28850924  0.40462317  0.02321038  1  0  0.411759  0.397074  0  1.954631  0
Ag  Ag1  1  0.21149066  0.09537471  0.52321002  1  0  0.411763  0.397086  0  1.954605  0
Ag  Ag2  1  0.71149030  0.59537598  0.97678909  1  0  0.41177  0.397097  0  1.954626  0
Ag  Ag3  1  0.78851293  0.90462446  0.47678894  1  0  0.411776  0.3971  0  1.954583  0
H  H4  1  0.01584469  0.17500546  0.86783771  1  0  0.102494  0.115386  0  1.043352  0
H  H5  1  0.48414948  0.32499532  0.36784073  1  0  0.102483  0.115395  0  1.0434  0
H  H6  1  0.98414874  0.82499367  0.13216026  1  0  0.102487  0.115408  0  1.043382  0
H  H7  1  0.51585402  0.67500274  0.63215824  1  0  0.102494  0.115418  0  1.04339  0
H  H8  1  0.70555408  0.95859411  0.96565221  1  0  0.115876  0.146247  0  1.009288  0
H  H9  1  0.79444321  0.54140966  0.46565318  1  0  0.115856  0.146219  0  1.009332  0
H  H10  1  0.29443548  0.04140723  0.03434675  1  0  0.115867  0.146245  0  1.009242  0
H  H11  1  0.20556436  0.45858842  0.53434529  1  0  0.115876  0.146257  0  1.009239  0
H  H12  1  0.75879465  0.58329107  0.80698125  1  0  0.11625  0.146823  0  1.013639  0
H  H13  1  0.74120258  0.91671066  0.30698156  1  0  0.116267  0.146847  0  1.013651  0
H  H14  1  0.24119898  0.41671028  0.19301972  1  0  0.116262  0.146834  0  1.013645  0
H  H15  1  0.25880315  0.08328963  0.69301941  1  0  0.116253  0.146813  0  1.01365  0
H  H16  1  0.04212441  0.68248442  0.69738114  1  0  0.107481  0.131723  0  1.030441  0
H  H17  1  0.45787484  0.81751694  0.19738165  1  0  0.107484  0.131731  0  1.03043  0
H  H18  1  0.95786893  0.31751360  0.30261933  1  0  0.107492  0.131742  0  1.030437  0
H  H19  1  0.54213321  0.18248669  0.80261932  1  0  0.107508  0.131777  0  1.030473  0
H  H20  1  0.81542366  0.94939627  0.66408745  1  0  0.124065  0.108481  0  1.045792  0
H  H21  1  0.68457397  0.55060675  0.16408734  1  0  0.124076  0.108507  0  1.045738  0
H  H22  1  0.18457403  0.05060510  0.33591352  1  0  0.124056  0.108492  0  1.045758  0
H  H23  1  0.31542982  0.44939465  0.83591313  1  0  0.124058  0.108493  0  1.045752  0
C  C24  1  0.70606987  0.25977739  0.93405524  1  0  0.193366  0.587094  0  4.233291  0
C  C25  1  0.79392795  0.24022495  0.43405715  1  0  0.193365  0.587062  0  4.233279  0
C  C26  1  0.29392570  0.74022286  0.06594273  1  0  0.193438  0.587182  0  4.23313  0
C  C27  1  0.20607574  0.75977533  0.56594232  1  0  0.19345  0.58721  0  4.233051  0
C  C28  1  0.86383577  0.13944043  0.90495726  1  0  -0.079437  -0.160923  0  3.857399  0
C  C29  1  0.63615551  0.36056081  0.40495851  1  0  -0.079414  -0.160901  0  3.857296  0
C  C30  1  0.13615573  0.86055980  0.09504171  1  0  -0.079438  -0.160958  0  3.85733  0
C  C31  1  0.36384799  0.63943725  0.59504046  1  0  -0.079449  -0.161016  0  3.857396  0
C  C32  1  0.84754863  0.99746289  0.92661863  1  0  -0.083001  -0.167442  0  3.9803  0
C  C33  1  0.65244625  0.50254202  0.42662101  1  0  -0.082987  -0.167428  0  3.980338  0
C  C34  1  0.15244103  0.00253955  0.07337984  1  0  -0.082984  -0.167397  0  3.980285  0
C  C35  1  0.34755928  0.49745605  0.57337846  1  0  -0.082988  -0.16736  0  3.98036  0
C  C36  1  0.02619621  0.88945294  0.90215325  1  0  0.219431  0.345032  0  3.981012  0
C  C37  1  0.47379949  0.61054928  0.40215533  1  0  0.219436  0.345002  0  3.981215  0
C  C38  1  0.97379529  0.11054729  0.09784622  1  0  0.219448  0.344994  0  3.981105  0
C  C39  1  0.52620604  0.38944879  0.59784514  1  0  0.219478  0.344991  0  3.981136  0
C  C40  1  0.34162831  0.79740812  0.84311359  1  0  0.219925  0.276867  0  4.058432  0
C  C41  1  0.15836862  0.70259306  0.34311491  1  0  0.219949  0.276864  0  4.058482  0
C  C42  1  0.65837123  0.20259103  0.15688638  1  0  0.21995  0.276869  0  4.058387  0
C  C43  1  0.84163101  0.29740721  0.65688556  1  0  0.219929  0.276787  0  4.058482  0
C  C44  1  0.54716340  0.79002572  0.79317726  1  0  0.061388  0.079715  0  4.034978  0
C  C45  1  0.95283530  0.70997159  0.29317780  1  0  0.06148  0.079875  0  4.034843  0
C  C46  1  0.45283217  0.20997453  0.20682321  1  0  0.061378  0.07977  0  4.034944  0
C  C47  1  0.04716820  0.29002647  0.70682317  1  0  0.061392  0.079791  0  4.034879  0
C  C48  1  0.73176651  0.68481645  0.77930546  1  0  -0.100576  -0.17953  0  3.974111  0
C  C49  1  0.76822825  0.81518419  0.27930682  1  0  -0.10065  -0.17961  0  3.974189  0
C  C50  1  0.26822683  0.31518157  0.22069501  1  0  -0.100567  -0.179524  0  3.974224  0
C  C51  1  0.23177554  0.18481721  0.72069465  1  0  -0.10057  -0.179518  0  3.974223  0
C  C52  1  0.88114431  0.73798886  0.72242266  1  0  -0.118266  -0.176839  0  4.025208  0
C  C53  1  0.61885596  0.76201299  0.22242393  1  0  -0.118279  -0.176852  0  4.025309  0
C  C54  1  0.11885726  0.26201031  0.27757881  1  0  -0.118261  -0.176841  0  4.025306  0
C  C55  1  0.38114579  0.23798840  0.77757804  1  0  -0.118276  -0.176868  0  4.025378  0
C  C56  1  0.77860871  0.87089562  0.70475742  1  0  0.010272  0.069608  0  3.80379  0
C  C57  1  0.72138728  0.62910623  0.20475731  1  0  0.010316  0.069716  0  3.803741  0
C  C58  1  0.22138685  0.12910463  0.29524255  1  0  0.010288  0.069631  0  3.803773  0
C  C59  1  0.27861448  0.37089516  0.79524266  1  0  0.01029  0.069615  0  3.803819  0
N  N60  1  0.05139452  0.75167205  0.92229998  1  0  -0.226512  -0.202877  0  3.379275  0
N  N61  1  0.44860539  0.74832905  0.42230100  1  0  -0.226525  -0.202884  0  3.379362  0
N  N62  1  0.94859901  0.24832820  0.07770049  1  0  -0.226446  -0.202754  0  3.379329  0
N  N63  1  0.55140217  0.25166902  0.57769997  1  0  -0.226495  -0.202849  0  3.379454  0
N  N64  1  0.25414857  0.69175805  0.88466922  1  0  -0.216759  -0.243506  0  3.213065  0
N  N65  1  0.24585312  0.80824532  0.38466908  1  0  -0.216807  -0.243553  0  3.213122  0
N  N66  1  0.74584709  0.30824331  0.11533225  1  0  -0.216778  -0.243566  0  3.213144  0
N  N67  1  0.75415454  0.19175387  0.61533139  1  0  -0.216792  -0.243512  0  3.213262  0
O  O68  1  0.49145377  0.22537719  0.96720157  1  0  -0.322347  -0.504696  0  2.318949  0
O  O69  1  0.00854566  0.27462350  0.46720326  1  0  -0.322364  -0.50469  0  2.318875  0
O  O70  1  0.50854383  0.77462307  0.03279690  1  0  -0.322406  -0.504753  0  2.318834  0
O  O71  1  0.99145794  0.72537567  0.53279571  1  0  -0.322401  -0.504726  0  2.318761  0
O  O72  1  0.81127920  0.39041405  0.92279241  1  0  -0.327767  -0.522011  0  2.344384  0
O  O73  1  0.68871442  0.10958829  0.42279329  1  0  -0.327737  -0.521964  0  2.344388  0
O  O74  1  0.18871434  0.60958619  0.07720655  1  0  -0.327777  -0.522037  0  2.344378  0
O  O75  1  0.31128917  0.89041088  0.57720618  1  0  -0.327779  -0.522026  0  2.344319  0
O  O76  1  0.20806489  0.92524148  0.85155678  1  0  -0.092015  -0.159214  0  2.512192  0
O  O77  1  0.29193621  0.57475971  0.35155873  1  0  -0.092015  -0.159197  0  2.512313  0
O  O78  1  0.79193261  0.07475767  0.14844319  1  0  -0.092061  -0.159243  0  2.512186  0
O  O79  1  0.70806952  0.42524058  0.64844224  1  0  -0.092042  -0.159195  0  2.512183  0
O  O80  1  0.57490249  0.90498106  0.74781231  1  0  -0.115638  -0.087044  0  2.60773  0
O  O81  1  0.92509411  0.59502185  0.24781236  1  0  -0.115701  -0.08723  0  2.607723  0
O  O82  1  0.42509520  0.09502031  0.25218816  1  0  -0.115713  -0.087183  0  2.607647  0
O  O83  1  0.07490755  0.40497842  0.75218811  1  0  -0.115699  -0.087153  0  2.607709  0
