# generated using pymatgen
data_GdH9C13N2O7
_symmetry_space_group_name_H-M   'P 1'
_cell_length_a   9.23740259
_cell_length_b   10.54912774
_cell_length_c   14.11065370
_cell_angle_alpha   90.00014006
_cell_angle_beta   90.00042114
_cell_angle_gamma   96.10389342
_symmetry_Int_Tables_number   1
_chemical_formula_structural   GdH9C13N2O7
_chemical_formula_sum   'Gd4 H36 C52 N8 O28'
_cell_volume   1367.23892621
_cell_formula_units_Z   4
loop_
 _symmetry_equiv_pos_site_id
 _symmetry_equiv_pos_as_xyz
  1  'x, y, z'
loop_
 _atom_site_type_symbol
 _atom_site_label
 _atom_site_symmetry_multiplicity
 _atom_site_fract_x
 _atom_site_fract_y
 _atom_site_fract_z
 _atom_site_occupancy
 _atom_site_pbe_bader_spin_density
 _atom_site_pbe_cm5_charge
 _atom_site_pbe_ddec_charge
 _atom_site_pbe_ddec_spin_density
 _atom_site_pbe_ddec_sum_bond_order
 _atom_site_pbe_magmom
Gd  Gd0  1  0.87468271  0.02964140  0.86508324  1  0  1.472582  2.059949  0  2.223794  0
Gd  Gd1  1  0.12531795  0.47036110  0.36508658  1  0  1.472628  2.059934  0  2.224099  0
Gd  Gd2  1  0.12531486  0.97036418  0.13491344  1  0  1.472479  2.059973  0  2.224392  0
Gd  Gd3  1  0.87468493  0.52964354  0.63491506  1  0  1.472495  2.059902  0  2.224474  0
H  H4  1  0.22608378  0.79208533  0.74079544  1  0  0.11872  0.124158  0  1.002583  0
H  H5  1  0.77391430  0.70791617  0.24079362  1  0  0.118715  0.124152  0  1.002614  0
H  H6  1  0.77391506  0.20791263  0.25920620  1  0  0.118703  0.124129  0  1.002574  0
H  H7  1  0.22608660  0.29208084  0.75920518  1  0  0.11868  0.124093  0  1.00264  0
H  H8  1  0.45197464  0.72220811  0.66427714  1  0  0.112336  0.121887  0  1.005654  0
H  H9  1  0.54802214  0.77779878  0.16428074  1  0  0.112383  0.12193  0  1.005592  0
H  H10  1  0.54802465  0.27779367  0.33572167  1  0  0.112322  0.121875  0  1.005671  0
H  H11  1  0.45198126  0.22220110  0.83571877  1  0  0.112368  0.121923  0  1.005595  0
H  H12  1  0.51089914  0.03516421  0.92264952  1  0  0.125227  0.092533  0  1.011914  0
H  H13  1  0.48910122  0.46483949  0.42264892  1  0  0.125221  0.09251  0  1.012012  0
H  H14  1  0.48909484  0.96483850  0.07735000  1  0  0.125235  0.092513  0  1.011948  0
H  H15  1  0.51089785  0.53516038  0.57734988  1  0  0.125244  0.092562  0  1.011978  0
H  H16  1  0.98143553  0.60223230  0.12644426  1  0  0.123723  0.104527  0  1.032699  0
H  H17  1  0.01856371  0.89777157  0.62644385  1  0  0.123726  0.104513  0  1.0327  0
H  H18  1  0.01856529  0.39777329  0.87355597  1  0  0.123719  0.104483  0  1.032765  0
H  H19  1  0.98144238  0.10222356  0.37355850  1  0  0.123729  0.10452  0  1.032717  0
H  H20  1  0.70175870  0.27961551  0.06275170  1  0  0.111896  0.076768  0  1.038629  0
H  H21  1  0.29824393  0.22038665  0.56275373  1  0  0.111906  0.076801  0  1.038639  0
H  H22  1  0.29824481  0.72038533  0.93724357  1  0  0.111883  0.076757  0  1.038673  0
H  H23  1  0.70176055  0.77961323  0.43724437  1  0  0.111909  0.076797  0  1.038681  0
H  H24  1  0.57271802  0.39475410  0.94119059  1  0  0.102403  0.101454  0  1.035517  0
H  H25  1  0.42727897  0.10524681  0.44119188  1  0  0.102401  0.101411  0  1.035468  0
H  H26  1  0.42728463  0.60524863  0.05880821  1  0  0.102428  0.101481  0  1.035524  0
H  H27  1  0.57271998  0.89475210  0.55880622  1  0  0.102411  0.101413  0  1.035498  0
H  H28  1  0.66400373  0.62486480  0.90538404  1  0  0.114349  0.118252  0  0.98285  0
H  H29  1  0.33599368  0.87513360  0.40538680  1  0  0.114365  0.1183  0  0.982808  0
H  H30  1  0.33599231  0.37513696  0.09461690  1  0  0.114355  0.118276  0  0.982842  0
H  H31  1  0.66401155  0.12486343  0.59461555  1  0  0.114364  0.118273  0  0.982811  0
H  H32  1  0.96441703  0.23655380  0.72821331  1  0  0.308096  0.402021  0  0.925698  0
H  H33  1  0.03558213  0.26344906  0.22821442  1  0  0.308034  0.402051  0  0.92573  0
H  H34  1  0.03558319  0.76343749  0.27178763  1  0  0.308061  0.401952  0  0.925765  0
H  H35  1  0.96441615  0.73654413  0.77178297  1  0  0.308048  0.402035  0  0.92571  0
H  H36  1  0.05452931  0.12425062  0.68367233  1  0  0.284871  0.349996  0  1.011667  0
H  H37  1  0.94547247  0.37575110  0.18367590  1  0  0.284819  0.349928  0  1.011785  0
H  H38  1  0.94547398  0.87574830  0.31632790  1  0  0.284865  0.349978  0  1.011702  0
H  H39  1  0.05452215  0.62424780  0.81632149  1  0  0.284847  0.349921  0  1.011791  0
C  C40  1  0.22362345  0.94698798  0.89829926  1  0  0.23608  0.643542  0  4.179021  0
C  C41  1  0.77636838  0.55301895  0.39830639  1  0  0.235988  0.643485  0  4.179189  0
C  C42  1  0.77634832  0.05300990  0.10167899  1  0  0.236226  0.643655  0  4.179133  0
C  C43  1  0.22363968  0.44698381  0.60168037  1  0  0.23614  0.643755  0  4.178736  0
C  C44  1  0.35148993  0.91650583  0.83950283  1  0  -0.003825  -0.073506  0  3.924164  0
C  C45  1  0.64850708  0.58350467  0.33950515  1  0  -0.003813  -0.073391  0  3.923941  0
C  C46  1  0.64850742  0.08349784  0.16049668  1  0  -0.003858  -0.073568  0  3.924138  0
C  C47  1  0.35148964  0.41650282  0.66049791  1  0  -0.003847  -0.073482  0  3.924087  0
C  C48  1  0.33463476  0.83158047  0.76308457  1  0  -0.056265  -0.039964  0  3.909262  0
C  C49  1  0.66536358  0.66842112  0.26308216  1  0  -0.05626  -0.039991  0  3.909306  0
C  C50  1  0.66536191  0.16841748  0.23691636  1  0  -0.056214  -0.039876  0  3.909223  0
C  C51  1  0.33463810  0.33158256  0.73691948  1  0  -0.056229  -0.03993  0  3.909256  0
C  C52  1  0.45881053  0.79341951  0.72037810  1  0  -0.075091  -0.130395  0  3.936642  0
C  C53  1  0.54118821  0.70658953  0.22038224  1  0  -0.075144  -0.130464  0  3.936595  0
C  C54  1  0.54118909  0.20658512  0.27962071  1  0  -0.075132  -0.130461  0  3.93657  0
C  C55  1  0.45881325  0.29341225  0.77962011  1  0  -0.075114  -0.130429  0  3.936578  0
C  C56  1  0.59551904  0.84651822  0.75149539  1  0  0.11901  0.10472  0  3.97543  0
C  C57  1  0.40447962  0.65348714  0.25149878  1  0  0.119052  0.104745  0  3.975321  0
C  C58  1  0.40447700  0.15348355  0.24850484  1  0  0.119065  0.104757  0  3.975205  0
C  C59  1  0.59552348  0.34651941  0.74850641  1  0  0.119013  0.104622  0  3.975414  0
C  C60  1  0.49252795  0.96729767  0.86452545  1  0  0.065105  0.097049  0  3.925897  0
C  C61  1  0.50746965  0.53270627  0.36452415  1  0  0.065104  0.09697  0  3.925969  0
C  C62  1  0.50746667  0.03270123  0.13547478  1  0  0.065099  0.097087  0  3.925814  0
C  C63  1  0.49252781  0.46729836  0.63547749  1  0  0.065096  0.096929  0  3.926022  0
C  C64  1  0.73568772  0.80457623  0.71362147  1  0  0.232028  0.58609  0  4.205936  0
C  C65  1  0.26431449  0.69542612  0.21362213  1  0  0.232098  0.5863  0  4.206042  0
C  C66  1  0.26432106  0.19544177  0.28638514  1  0  0.231958  0.586109  0  4.206618  0
C  C67  1  0.73568356  0.30456517  0.78638447  1  0  0.232064  0.586278  0  4.206385  0
C  C68  1  0.88599014  0.76586698  0.99517856  1  0  0.233948  0.657637  0  4.171792  0
C  C69  1  0.11400951  0.73413277  0.49518495  1  0  0.23397  0.65757  0  4.171807  0
C  C70  1  0.11399204  0.23413665  0.00480466  1  0  0.234016  0.657466  0  4.172168  0
C  C71  1  0.88600700  0.26586811  0.50480464  1  0  0.234066  0.657633  0  4.171716  0
C  C72  1  0.82895364  0.62979475  0.01340805  1  0  -0.01278  -0.09121  0  3.954752  0
C  C73  1  0.17105312  0.87020103  0.51341116  1  0  -0.012734  -0.091043  0  3.954639  0
C  C74  1  0.17105409  0.37020514  0.98659501  1  0  -0.012866  -0.091359  0  3.955046  0
C  C75  1  0.82894897  0.12979694  0.48659190  1  0  -0.012822  -0.091324  0  3.954932  0
C  C76  1  0.89129768  0.55899086  0.08326882  1  0  0.058614  0.0794  0  3.895788  0
C  C77  1  0.10870180  0.94100996  0.58327035  1  0  0.058596  0.079382  0  3.895655  0
C  C78  1  0.10870127  0.44100805  0.91672857  1  0  0.05858  0.079426  0  3.89558  0
C  C79  1  0.89130399  0.05899183  0.41672917  1  0  0.058598  0.079403  0  3.895616  0
C  C80  1  0.73483391  0.37990636  0.04879220  1  0  0.051959  0.101733  0  3.9397  0
C  C81  1  0.26516845  0.12009479  0.54879389  1  0  0.052009  0.101836  0  3.939744  0
C  C82  1  0.26517068  0.62009448  0.95120590  1  0  0.051997  0.101851  0  3.939791  0
C  C83  1  0.73483364  0.87990318  0.45120704  1  0  0.051982  0.101801  0  3.939704  0
C  C84  1  0.66391565  0.44418944  0.97957746  1  0  -0.087677  -0.132984  0  4.005097  0
C  C85  1  0.33608374  0.05580974  0.47957892  1  0  -0.0877  -0.13295  0  4.004994  0
C  C86  1  0.33608991  0.55581044  0.02042064  1  0  -0.087688  -0.133101  0  4.005089  0
C  C87  1  0.66391738  0.94418918  0.52042201  1  0  -0.08773  -0.132995  0  4.004986  0
C  C88  1  0.71288894  0.57076274  0.96044817  1  0  -0.057491  -0.037356  0  3.931804  0
C  C89  1  0.28710911  0.92923589  0.46045080  1  0  -0.057489  -0.037455  0  3.931787  0
C  C90  1  0.28710949  0.42924093  0.03954851  1  0  -0.057476  -0.037228  0  3.931921  0
C  C91  1  0.71289698  0.07075923  0.53954801  1  0  -0.057488  -0.037318  0  3.932016  0
N  N92  1  0.61145813  0.93593337  0.82006710  1  0  -0.360887  -0.332246  0  3.495276  0
N  N93  1  0.38854167  0.56404752  0.32005324  1  0  -0.360937  -0.332249  0  3.495214  0
N  N94  1  0.38853892  0.06404934  0.17994517  1  0  -0.36093  -0.332252  0  3.495192  0
N  N95  1  0.61145807  0.43595807  0.67995123  1  0  -0.360872  -0.332092  0  3.495148  0
N  N96  1  0.84619488  0.43586269  0.10024513  1  0  -0.302267  -0.233392  0  3.398406  0
N  N97  1  0.15380494  0.06413962  0.60024193  1  0  -0.302288  -0.233542  0  3.398551  0
N  N98  1  0.15380863  0.56413814  0.89975580  1  0  -0.302291  -0.233479  0  3.398485  0
N  N99  1  0.84619760  0.93586216  0.39976042  1  0  -0.302294  -0.23347  0  3.398524  0
O  O100  1  0.98891489  0.14898507  0.73734327  1  0  -0.652295  -0.86468  0  2.154309  0
O  O101  1  0.01107852  0.35101400  0.23735009  1  0  -0.652171  -0.864707  0  2.154256  0
O  O102  1  0.01108287  0.85101288  0.26265554  1  0  -0.652253  -0.864605  0  2.154331  0
O  O103  1  0.98891704  0.64897442  0.76264305  1  0  -0.652223  -0.864592  0  2.154414  0
O  O104  1  0.10372615  0.95140468  0.85571839  1  0  -0.381348  -0.634145  0  2.294158  0
O  O105  1  0.89626663  0.54858682  0.35571191  1  0  -0.381361  -0.634207  0  2.293683  0
O  O106  1  0.89627956  0.04857805  0.14429318  1  0  -0.38164  -0.634504  0  2.292738  0
O  O107  1  0.10371813  0.45141110  0.64429399  1  0  -0.381574  -0.634511  0  2.292703  0
O  O108  1  0.24830281  0.96210722  0.98637322  1  0  -0.373401  -0.654125  0  2.302782  0
O  O109  1  0.75169218  0.53789056  0.48636956  1  0  -0.373301  -0.653983  0  2.303295  0
O  O110  1  0.75169124  0.03788691  0.01363906  1  0  -0.373279  -0.653919  0  2.304462  0
O  O111  1  0.24828142  0.46210446  0.51363491  1  0  -0.373294  -0.654003  0  2.304178  0
O  O112  1  0.72774754  0.70274315  0.66551231  1  0  -0.367275  -0.634711  0  2.289766  0
O  O113  1  0.27225280  0.79725708  0.16551462  1  0  -0.367282  -0.634764  0  2.289739  0
O  O114  1  0.27224966  0.29725004  0.33447799  1  0  -0.367263  -0.634599  0  2.290888  0
O  O115  1  0.72777502  0.20275716  0.83448064  1  0  -0.367305  -0.63469  0  2.290763  0
O  O116  1  0.85239518  0.87365604  0.73576607  1  0  -0.350471  -0.615232  0  2.319628  0
O  O117  1  0.14761669  0.62631593  0.23575684  1  0  -0.350514  -0.615347  0  2.319642  0
O  O118  1  0.14760000  0.12631999  0.26424053  1  0  -0.350442  -0.615344  0  2.319158  0
O  O119  1  0.85239678  0.37368684  0.76423559  1  0  -0.350509  -0.615394  0  2.319154  0
O  O120  1  0.98308794  0.81774399  0.05056562  1  0  -0.405254  -0.692292  0  2.365279  0
O  O121  1  0.01691821  0.68226148  0.55056835  1  0  -0.405205  -0.692258  0  2.365529  0
O  O122  1  0.01694649  0.18227123  0.94943106  1  0  -0.404971  -0.691839  0  2.366382  0
O  O123  1  0.98305479  0.31774689  0.44943400  1  0  -0.405084  -0.69196  0  2.366053  0
O  O124  1  0.83228023  0.81922666  0.92504069  1  0  -0.384509  -0.655409  0  2.354649  0
O  O125  1  0.16770362  0.68076511  0.42503732  1  0  -0.384648  -0.655457  0  2.35442  0
O  O126  1  0.16771890  0.18076463  0.07497300  1  0  -0.384831  -0.655676  0  2.353764  0
O  O127  1  0.83228712  0.31923759  0.57497141  1  0  -0.384806  -0.655707  0  2.353798  0
