# generated using pymatgen
data_ZnH26C36(N5Cl)2
_symmetry_space_group_name_H-M   'P 1'
_cell_length_a   9.81882078
_cell_length_b   11.64405205
_cell_length_c   16.58175194
_cell_angle_alpha   102.65143388
_cell_angle_beta   90.00070498
_cell_angle_gamma   89.99962011
_symmetry_Int_Tables_number   1
_chemical_formula_structural   ZnH26C36(N5Cl)2
_chemical_formula_sum   'Zn2 H52 C72 N20 Cl4'
_cell_volume   1849.77682570
_cell_formula_units_Z   2
loop_
 _symmetry_equiv_pos_site_id
 _symmetry_equiv_pos_as_xyz
  1  'x, y, z'
loop_
 _atom_site_type_symbol
 _atom_site_label
 _atom_site_symmetry_multiplicity
 _atom_site_fract_x
 _atom_site_fract_y
 _atom_site_fract_z
 _atom_site_occupancy
 _atom_site_pbe_bader_charge
 _atom_site_pbe_bader_spin_density
 _atom_site_pbe_cm5_charge
 _atom_site_pbe_ddec_charge
 _atom_site_pbe_ddec_spin_density
 _atom_site_pbe_ddec_sum_bond_order
 _atom_site_pbe_magmom
Zn  Zn0  1  0.52517784  0.50000449  0.75000221  1  1.196164  0  0.600697  0.617397  0  2.466951  0
Zn  Zn1  1  0.47481833  0.49999904  0.24999871  1  1.196157  0  0.600677  0.617381  0  2.467116  0
H  H2  1  0.25543378  0.61253352  0.80728800  1  0.11131  0  0.109462  0.079191  0  1.037561  0
H  H3  1  0.25544876  0.38746387  0.69270314  1  0.111132  0  0.109464  0.079193  0  1.037431  0
H  H4  1  0.74455627  0.38745933  0.19270595  1  0.111201  0  0.109443  0.079155  0  1.037608  0
H  H5  1  0.74456675  0.61253236  0.30728466  1  0.111362  0  0.109453  0.079176  0  1.037558  0
H  H6  1  0.08641050  0.75162150  0.76947465  1  0.089738  0  0.099004  0.103547  0  1.051833  0
H  H7  1  0.08641311  0.24838347  0.73051455  1  0.089711  0  0.098968  0.103503  0  1.051799  0
H  H8  1  0.91359177  0.24838643  0.23052690  1  0.089799  0  0.098973  0.103491  0  1.051792  0
H  H9  1  0.91359222  0.75161791  0.26946796  1  0.089743  0  0.098989  0.103551  0  1.051856  0
H  H10  1  0.33190106  0.75535558  0.55318109  1  0.104846  0  0.104914  0.122993  0  1.016137  0
H  H11  1  0.33190514  0.24464593  0.94680999  1  0.104855  0  0.104919  0.122976  0  1.016132  0
H  H12  1  0.66809714  0.24466556  0.44682236  1  0.104687  0  0.104891  0.122921  0  1.01617  0
H  H13  1  0.66809917  0.75534940  0.05317647  1  0.104689  0  0.104885  0.122914  0  1.01629  0
H  H14  1  0.47836673  0.60324984  0.59438650  1  0.110268  0  0.110572  0.091537  0  1.009156  0
H  H15  1  0.47836976  0.39676014  0.90561531  1  0.110194  0  0.110553  0.091455  0  1.009202  0
H  H16  1  0.52164675  0.39678010  0.40561881  1  0.110005  0  0.11056  0.091476  0  1.009316  0
H  H17  1  0.52164066  0.60323175  0.09437428  1  0.109962  0  0.110565  0.091541  0  1.009201  0
H  H18  1  0.80781842  0.15641856  0.59210290  1  0.042296  0  0.102483  0.104216  0  1.016034  0
H  H19  1  0.80783120  0.84358318  0.90789710  1  0.042296  0  0.102514  0.104286  0  1.015882  0
H  H20  1  0.19217469  0.84357439  0.40789529  1  0.042396  0  0.102512  0.104309  0  1.015834  0
H  H21  1  0.19217718  0.15639409  0.09210668  1  0.042047  0  0.102469  0.104143  0  1.015894  0
H  H22  1  0.81642525  0.34795311  0.55613753  1  0.113847  0  0.105239  0.078196  0  1.028619  0
H  H23  1  0.81643622  0.65204588  0.94385852  1  0.113723  0  0.105192  0.077976  0  1.028711  0
H  H24  1  0.18354749  0.65204351  0.44386843  1  0.113837  0  0.105184  0.077926  0  1.028783  0
H  H25  1  0.18359457  0.34792959  0.05614319  1  0.113635  0  0.105263  0.078141  0  1.028756  0
H  H26  1  0.23886999  0.33923539  0.53748023  1  0.116877  0  0.107446  0.085526  0  0.995139  0
H  H27  1  0.23887823  0.66074745  0.96252559  1  0.116677  0  0.107385  0.085467  0  0.995039  0
H  H28  1  0.76110784  0.66077797  0.46252933  1  0.116642  0  0.107362  0.085454  0  0.995135  0
H  H29  1  0.76114951  0.33923840  0.03746916  1  0.117051  0  0.107367  0.085523  0  0.995077  0
H  H30  1  0.24830708  0.14117440  0.57079964  1  0.112772  0  0.108686  0.121374  0  0.999085  0
H  H31  1  0.24832120  0.85880493  0.92920756  1  0.112491  0  0.108648  0.121382  0  0.999167  0
H  H32  1  0.75168399  0.85882903  0.42919644  1  0.112349  0  0.108653  0.121378  0  0.999063  0
H  H33  1  0.75169024  0.14118646  0.07080006  1  0.112548  0  0.108689  0.121388  0  0.999101  0
H  H34  1  0.96634090  0.61363791  0.60716891  1  0.148097  0  0.110593  0.122478  0  1.0293  0
H  H35  1  0.96634782  0.38636232  0.89282840  1  0.148044  0  0.110563  0.122413  0  1.029438  0
H  H36  1  0.03365527  0.38637287  0.39284269  1  0.147754  0  0.110587  0.122397  0  1.029372  0
H  H37  1  0.03364936  0.61363511  0.10717466  1  0.147937  0  0.11054  0.122383  0  1.02941  0
H  H38  1  0.79671257  0.48302416  0.65366636  1  0.066152  0  0.111442  0.079898  0  1.04428  0
H  H39  1  0.79671443  0.51697424  0.84633971  1  0.066072  0  0.111502  0.08003  0  1.04427  0
H  H40  1  0.20328360  0.51698749  0.34634477  1  0.065915  0  0.111499  0.08005  0  1.044211  0
H  H41  1  0.20327766  0.48301808  0.15367045  1  0.066073  0  0.111458  0.080005  0  1.04424  0
H  H42  1  0.56818429  0.76272338  0.77855141  1  0.115883  0  0.110152  0.091357  0  1.009174  0
H  H43  1  0.56817967  0.23728204  0.72145763  1  0.115879  0  0.110132  0.091332  0  1.009308  0
H  H44  1  0.43181391  0.23728589  0.22147143  1  0.116014  0  0.110142  0.091348  0  1.009269  0
H  H45  1  0.43181242  0.76272246  0.27854765  1  0.115939  0  0.110147  0.091351  0  1.009256  0
H  H46  1  0.72381194  0.90862736  0.73611986  1  -0.009116  0  0.096015  0.093265  0  1.044742  0
H  H47  1  0.72381343  0.09137281  0.76387447  1  -0.012947  0  0.095983  0.093218  0  1.044693  0
H  H48  1  0.27618320  0.09138183  0.26389935  1  -0.008578  0  0.096028  0.093318  0  1.044724  0
H  H49  1  0.27619292  0.90862684  0.23610900  1  -0.012851  0  0.095987  0.093215  0  1.044764  0
H  H50  1  0.82191592  0.98525695  0.62170988  1  0.469085  0  0.336759  0.294413  0  0.909361  0
H  H51  1  0.82192548  0.01472612  0.87828089  1  0.469307  0  0.336663  0.294317  0  0.909302  0
H  H52  1  0.17807719  0.01473136  0.37827678  1  0.468951  0  0.336635  0.294296  0  0.909411  0
H  H53  1  0.17807985  0.98526222  0.12170698  1  0.469324  0  0.336683  0.29435  0  0.909417  0
C  C54  1  0.26515114  0.64360233  0.75017330  1  0.450233  0  0.043122  0.093601  0  3.956612  0
C  C55  1  0.26515838  0.35639860  0.74982083  1  0.449636  0  0.043087  0.093601  0  3.956216  0
C  C56  1  0.73484808  0.35640111  0.24982337  1  0.44991  0  0.043244  0.093681  0  3.956379  0
C  C57  1  0.73485408  0.64359588  0.25016672  1  0.449627  0  0.04324  0.093651  0  3.956564  0
C  C58  1  0.17283708  0.72234020  0.72933427  1  -0.026295  0  -0.086471  -0.168519  0  3.947044  0
C  C59  1  0.17283825  0.27766458  0.77066035  1  -0.026043  0  -0.086392  -0.168419  0  3.947074  0
C  C60  1  0.82716112  0.27766776  0.27066849  1  -0.026277  0  -0.086453  -0.168349  0  3.946986  0
C  C61  1  0.82716810  0.72232985  0.22932538  1  -0.025851  0  -0.086497  -0.168459  0  3.947123  0
C  C62  1  0.19510972  0.76705179  0.65847517  1  0.038936  0  0.013675  0.107151  0  3.984806  0
C  C63  1  0.19511271  0.23295553  0.84151877  1  0.038858  0  0.013699  0.107194  0  3.984892  0
C  C64  1  0.80488848  0.23295880  0.34152736  1  0.038847  0  0.013716  0.107089  0  3.984866  0
C  C65  1  0.80488956  0.76703980  0.15846770  1  0.039129  0  0.013768  0.107115  0  3.984703  0
C  C66  1  0.30901103  0.72559008  0.60957653  1  0.018791  0  -0.08029  -0.162065  0  3.906519  0
C  C67  1  0.30901065  0.27441246  0.89041815  1  0.018955  0  -0.080195  -0.161959  0  3.906478  0
C  C68  1  0.69098819  0.27442490  0.39042664  1  0.019004  0  -0.080109  -0.161658  0  3.90609  0
C  C69  1  0.69098857  0.72558462  0.10956796  1  0.018934  0  -0.080243  -0.161843  0  3.906408  0
C  C70  1  0.39277421  0.64196749  0.63281486  1  0.459094  0  0.047783  0.099169  0  3.931363  0
C  C71  1  0.39277370  0.35803745  0.86718318  1  0.459147  0  0.047722  0.099315  0  3.931131  0
C  C72  1  0.60723112  0.35805455  0.36718992  1  0.459397  0  0.047601  0.098974  0  3.93122  0
C  C73  1  0.60723062  0.64195792  0.13280510  1  0.459143  0  0.047734  0.099066  0  3.931292  0
C  C74  1  0.10119666  0.85481863  0.63877932  1  0.501772  0  0.097179  0.097403  0  4.000609  0
C  C75  1  0.10120688  0.14518295  0.86121794  1  0.501944  0  0.097222  0.097557  0  4.000342  0
C  C76  1  0.89879237  0.14519021  0.36122356  1  0.501703  0  0.097198  0.097316  0  4.000789  0
C  C77  1  0.89880151  0.85480537  0.13876933  1  0.501779  0  0.097137  0.097391  0  4.00047  0
C  C78  1  0.95894231  0.85650525  0.64718347  1  0.34763  0  0.093811  0.074433  0  3.959137  0
C  C79  1  0.95895236  0.14349325  0.85281354  1  0.347511  0  0.093705  0.074185  0  3.959065  0
C  C80  1  0.04104570  0.14350542  0.35282269  1  0.346648  0  0.093742  0.074362  0  3.959095  0
C  C81  1  0.04105602  0.85649506  0.14717313  1  0.347196  0  0.093845  0.074528  0  3.958893  0
C  C82  1  0.03345630  0.01745562  0.60846874  1  0.968775  0  0.212188  0.277814  0  4.051673  0
C  C83  1  0.03347273  0.98254018  0.89153383  1  0.969032  0  0.212202  0.27795  0  4.051478  0
C  C84  1  0.96653172  0.98253900  0.39152546  1  0.969008  0  0.212179  0.277821  0  4.051575  0
C  C85  1  0.96653566  0.01745186  0.10846302  1  0.969393  0  0.212214  0.277973  0  4.051602  0
C  C86  1  0.02941031  0.13047365  0.58478154  1  -0.048242  0  0.000521  0.036709  0  4.046096  0
C  C87  1  0.02942508  0.86951777  0.91522098  1  -0.048197  0  0.000482  0.036565  0  4.046345  0
C  C88  1  0.97057465  0.86952187  0.41521400  1  -0.048395  0  0.000446  0.036639  0  4.046317  0
C  C89  1  0.97058738  0.13046993  0.08477826  1  -0.047997  0  0.000497  0.036456  0  4.046674  0
C  C90  1  0.90718142  0.19154670  0.58058892  1  -0.005216  0  -0.091875  -0.171751  0  3.959513  0
C  C91  1  0.90719574  0.80845731  0.91941092  1  -0.005556  0  -0.091936  -0.171902  0  3.959514  0
C  C92  1  0.09280456  0.80844889  0.41940965  1  -0.0054  0  -0.091831  -0.171838  0  3.959403  0
C  C93  1  0.09281570  0.19153303  0.08058870  1  -0.004928  0  -0.091843  -0.171479  0  3.959658  0
C  C94  1  0.91197158  0.30163088  0.56067613  1  0.491372  0  0.037513  0.08749  0  3.994633  0
C  C95  1  0.91198310  0.69836872  0.93932310  1  0.492343  0  0.037646  0.087842  0  3.994421  0
C  C96  1  0.08800626  0.69837183  0.43932707  1  0.491274  0  0.03752  0.087864  0  3.99479  0
C  C97  1  0.08804463  0.30161193  0.06067452  1  0.492067  0  0.03744  0.08745  0  3.994795  0
C  C98  1  0.14453513  0.29552613  0.54909876  1  0.498365  0  0.037137  0.082686  0  3.997899  0
C  C99  1  0.14454176  0.70447186  0.95090192  1  0.498351  0  0.037151  0.082705  0  3.997683  0
C  C100  1  0.85544678  0.70448449  0.45090559  1  0.498578  0  0.037205  0.082818  0  3.997742  0
C  C101  1  0.85547783  0.29552366  0.04909362  1  0.498351  0  0.03724  0.082744  0  3.99768  0
C  C102  1  0.15074220  0.18441009  0.56728789  1  -0.072925  0  -0.085515  -0.166479  0  3.942398  0
C  C103  1  0.15076285  0.81558443  0.93271535  1  -0.072618  0  -0.085383  -0.166338  0  3.942455  0
C  C104  1  0.84924174  0.81559776  0.43270942  1  -0.072971  0  -0.085447  -0.166466  0  3.942512  0
C  C105  1  0.84925776  0.18440862  0.06728768  1  -0.072847  0  -0.085521  -0.16644  0  3.942504  0
C  C106  1  0.86230805  0.77440283  0.66981815  1  -0.03385  0  0.007295  0.08919  0  4.038439  0
C  C107  1  0.86231800  0.22559782  0.83018088  1  -0.033847  0  0.007264  0.089141  0  4.038078  0
C  C108  1  0.13768811  0.22560803  0.33019709  1  -0.032845  0  0.00723  0.089066  0  4.038429  0
C  C109  1  0.13769140  0.77439765  0.16981224  1  -0.033109  0  0.007204  0.088958  0  4.038554  0
C  C110  1  0.88188804  0.65191694  0.64658370  1  -8.8e-05  0  -0.076187  -0.158326  0  3.909105  0
C  C111  1  0.88189445  0.34808721  0.85341838  1  -8.8e-05  0  -0.076051  -0.15807  0  3.908989  0
C  C112  1  0.11810609  0.34809479  0.35343105  1  0.000429  0  -0.076066  -0.158014  0  3.908851  0
C  C113  1  0.11810375  0.65191194  0.14658311  1  6.4e-05  0  -0.076086  -0.158006  0  3.909125  0
C  C114  1  0.78713587  0.57828786  0.67162009  1  0.540479  0  0.051979  0.107239  0  3.918507  0
C  C115  1  0.78714219  0.42171493  0.82838412  1  0.54017  0  0.05186  0.107038  0  3.918669  0
C  C116  1  0.21285928  0.42172032  0.32839295  1  0.539833  0  0.051872  0.107007  0  3.918591  0
C  C117  1  0.21285703  0.57828520  0.17162173  1  0.540505  0  0.051978  0.10706  0  3.918503  0
C  C118  1  0.65701340  0.73482639  0.73967271  1  0.498112  0  0.042972  0.096461  0  3.969124  0
C  C119  1  0.65700631  0.26517862  0.76033209  1  0.498254  0  0.042922  0.096441  0  3.9693  0
C  C120  1  0.34298480  0.26518194  0.26034759  1  0.497374  0  0.04308  0.096737  0  3.969121  0
C  C121  1  0.34299189  0.73482312  0.23966736  1  0.498309  0  0.04297  0.096543  0  3.96918  0
C  C122  1  0.74509572  0.81482412  0.71630609  1  -0.008957  0  -0.097647  -0.193425  0  3.97984  0
C  C123  1  0.74509281  0.18517871  0.78369360  1  -0.008939  0  -0.097625  -0.193367  0  3.979476  0
C  C124  1  0.25490553  0.18518686  0.28371519  1  -0.009198  0  -0.097762  -0.193648  0  3.979832  0
C  C125  1  0.25491150  0.81482019  0.21629579  1  -0.009352  0  -0.097623  -0.193382  0  3.979727  0
N  N126  1  0.37327886  0.60354017  0.70283766  1  -1.257546  0  -0.323609  -0.218874  0  3.550656  0
N  N127  1  0.37328677  0.39646390  0.79715771  1  -1.25736  0  -0.323587  -0.219072  0  3.550588  0
N  N128  1  0.62672138  0.39647209  0.29716149  1  -1.257311  0  -0.323612  -0.218913  0  3.550409  0
N  N129  1  0.62672365  0.60352795  0.20283067  1  -1.257187  0  -0.323632  -0.218918  0  3.550582  0
N  N130  1  0.14481633  0.95417784  0.61477467  1  -1.138897  0  -0.329612  -0.377969  0  3.182614  0
N  N131  1  0.14481968  0.04582981  0.88522619  1  -1.138582  0  -0.329618  -0.378102  0  3.182725  0
N  N132  1  0.85517780  0.04582558  0.38522079  1  -1.139069  0  -0.32954  -0.377812  0  3.182593  0
N  N133  1  0.85518361  0.95416207  0.11476340  1  -1.13919  0  -0.329669  -0.378027  0  3.182536  0
N  N134  1  0.91971093  0.96152173  0.62898916  1  -1.245068  0  -0.37829  -0.306922  0  3.656565  0
N  N135  1  0.91972830  0.03846907  0.87101068  1  -1.245906  0  -0.378191  -0.306784  0  3.656427  0
N  N136  1  0.08027709  0.03847648  0.37100918  1  -1.244679  0  -0.378189  -0.306874  0  3.656356  0
N  N137  1  0.08028314  0.96151936  0.12898143  1  -1.246086  0  -0.378232  -0.306996  0  3.656497  0
N  N138  1  0.02776218  0.35509338  0.54612340  1  -1.199197  0  -0.325454  -0.270574  0  3.295275  0
N  N139  1  0.02776222  0.64489628  0.95387824  1  -1.199453  0  -0.325553  -0.270705  0  3.29519  0
N  N140  1  0.97221565  0.64491555  0.45388371  1  -1.198475  0  -0.325459  -0.270738  0  3.295419  0
N  N141  1  0.97226043  0.35508606  0.04611661  1  -1.19974  0  -0.325424  -0.270634  0  3.295118  0
N  N142  1  0.67763017  0.61809759  0.71782054  1  -1.220781  0  -0.320573  -0.21323  0  3.54044  0
N  N143  1  0.67763279  0.38190650  0.78218548  1  -1.220436  0  -0.320492  -0.21319  0  3.540504  0
N  N144  1  0.32236396  0.38191327  0.28219470  1  -1.219908  0  -0.320592  -0.213328  0  3.540479  0
N  N145  1  0.32236643  0.61809716  0.21782148  1  -1.220881  0  -0.320556  -0.213242  0  3.540478  0
Cl  Cl146  1  0.52904395  0.36519471  0.60677492  1  -0.744722  0  -0.402776  -0.617908  0  0.929302  0
Cl  Cl147  1  0.52904484  0.63480984  0.89322768  1  -0.744647  0  -0.402768  -0.617883  0  0.929331  0
Cl  Cl148  1  0.47094509  0.63481139  0.39322335  1  -0.744684  0  -0.402781  -0.617909  0  0.929346  0
Cl  Cl149  1  0.47093809  0.36518601  0.10678298  1  -0.744662  0  -0.402773  -0.617897  0  0.929398  0
