# generated using pymatgen
data_ZnH16C12(N2Cl)2
_symmetry_space_group_name_H-M   'P 1'
_cell_length_a   8.63229240
_cell_length_b   11.29431562
_cell_length_c   15.80880000
_cell_angle_alpha   90.00000000
_cell_angle_beta   90.00000000
_cell_angle_gamma   103.96753648
_symmetry_Int_Tables_number   1
_chemical_formula_structural   ZnH16C12(N2Cl)2
_chemical_formula_sum   'Zn4 H64 C48 N16 Cl8'
_cell_volume   1495.72021842
_cell_formula_units_Z   4
loop_
 _symmetry_equiv_pos_site_id
 _symmetry_equiv_pos_as_xyz
  1  'x, y, z'
loop_
 _atom_site_type_symbol
 _atom_site_label
 _atom_site_symmetry_multiplicity
 _atom_site_fract_x
 _atom_site_fract_y
 _atom_site_fract_z
 _atom_site_occupancy
 _atom_site_hle17_bader_spin_density
 _atom_site_hle17_ddec_charge
 _atom_site_hle17_ddec_spin_density
 _atom_site_hle17_ddec_sum_bond_order
 _atom_site_hle17_magmom
 _atom_site_hse06_10hf_bader_spin_density
 _atom_site_hse06_10hf_ddec_charge
 _atom_site_hse06_10hf_ddec_spin_density
 _atom_site_hse06_10hf_ddec_sum_bond_order
 _atom_site_hse06_10hf_magmom
 _atom_site_hse06_bader_spin_density
 _atom_site_hse06_ddec_charge
 _atom_site_hse06_ddec_spin_density
 _atom_site_hse06_ddec_sum_bond_order
 _atom_site_hse06_magmom
 _atom_site_pbe_bader_charge
 _atom_site_pbe_bader_spin_density
 _atom_site_pbe_cm5_charge
 _atom_site_pbe_ddec_charge
 _atom_site_pbe_ddec_spin_density
 _atom_site_pbe_ddec_sum_bond_order
 _atom_site_pbe_magmom
Zn  Zn0  1  0.96468223  0.21854002  0.68040458  1  0  0.826186  0  2.166941  0  0  0.644913  0  2.667958  0  0  0.683529  0  2.621555  0  1.127101  0  0.564295  0.618307  0  2.699618  0
Zn  Zn1  1  0.53531704  0.28145850  0.18040332  1  0  0.826188  0  2.166904  0  0  0.644932  0  2.667904  0  0  0.683552  0  2.621501  0  1.127058  0  0.564279  0.618328  0  2.699567  0
Zn  Zn2  1  0.03531454  0.78145701  0.31959605  1  0  0.826188  0  2.166957  0  0  0.644924  0  2.667976  0  0  0.68354  0  2.621574  0  1.12706  0  0.56431  0.618318  0  2.699636  0
Zn  Zn3  1  0.46468233  0.71854309  0.81959731  1  0  0.826178  0  2.166962  0  0  0.644901  0  2.667976  0  0  0.68352  0  2.621569  0  1.12706  0  0.564277  0.618302  0  2.699638  0
H  H4  1  0.50532911  0.08462121  0.64503821  1  0  0.139393  0  0.974015  0  0  0.143891  0  1.044643  0  0  0.147543  0  1.041959  0  0.199945  0  0.1184  0.141155  0  1.046753  0
H  H5  1  0.99467015  0.41537730  0.14503947  1  0  0.139411  0  0.974029  0  0  0.143908  0  1.04465  0  0  0.14756  0  1.041966  0  0.199963  0  0.118408  0.141166  0  1.046767  0
H  H6  1  0.49466910  0.91538038  0.35496369  1  0  0.139432  0  0.974011  0  0  0.143919  0  1.044655  0  0  0.147572  0  1.04197  0  0.199951  0  0.118407  0.141165  0  1.046784  0
H  H7  1  0.00532835  0.58462155  0.85496179  1  0  0.139458  0  0.974099  0  0  0.143945  0  1.04473  0  0  0.1476  0  1.04204  0  0.19996  0  0.118417  0.141195  0  1.046856  0
H  H8  1  0.04628330  0.99039973  0.73218967  1  0  0.078464  0  0.94113  0  0  0.092162  0  1.009748  0  0  0.093078  0  1.009512  0  0.028718  0  0.090707  0.091388  0  1.010034  0
H  H9  1  0.45371676  0.50959947  0.23219156  1  0  0.07845  0  0.941043  0  0  0.092146  0  1.009666  0  0  0.093061  0  1.009429  0  0.028481  0  0.090684  0.091371  0  1.009956  0
H  H10  1  0.95371405  0.00959548  0.26780970  1  0  0.07842  0  0.941089  0  0  0.092125  0  1.009705  0  0  0.093042  0  1.009469  0  0.028497  0  0.090692  0.09135  0  1.009994  0
H  H11  1  0.54627942  0.49040304  0.76780970  1  0  0.078435  0  0.941141  0  0  0.092146  0  1.009765  0  0  0.093065  0  1.009529  0  0.028671  0  0.090703  0.091372  0  1.010053  0
H  H12  1  0.22166512  0.93508957  0.74227266  1  0  0.089897  0  0.958137  0  0  0.103019  0  1.023823  0  0  0.104529  0  1.023204  0  0.076785  0  0.086249  0.101844  0  1.02434  0
H  H13  1  0.27833407  0.56491054  0.24227013  1  0  0.089892  0  0.958102  0  0  0.103018  0  1.023785  0  0  0.104527  0  1.023163  0  0.076813  0  0.086257  0.101842  0  1.024301  0
H  H14  1  0.77833454  0.06490929  0.25772924  1  0  0.089888  0  0.95812  0  0  0.102996  0  1.023827  0  0  0.104506  0  1.023209  0  0.076827  0  0.086253  0.101819  0  1.024343  0
H  H15  1  0.72166182  0.43509105  0.75772861  1  0  0.089904  0  0.958092  0  0  0.103024  0  1.023793  0  0  0.104535  0  1.023176  0  0.076837  0  0.086252  0.101846  0  1.024311  0
H  H16  1  0.03680556  0.93987590  0.57615379  1  0  0.064261  0  0.946388  0  0  0.080435  0  1.011722  0  0  0.081364  0  1.012062  0  0.035567  0  0.079514  0.079664  0  1.011613  0
H  H17  1  0.46320116  0.56012238  0.07615379  1  0  0.064339  0  0.946289  0  0  0.080487  0  1.011626  0  0  0.08141  0  1.011977  0  0.035487  0  0.079502  0.079707  0  1.011526  0
H  H18  1  0.96320279  0.06012478  0.42384558  1  0  0.064309  0  0.946359  0  0  0.080431  0  1.011704  0  0  0.081343  0  1.012067  0  0.035643  0  0.079479  0.07966  0  1.011595  0
H  H19  1  0.53679878  0.43987738  0.92384558  1  0  0.064308  0  0.94633  0  0  0.080484  0  1.011637  0  0  0.081399  0  1.011996  0  0.0355  0  0.079498  0.079702  0  1.011539  0
H  H20  1  0.20231066  0.87587990  0.58882331  1  0  0.058868  0  0.940944  0  0  0.077654  0  1.001367  0  0  0.077947  0  1.003205  0  0.009338  0  0.079454  0.077356  0  1.000187  0
H  H21  1  0.29769722  0.62412203  0.08882268  1  0  0.058842  0  0.940984  0  0  0.077647  0  1.001375  0  0  0.077971  0  1.003179  0  0.009394  0  0.079452  0.07735  0  1.000193  0
H  H22  1  0.79769711  0.12412261  0.41117605  1  0  0.058855  0  0.941019  0  0  0.077647  0  1.001388  0  0  0.077973  0  1.003189  0  0.009415  0  0.079449  0.077348  0  1.00021  0
H  H23  1  0.70230418  0.37587865  0.91117605  1  0  0.058843  0  0.941016  0  0  0.07766  0  1.001397  0  0  0.077985  0  1.003198  0  0.009397  0  0.079462  0.077362  0  1.000214  0
H  H24  1  0.88522855  0.79086089  0.68424865  1  0  0.045688  0  0.944723  0  0  0.064035  0  1.008724  0  0  0.063662  0  1.010867  0  -0.009658  0  0.076921  0.064184  0  1.007357  0
H  H25  1  0.61477906  0.70913374  0.18425054  1  0  0.045755  0  0.944675  0  0  0.064119  0  1.008671  0  0  0.063747  0  1.010812  0  -0.009683  0  0.076954  0.064265  0  1.007309  0
H  H26  1  0.11477517  0.20913614  0.31574629  1  0  0.045757  0  0.944767  0  0  0.064116  0  1.008763  0  0  0.063743  0  1.010905  0  -0.009669  0  0.076936  0.064251  0  1.00741  0
H  H27  1  0.38522292  0.29086511  0.81574882  1  0  0.045749  0  0.944728  0  0  0.064118  0  1.008714  0  0  0.063746  0  1.010855  0  -0.009662  0  0.076953  0.064263  0  1.00735  0
H  H28  1  0.04659671  0.72049923  0.68916932  1  0  0.049356  0  0.939567  0  0  0.068556  0  1.000553  0  0  0.068536  0  1.002183  0  0.002128  0  0.07757  0.0685  0  0.999491  0
H  H29  1  0.45341175  0.77949723  0.18917059  1  0  0.049375  0  0.939616  0  0  0.068627  0  1.000554  0  0  0.068608  0  1.002183  0  0.002058  0  0.077602  0.068569  0  0.999498  0
H  H30  1  0.95340614  0.27949871  0.31082688  1  0  0.049356  0  0.939574  0  0  0.068566  0  1.000574  0  0  0.068548  0  1.002202  0  0.001963  0  0.077573  0.06851  0  0.999511  0
H  H31  1  0.54659080  0.22050345  0.81082751  1  0  0.049346  0  0.939585  0  0  0.06858  0  1.000553  0  0  0.06856  0  1.002185  0  0.002015  0  0.077588  0.068522  0  0.999494  0
H  H32  1  0.85383537  0.74197660  0.52806348  1  0  0.08102  0  0.977913  0  0  0.098304  0  1.048701  0  0  0.098986  0  1.049967  0  0.019321  0  0.073144  0.097767  0  1.047881  0
H  H33  1  0.64617078  0.75802077  0.02806412  1  0  0.080997  0  0.97788  0  0  0.098275  0  1.048682  0  0  0.098961  0  1.049942  0  0.019267  0  0.073119  0.097737  0  1.04786  0
H  H34  1  0.14617123  0.25802590  0.47193209  1  0  0.081038  0  0.977907  0  0  0.098347  0  1.048672  0  0  0.099028  0  1.04994  0  0.019372  0  0.073183  0.097811  0  1.04785  0
H  H35  1  0.35383641  0.24197991  0.97193588  1  0  0.081027  0  0.977907  0  0  0.098323  0  1.048676  0  0  0.099002  0  1.049945  0  0.019312  0  0.073137  0.097786  0  1.047856  0
H  H36  1  0.83624047  0.60762351  0.59004162  1  0  0.085525  0  0.970606  0  0  0.10548  0  1.035294  0  0  0.106654  0  1.035521  0  0.043542  0  0.071553  0.104628  0  1.035134  0
H  H37  1  0.66376800  0.89237386  0.09004162  1  0  0.085498  0  0.970635  0  0  0.105469  0  1.0353  0  0  0.106646  0  1.035521  0  0.043418  0  0.071546  0.104612  0  1.035144  0
H  H38  1  0.16376498  0.39237900  0.40995458  1  0  0.085482  0  0.970688  0  0  0.105462  0  1.035346  0  0  0.106636  0  1.035576  0  0.043387  0  0.071526  0.104605  0  1.03519  0
H  H39  1  0.33623861  0.10762499  0.90995901  1  0  0.085538  0  0.970607  0  0  0.10548  0  1.035301  0  0  0.106658  0  1.035521  0  0.043558  0  0.071548  0.104628  0  1.035145  0
H  H40  1  0.01386965  0.66943071  0.53328020  1  0  0.090045  0  0.96726  0  0  0.108846  0  1.034611  0  0  0.109721  0  1.035707  0  0.027893  0  0.075197  0.108137  0  1.033945  0
H  H41  1  0.48613649  0.83056575  0.03328273  1  0  0.089975  0  0.967246  0  0  0.108813  0  1.034579  0  0  0.109689  0  1.035674  0  0.027957  0  0.07511  0.108101  0  1.033916  0
H  H42  1  0.98613493  0.33056906  0.46671474  1  0  0.089926  0  0.967273  0  0  0.108774  0  1.034593  0  0  0.109648  0  1.035691  0  0.027953  0  0.075116  0.108064  0  1.033928  0
H  H43  1  0.51386982  0.16943585  0.96671664  1  0  0.090039  0  0.967277  0  0  0.108848  0  1.034613  0  0  0.109724  0  1.035708  0  0.027865  0  0.075159  0.108137  0  1.033951  0
H  H44  1  0.68039949  0.30228808  0.60575692  1  0  0.102651  0  0.965047  0  0  0.112145  0  1.037984  0  0  0.11376  0  1.036516  0  0.157236  0  0.109024  0.110867  0  1.03916  0
H  H45  1  0.81960150  0.19771226  0.10576008  1  0  0.102619  0  0.965032  0  0  0.112137  0  1.037958  0  0  0.113743  0  1.036486  0  0.157307  0  0.109033  0.110864  0  1.039132  0
H  H46  1  0.31959668  0.69771442  0.39424055  1  0  0.102683  0  0.964992  0  0  0.112196  0  1.037886  0  0  0.113799  0  1.036413  0  0.157315  0  0.10906  0.110922  0  1.039059  0
H  H47  1  0.18040019  0.80228569  0.89424181  1  0  0.102628  0  0.965077  0  0  0.112133  0  1.038  0  0  0.113738  0  1.036526  0  0.157349  0  0.109014  0.11086  0  1.039174  0
H  H48  1  0.58082231  0.42186796  0.60094947  1  0  0.106908  0  0.905528  0  0  0.121794  0  0.966284  0  0  0.123059  0  0.965831  0  0.10801  0  0.125846  0.120851  0  0.966677  0
H  H49  1  0.91917609  0.07813147  0.10095137  1  0  0.106868  0  0.905512  0  0  0.121743  0  0.966314  0  0  0.122995  0  0.965856  0  0.108406  0  0.12582  0.120798  0  0.966709  0
H  H50  1  0.41917127  0.57813363  0.39905116  1  0  0.10693  0  0.905495  0  0  0.121772  0  0.966303  0  0  0.12302  0  0.965842  0  0.108058  0  0.125843  0.120831  0  0.966695  0
H  H51  1  0.08082531  0.92186556  0.89905432  1  0  0.106912  0  0.905494  0  0  0.121778  0  0.966272  0  0  0.123026  0  0.965811  0  0.108078  0  0.125843  0.120835  0  0.966665  0
H  H52  1  0.38655398  0.14401244  0.47941083  1  0  0.11311  0  0.960566  0  0  0.120736  0  1.02346  0  0  0.123591  0  1.02356  0  0.114145  0  0.107037  0.118704  0  1.023551  0
H  H53  1  0.11344962  0.35598425  0.97941147  1  0  0.113236  0  0.960711  0  0  0.120862  0  1.023562  0  0  0.123716  0  1.023662  0  0.114154  0  0.107082  0.118829  0  1.023653  0
H  H54  1  0.61344394  0.85598824  0.52058980  1  0  0.113135  0  0.960591  0  0  0.12076  0  1.023479  0  0  0.123616  0  1.023576  0  0.114183  0  0.107039  0.118727  0  1.02357  0
H  H55  1  0.88654976  0.64401004  0.02059043  1  0  0.113134  0  0.960631  0  0  0.120764  0  1.023496  0  0  0.123619  0  1.023596  0  0.114126  0  0.107052  0.118731  0  1.023588  0
H  H56  1  0.38877408  0.13723895  0.32383989  1  0  0.076546  0  0.970841  0  0  0.079882  0  1.04563  0  0  0.082562  0  1.042865  0  0.123282  0  0.104222  0.077869  0  1.047697  0
H  H57  1  0.11122401  0.36275865  0.82384115  1  0  0.076552  0  0.970864  0  0  0.079869  0  1.045685  0  0  0.082549  0  1.042917  0  0.123339  0  0.104182  0.077853  0  1.047756  0
H  H58  1  0.61122181  0.86276264  0.67616075  1  0  0.076563  0  0.970783  0  0  0.079899  0  1.045574  0  0  0.082576  0  1.042811  0  0.123302  0  0.104226  0.077886  0  1.04764  0
H  H59  1  0.88877420  0.63723929  0.17616011  1  0  0.076545  0  0.970833  0  0  0.079891  0  1.045624  0  0  0.08257  0  1.042859  0  0.123263  0  0.104223  0.077877  0  1.047692  0
H  H60  1  0.73385159  0.46530809  0.30909177  1  0  0.07716  0  0.975659  0  0  0.077388  0  1.055965  0  0  0.080257  0  1.052779  0  0.132388  0  0.104385  0.075239  0  1.058312  0
H  H61  1  0.76614332  0.03469134  0.80909493  1  0  0.077148  0  0.975702  0  0  0.077448  0  1.055935  0  0  0.080316  0  1.052747  0  0.132397  0  0.1044  0.075298  0  1.058282  0
H  H62  1  0.26613850  0.53469715  0.69090696  1  0  0.077104  0  0.975744  0  0  0.077412  0  1.055971  0  0  0.080284  0  1.05279  0  0.132363  0  0.104391  0.075265  0  1.058317  0
H  H63  1  0.23385749  0.96530752  0.19090823  1  0  0.077139  0  0.975697  0  0  0.077386  0  1.055956  0  0  0.080253  0  1.052769  0  0.132379  0  0.104372  0.075238  0  1.058304  0
H  H64  1  0.74859917  0.48515869  0.46467284  1  0  0.123678  0  0.94582  0  0  0.13139  0  1.009447  0  0  0.134607  0  1.008679  0  0.150774  0  0.112798  0.129053  0  1.010214  0
H  H65  1  0.75139517  0.01484256  0.96467664  1  0  0.123729  0  0.945682  0  0  0.131403  0  1.00935  0  0  0.134618  0  1.008588  0  0.15075  0  0.112828  0.129066  0  1.010117  0
H  H66  1  0.25139064  0.51484564  0.53532589  1  0  0.123707  0  0.945738  0  0  0.131428  0  1.009336  0  0  0.134646  0  1.008567  0  0.151101  0  0.112843  0.129092  0  1.010103  0
H  H67  1  0.24860421  0.98515173  0.03532336  1  0  0.123743  0  0.945753  0  0  0.131413  0  1.009409  0  0  0.134628  0  1.008646  0  0.150865  0  0.112814  0.129077  0  1.010175  0
C  C68  1  0.25110796  0.09778591  0.67114012  1  0  0.191733  0  3.714375  0  0  0.187838  0  3.980669  0  0  0.190647  0  4.002144  0  0.48038  0  0.107388  0.185683  0  3.966278  0
C  C69  1  0.24889447  0.40221443  0.17113886  1  0  0.191691  0  3.71441  0  0  0.187806  0  3.980707  0  0  0.190613  0  4.002182  0  0.480893  0  0.107346  0.185652  0  3.966315  0
C  C70  1  0.74889285  0.90221660  0.32886241  1  0  0.191566  0  3.714434  0  0  0.187646  0  3.980788  0  0  0.190462  0  4.002255  0  0.480392  0  0.107343  0.185492  0  3.966394  0
C  C71  1  0.75110287  0.59778442  0.82885988  1  0  0.191732  0  3.714373  0  0  0.187844  0  3.980696  0  0  0.190657  0  4.002174  0  0.480361  0  0.10739  0.185689  0  3.966304  0
C  C72  1  0.40975323  0.13200372  0.64674232  1  0  -0.093548  0  3.576026  0  0  -0.155927  0  3.830071  0  0  -0.154894  0  3.844742  0  0.296943  0  0.032733  -0.156482  0  3.82042  0
C  C73  1  0.09024892  0.36799570  0.14674295  1  0  -0.093555  0  3.576038  0  0  -0.155906  0  3.830052  0  0  -0.154875  0  3.84473  0  0.29644  0  0.032771  -0.156456  0  3.820408  0
C  C74  1  0.59024498  0.86799787  0.35326021  1  0  -0.09346  0  3.575869  0  0  -0.155837  0  3.829938  0  0  -0.154808  0  3.844613  0  0.297032  0  0.032749  -0.156376  0  3.8203  0
C  C75  1  0.90975422  0.63199950  0.85325894  1  0  -0.093613  0  3.575938  0  0  -0.155976  0  3.830006  0  0  -0.154945  0  3.844681  0  0.296906  0  0.032698  -0.156515  0  3.820363  0
C  C76  1  0.15196501  0.97693942  0.69803780  1  0  -0.173594  0  3.720602  0  0  -0.213897  0  3.970255  0  0  -0.215082  0  3.982675  0  -0.009045  0  -0.161279  -0.212784  0  3.961632  0
C  C77  1  0.34803505  0.52305978  0.19803654  1  0  -0.173494  0  3.720398  0  0  -0.213821  0  3.97007  0  0  -0.215003  0  3.982489  0  -0.008826  0  -0.161223  -0.212709  0  3.961446  0
C  C78  1  0.84803436  0.02305852  0.30196410  1  0  -0.173427  0  3.720672  0  0  -0.213757  0  3.970301  0  0  -0.214954  0  3.982735  0  -0.008865  0  -0.161248  -0.212643  0  3.961679  0
C  C79  1  0.65196287  0.47694090  0.80196283  1  0  -0.173493  0  3.720599  0  0  -0.213847  0  3.970309  0  0  -0.21505  0  3.982757  0  -0.009074  0  -0.161273  -0.212732  0  3.961686  0
C  C80  1  0.09716212  0.89256181  0.62184416  1  0  -0.103875  0  3.684223  0  0  -0.140328  0  3.937277  0  0  -0.142511  0  3.952935  0  0.008327  0  -0.169751  -0.138619  0  3.926324  0
C  C81  1  0.40284691  0.60743647  0.12184480  1  0  -0.104005  0  3.684215  0  0  -0.140419  0  3.937256  0  0  -0.142623  0  3.952925  0  0.008794  0  -0.169777  -0.138701  0  3.926304  0
C  C82  1  0.90284622  0.10743887  0.37815394  1  0  -0.104057  0  3.68442  0  0  -0.140358  0  3.937286  0  0  -0.14255  0  3.952955  0  0.008448  0  -0.169746  -0.138647  0  3.926328  0
C  C83  1  0.59715303  0.39256330  0.87815457  1  0  -0.104014  0  3.684262  0  0  -0.140436  0  3.937312  0  0  -0.142626  0  3.95298  0  0.008689  0  -0.169771  -0.138718  0  3.926359  0
C  C84  1  0.98448062  0.77166994  0.64698396  1  0  -0.054986  0  3.708802  0  0  -0.08528  0  3.964784  0  0  -0.086098  0  3.981675  0  0.014694  0  -0.17318  -0.084537  0  3.952999  0
C  C85  1  0.51552785  0.72832743  0.14698459  1  0  -0.055013  0  3.708788  0  0  -0.085406  0  3.964857  0  0  -0.086228  0  3.98176  0  0.014274  0  -0.173184  -0.084662  0  3.953069  0
C  C86  1  0.01552599  0.22832892  0.35301288  1  0  -0.054963  0  3.709001  0  0  -0.085351  0  3.965015  0  0  -0.086173  0  3.981913  0  0.014537  0  -0.17313  -0.084598  0  3.953221  0
C  C87  1  0.48447441  0.27167233  0.85301478  1  0  -0.054943  0  3.708825  0  0  -0.08533  0  3.964885  0  0  -0.08615  0  3.981782  0  0.014414  0  -0.173184  -0.084582  0  3.953092  0
C  C88  1  0.91832692  0.69345727  0.57046329  1  0  -0.289192  0  3.734792  0  0  -0.359835  0  3.978606  0  0  -0.362599  0  3.990475  0  -0.07781  0  -0.25827  -0.357695  0  3.970365  0
C  C89  1  0.58168184  0.80654102  0.07046518  1  0  -0.289117  0  3.734724  0  0  -0.359804  0  3.978567  0  0  -0.362573  0  3.990434  0  -0.077623  0  -0.258211  -0.357652  0  3.970325  0
C  C90  1  0.08168056  0.30654432  0.42953102  1  0  -0.289067  0  3.734891  0  0  -0.359797  0  3.978753  0  0  -0.362561  0  3.990623  0  -0.077711  0  -0.258239  -0.35765  0  3.970507  0
C  C91  1  0.41832419  0.19345966  0.92953482  1  0  -0.28925  0  3.734754  0  0  -0.359899  0  3.97862  0  0  -0.362661  0  3.990491  0  -0.077732  0  -0.258251  -0.357759  0  3.970375  0
C  C92  1  0.57318226  0.32739672  0.58152548  1  0  -0.075745  0  3.636123  0  0  -0.151854  0  3.876031  0  0  -0.149574  0  3.884595  0  0.296819  0  -0.037141  -0.153194  0  3.870165  0
C  C93  1  0.92681700  0.17260180  0.08152738  1  0  -0.075624  0  3.63591  0  0  -0.151795  0  3.875913  0  0  -0.149459  0  3.884407  0  0.296356  0  -0.037127  -0.153138  0  3.870045  0
C  C94  1  0.42681392  0.67260579  0.41847452  1  0  -0.075874  0  3.636115  0  0  -0.151958  0  3.876007  0  0  -0.149605  0  3.884481  0  0.296725  0  -0.03716  -0.153305  0  3.870146  0
C  C95  1  0.07318382  0.82739341  0.91847452  1  0  -0.075818  0  3.636191  0  0  -0.151901  0  3.876112  0  0  -0.149551  0  3.88459  0  0.296627  0  -0.037136  -0.153245  0  3.870246  0
C  C96  1  0.56667671  0.31667537  0.48633103  1  0  0.140349  0  3.694575  0  0  0.155514  0  3.93409  0  0  0.160255  0  3.955886  0  -0.140816  0  0.019073  0.15256  0  3.919228  0
C  C97  1  0.93332140  0.18331950  0.98633230  1  0  0.140465  0  3.694598  0  0  0.155669  0  3.93404  0  0  0.160396  0  3.955826  0  -0.140953  0  0.019132  0.152712  0  3.919182  0
C  C98  1  0.43331571  0.68332623  0.51366834  1  0  0.140469  0  3.694613  0  0  0.155618  0  3.934101  0  0  0.160343  0  3.955884  0  -0.141062  0  0.019105  0.152661  0  3.919243  0
C  C99  1  0.06667537  0.81667023  0.01366770  1  0  0.140379  0  3.694439  0  0  0.155504  0  3.933986  0  0  0.160229  0  3.955769  0  -0.140969  0  0.019048  0.152548  0  3.919126  0
C  C100  1  0.46585665  0.21805281  0.44506477  1  0  -0.161164  0  3.702296  0  0  -0.180578  0  3.947665  0  0  -0.18873  0  3.969473  0  0.016823  0  -0.082814  -0.17541  0  3.933117  0
C  C101  1  0.03414578  0.28194753  0.94506730  1  0  -0.161424  0  3.702465  0  0  -0.180824  0  3.94781  0  0  -0.188978  0  3.969618  0  0.01681  0  -0.082889  -0.175654  0  3.933263  0
C  C102  1  0.53414068  0.78194970  0.55493586  1  0  -0.161278  0  3.70238  0  0  -0.180681  0  3.947748  0  0  -0.188835  0  3.96956  0  0.016962  0  -0.082848  -0.17551  0  3.933198  0
C  C103  1  0.96585272  0.71805132  0.05493586  1  0  -0.161176  0  3.702271  0  0  -0.180558  0  3.947646  0  0  -0.188713  0  3.969459  0  0.016965  0  -0.082817  -0.175389  0  3.933099  0
C  C104  1  0.46554044  0.21372814  0.35736615  1  0  0.138382  0  3.69603  0  0  0.109859  0  3.939592  0  0  0.117115  0  3.957847  0  0.453119  0  0.046079  0.105218  0  3.927221  0
C  C105  1  0.03445649  0.28626947  0.85736805  1  0  0.138465  0  3.696245  0  0  0.109931  0  3.939832  0  0  0.117189  0  3.958086  0  0.453156  0  0.046118  0.105291  0  3.927458  0
C  C106  1  0.53445371  0.78627163  0.64263195  1  0  0.138419  0  3.696196  0  0  0.109889  0  3.939768  0  0  0.117144  0  3.958018  0  0.45302  0  0.046089  0.105251  0  3.927399  0
C  C107  1  0.96553709  0.71372848  0.14263322  1  0  0.138379  0  3.695977  0  0  0.109829  0  3.939569  0  0  0.117088  0  3.957823  0  0.453104  0  0.046077  0.105187  0  3.927199  0
C  C108  1  0.65806442  0.39632868  0.34906381  1  0  0.137042  0  3.700086  0  0  0.103298  0  3.954221  0  0  0.110999  0  3.97165  0  0.479708  0  0.048892  0.098359  0  3.942425  0
C  C109  1  0.84193224  0.10366527  0.84906634  1  0  0.137097  0  3.699974  0  0  0.103283  0  3.954119  0  0  0.110989  0  3.971541  0  0.479772  0  0.048844  0.098345  0  3.942322  0
C  C110  1  0.34192539  0.60367200  0.65093429  1  0  0.137187  0  3.700117  0  0  0.10334  0  3.954284  0  0  0.111031  0  3.971713  0  0.479719  0  0.048885  0.098404  0  3.942492  0
C  C111  1  0.15806540  0.89633085  0.15093366  1  0  0.137053  0  3.700224  0  0  0.103314  0  3.954355  0  0  0.11102  0  3.971778  0  0.479576  0  0.048912  0.098374  0  3.942559  0
C  C112  1  0.66562418  0.40667961  0.43671373  1  0  -0.155597  0  3.674341  0  0  -0.173075  0  3.918351  0  0  -0.181266  0  3.939685  0  -0.004814  0  -0.076487  -0.167874  0  3.904143  0
C  C113  1  0.83437971  0.09332256  0.93671499  1  0  -0.155828  0  3.674598  0  0  -0.173284  0  3.918664  0  0  -0.181475  0  3.939999  0  -0.004869  0  -0.076581  -0.168081  0  3.904453  0
C  C114  1  0.33437171  0.59332563  0.56328754  1  0  -0.155809  0  3.674604  0  0  -0.173267  0  3.918662  0  0  -0.181461  0  3.940005  0  -0.005211  0  -0.076605  -0.168065  0  3.904452  0
C  C115  1  0.16562718  0.90667721  0.06328754  1  0  -0.15575  0  3.674468  0  0  -0.173166  0  3.918483  0  0  -0.181358  0  3.93982  0  -0.00489  0  -0.076549  -0.167965  0  3.904274  0
N  N116  1  0.19104202  0.19837647  0.65975090  1  0  -0.266512  0  3.259142  0  0  -0.203085  0  3.568772  0  0  -0.2158  0  3.581206  0  -0.69486  0  -0.22154  -0.194363  0  3.560333  0
N  N117  1  0.30895897  0.30162296  0.15974900  1  0  -0.26648  0  3.25913  0  0  -0.203098  0  3.568817  0  0  -0.215816  0  3.581251  0  -0.694867  0  -0.221539  -0.194376  0  3.560381  0
N  N118  1  0.80895504  0.80162147  0.34025163  1  0  -0.266398  0  3.259133  0  0  -0.202987  0  3.568807  0  0  -0.215703  0  3.581237  0  -0.694768  0  -0.22152  -0.194265  0  3.56037  0
N  N119  1  0.69104242  0.69837772  0.84024973  1  0  -0.266547  0  3.259122  0  0  -0.203134  0  3.568776  0  0  -0.215851  0  3.581208  0  -0.694839  0  -0.221545  -0.194413  0  3.560341  0
N  N120  1  0.30142568  0.29138517  0.62990170  1  0  -0.093896  0  2.850352  0  0  -0.114161  0  3.126729  0  0  -0.112095  0  3.1391  0  -0.078083  0  -0.088028  -0.115279  0  3.118353  0
N  N121  1  0.19857531  0.20861426  0.12990107  1  0  -0.093935  0  2.85037  0  0  -0.11418  0  3.126751  0  0  -0.112113  0  3.139126  0  -0.078143  0  -0.088052  -0.115297  0  3.118375  0
N  N122  1  0.69856992  0.70861551  0.37009830  1  0  -0.093956  0  2.850367  0  0  -0.114199  0  3.126723  0  0  -0.112133  0  3.139098  0  -0.078072  0  -0.08805  -0.115317  0  3.118347  0
N  N123  1  0.80142696  0.79138551  0.87009703  1  0  -0.093849  0  2.850333  0  0  -0.114085  0  3.126698  0  0  -0.112018  0  3.139074  0  -0.078099  0  -0.088007  -0.115203  0  3.118323  0
N  N124  1  0.43373867  0.25041667  0.62225912  1  0  0.079961  0  3.607166  0  0  0.194532  0  3.799935  0  0  0.188776  0  3.820748  0  -0.805167  0  -0.121081  0.198183  0  3.785953  0
N  N125  1  0.06626319  0.24958184  0.12226039  1  0  0.079954  0  3.607206  0  0  0.194523  0  3.799988  0  0  0.188751  0  3.820794  0  -0.805147  0  -0.121088  0.198173  0  3.786008  0
N  N126  1  0.56625809  0.74958401  0.37774151  1  0  0.079963  0  3.607041  0  0  0.194545  0  3.799782  0  0  0.188769  0  3.820586  0  -0.80537  0  -0.121082  0.198196  0  3.7858  0
N  N127  1  0.93373937  0.75041884  0.87774088  1  0  0.08  0  3.607101  0  0  0.19454  0  3.799904  0  0  0.188765  0  3.820708  0  -0.805114  0  -0.121068  0.198191  0  3.785921  0
N  N128  1  0.55895870  0.30174795  0.30986919  1  0  -0.326399  0  3.332899  0  0  -0.239673  0  3.600123  0  0  -0.259099  0  3.616635  0  -1.25858  0  -0.335941  -0.226646  0  3.588743  0
N  N129  1  0.94104404  0.19825056  0.80987045  1  0  -0.326308  0  3.332794  0  0  -0.239571  0  3.600037  0  0  -0.259  0  3.616552  0  -1.258534  0  -0.335836  -0.226542  0  3.588653  0
N  N130  1  0.44104067  0.69825364  0.69013208  1  0  -0.326361  0  3.332863  0  0  -0.239624  0  3.600123  0  0  -0.259033  0  3.616615  0  -1.258406  0  -0.335882  -0.22661  0  3.588759  0
N  N131  1  0.05895533  0.80175103  0.19013081  1  0  -0.326293  0  3.332782  0  0  -0.239577  0  3.600024  0  0  -0.259005  0  3.616539  0  -1.258412  0  -0.335885  -0.226547  0  3.588642  0
Cl  Cl132  1  0.96236759  0.41288104  0.65696068  1  0  -0.550315  0  0.970911  0  0  -0.480621  0  1.249411  0  0  -0.496052  0  1.227195  0  -0.656715  0  -0.28924  -0.469443  0  1.264575  0
Cl  Cl133  1  0.53763022  0.08711656  0.15695815  1  0  -0.550307  0  0.970909  0  0  -0.480611  0  1.249403  0  0  -0.496043  0  1.227186  0  -0.656707  0  -0.289236  -0.469433  0  1.264567  0
Cl  Cl134  1  0.03762917  0.58711599  0.34303995  1  0  -0.550307  0  0.970908  0  0  -0.480622  0  1.249428  0  0  -0.496052  0  1.227211  0  -0.656709  0  -0.289236  -0.469442  0  1.264592  0
Cl  Cl135  1  0.46237030  0.91288503  0.84304122  1  0  -0.550295  0  0.970891  0  0  -0.480604  0  1.249406  0  0  -0.496035  0  1.227187  0  -0.656733  0  -0.289226  -0.469424  0  1.264572  0
Cl  Cl136  1  0.78528920  0.07263622  0.61394983  1  0  -0.551428  0  0.940575  0  0  -0.483383  0  1.213294  0  0  -0.497408  0  1.189744  0  -0.667393  0  -0.295744  -0.473216  0  1.229332  0
Cl  Cl137  1  0.71471498  0.42736686  0.11395425  1  0  -0.551413  0  0.940576  0  0  -0.483379  0  1.213309  0  0  -0.497399  0  1.189746  0  -0.667393  0  -0.295719  -0.473205  0  1.229335  0
Cl  Cl138  1  0.21470901  0.92736538  0.38604764  1  0  -0.551431  0  0.940594  0  0  -0.483388  0  1.213322  0  0  -0.497411  0  1.189763  0  -0.667384  0  -0.29574  -0.473218  0  1.229358  0
Cl  Cl139  1  0.28528785  0.57263838  0.88605081  1  0  -0.551433  0  0.940613  0  0  -0.483368  0  1.213322  0  0  -0.497401  0  1.189778  0  -0.667401  0  -0.295728  -0.473204  0  1.229366  0
