# generated using pymatgen
data_ZnMo8H30C30(N4O7)4
_symmetry_space_group_name_H-M   'P 1'
_cell_length_a   7.26749717
_cell_length_b   10.51082506
_cell_length_c   16.40800000
_cell_angle_alpha   96.04301560
_cell_angle_beta   93.63625180
_cell_angle_gamma   95.75878769
_symmetry_Int_Tables_number   1
_chemical_formula_structural   ZnMo8H30C30(N4O7)4
_chemical_formula_sum   'Zn1 Mo8 H30 C30 N16 O28'
_cell_volume   1236.63726399
_cell_formula_units_Z   1
loop_
 _symmetry_equiv_pos_site_id
 _symmetry_equiv_pos_as_xyz
  1  'x, y, z'
loop_
 _atom_site_type_symbol
 _atom_site_label
 _atom_site_symmetry_multiplicity
 _atom_site_fract_x
 _atom_site_fract_y
 _atom_site_fract_z
 _atom_site_occupancy
 _atom_site_hle17_bader_spin_density
 _atom_site_hle17_ddec_charge
 _atom_site_hle17_ddec_spin_density
 _atom_site_hle17_ddec_sum_bond_order
 _atom_site_hle17_magmom
 _atom_site_hse06_10hf_bader_spin_density
 _atom_site_hse06_10hf_ddec_charge
 _atom_site_hse06_10hf_ddec_spin_density
 _atom_site_hse06_10hf_ddec_sum_bond_order
 _atom_site_hse06_10hf_magmom
 _atom_site_hse06_bader_spin_density
 _atom_site_hse06_ddec_charge
 _atom_site_hse06_ddec_spin_density
 _atom_site_hse06_ddec_sum_bond_order
 _atom_site_hse06_magmom
 _atom_site_pbe_bader_charge
 _atom_site_pbe_bader_spin_density
 _atom_site_pbe_cm5_charge
 _atom_site_pbe_ddec_charge
 _atom_site_pbe_ddec_spin_density
 _atom_site_pbe_ddec_sum_bond_order
 _atom_site_pbe_magmom
Zn  Zn0  1  0.00000064  0.49999949  0.50000023  1  0  1.309081  0  1.694034  0  0  1.194922  0  2.136681  0  0  1.239091  0  2.070436  0  1.418669  0  0.680018  1.163337  0  2.182741  0
Mo  Mo1  1  0.34955955  0.66209012  0.38777974  1  0  2.164607  0  4.111928  0  0  2.154593  0  4.644988  0  0  2.251855  0  4.618145  0  2.613249  0  1.548725  2.080383  0  4.673838  0
Mo  Mo2  1  0.65044102  0.33790982  0.61222070  1  0  2.164557  0  4.111986  0  0  2.154534  0  4.645063  0  0  2.251803  0  4.618213  0  2.613214  0  1.548707  2.080317  0  4.673926  0
Mo  Mo3  1  0.36828581  0.73477954  0.58675244  1  0  2.224925  0  4.05176  0  0  2.225431  0  4.577707  0  0  2.32397  0  4.546894  0  2.618459  0  1.524897  2.151915  0  4.607203  0
Mo  Mo4  1  0.63171338  0.26522040  0.41324857  1  0  2.224859  0  4.051813  0  0  2.225364  0  4.577774  0  0  2.323903  0  4.54696  0  2.618468  0  1.524827  2.151828  0  4.607301  0
Mo  Mo5  1  0.27204392  0.97054213  0.45522137  1  0  2.268577  0  4.02321  0  0  2.263888  0  4.551879  0  0  2.36456  0  4.515612  0  2.611482  0  1.515932  2.187109  0  4.587081  0
Mo  Mo6  1  0.72795803  0.02945781  0.54477911  1  0  2.268592  0  4.023173  0  0  2.26392  0  4.551831  0  0  2.364585  0  4.515575  0  2.611426  0  1.51594  2.187139  0  4.587035  0
Mo  Mo7  1  0.62003083  0.97004749  0.33099760  1  0  2.19764  0  4.093244  0  0  2.203547  0  4.626328  0  0  2.301246  0  4.59307  0  2.601768  0  1.506381  2.129153  0  4.658973  0
Mo  Mo8  1  0.37996974  0.02995245  0.66900344  1  0  2.197625  0  4.09328  0  0  2.203528  0  4.626366  0  0  2.30123  0  4.593108  0  2.601806  0  1.50636  2.129136  0  4.65901  0
H  H9  1  0.29916732  0.83759367  0.22680904  1  0  0.104244  0  0.981779  0  0  0.113205  0  1.043437  0  0  0.115737  0  1.040542  0  0.196313  0  0.134885  0.11115  0  1.04586  0
H  H10  1  0.70083463  0.16240627  0.77319205  1  0  0.104214  0  0.981809  0  0  0.11318  0  1.043459  0  0  0.115713  0  1.040561  0  0.196338  0  0.134866  0.111122  0  1.045892  0
H  H11  1  0.88859536  0.57011565  0.30202276  1  0  0.13679  0  0.896862  0  0  0.147987  0  0.953184  0  0  0.150953  0  0.948352  0  0.221531  0  0.15914  0.145658  0  0.956258  0
H  H12  1  0.11140521  0.42988429  0.69797829  1  0  0.136794  0  0.896846  0  0  0.147962  0  0.953203  0  0  0.150927  0  0.948371  0  0.221557  0  0.159136  0.145635  0  0.956274  0
H  H13  1  0.64128962  0.57621488  0.18043762  1  0  0.119101  0  0.938505  0  0  0.123089  0  1.011653  0  0  0.126077  0  1.006596  0  0.214164  0  0.13947  0.120852  0  1.0146  0
H  H14  1  0.35871371  0.42378506  0.81956229  1  0  0.1191  0  0.938484  0  0  0.123083  0  1.011638  0  0  0.126072  0  1.006581  0  0.214152  0  0.139473  0.120847  0  1.014584  0
H  H15  1  0.65630239  0.74390529  0.16134412  1  0  0.111478  0  0.895521  0  0  0.123262  0  0.955914  0  0  0.124659  0  0.952921  0  0.124155  0  0.142375  0.121886  0  0.958003  0
H  H16  1  0.34369971  0.25609561  0.83865582  1  0  0.111462  0  0.895553  0  0  0.123256  0  0.955938  0  0  0.124653  0  0.952941  0  0.12415  0  0.142364  0.12188  0  0.958024  0
H  H17  1  0.80754816  0.54025654  0.79051763  1  0  0.124927  0  0.953935  0  0  0.128338  0  1.022421  0  0  0.131971  0  1.021224  0  0.099707  0  0.114769  0.125699  0  1.023579  0
H  H18  1  0.19245088  0.45974244  0.20948148  1  0  0.124918  0  0.953898  0  0  0.128337  0  1.022385  0  0  0.131965  0  1.021203  0  0.099669  0  0.11476  0.125699  0  1.02354  0
H  H19  1  0.88554362  0.65887017  0.66871783  1  0  0.12513  0  0.928669  0  0  0.131777  0  0.988101  0  0  0.134923  0  0.984886  0  0.210115  0  0.136843  0.129284  0  0.990766  0
H  H20  1  0.11446231  0.34112881  0.33128208  1  0  0.125065  0  0.92876  0  0  0.131821  0  0.988063  0  0  0.134967  0  0.984847  0  0.210126  0  0.136864  0.129302  0  0.990764  0
H  H21  1  0.87986928  0.90627692  0.94145290  1  0  0.118002  0  0.942727  0  0  0.128147  0  1.00107  0  0  0.131785  0  0.999583  0  0.08369  0  0.116515  0.125744  0  1.001922  0
H  H22  1  0.12012134  0.09372109  0.05854652  1  0  0.117979  0  0.942717  0  0  0.128141  0  1.001041  0  0  0.13178  0  0.999552  0  0.083655  0  0.116497  0.125726  0  1.001909  0
H  H23  1  0.95180022  0.01156910  0.81347479  1  0  0.102212  0  0.956569  0  0  0.107811  0  1.022475  0  0  0.110463  0  1.020202  0  0.174079  0  0.131778  0.105654  0  1.024574  0
H  H24  1  0.04819745  0.98842988  0.18652550  1  0  0.102175  0  0.956667  0  0  0.107826  0  1.022486  0  0  0.110486  0  1.020217  0  0.174091  0  0.131774  0.105669  0  1.024586  0
H  H25  1  0.74768924  0.27558082  0.93319308  1  0  0.108765  0  0.982588  0  0  0.112028  0  1.054907  0  0  0.115518  0  1.053219  0  0.124863  0  0.103383  0.10947  0  1.056371  0
H  H26  1  0.25231148  0.72442008  0.06680621  1  0  0.108777  0  0.982573  0  0  0.112043  0  1.054891  0  0  0.115532  0  1.053202  0  0.124838  0  0.103395  0.10948  0  1.05636  0
H  H27  1  0.67477763  0.05698808  0.98006136  1  0  0.088482  0  0.949057  0  0  0.102937  0  1.003382  0  0  0.105078  0  1.002666  0  0.094304  0  0.105106  0.101665  0  1.003338  0
H  H28  1  0.32522585  0.94301282  0.01993923  1  0  0.088522  0  0.949013  0  0  0.102968  0  1.003348  0  0  0.105108  0  1.002632  0  0.094263  0  0.105118  0.101695  0  1.003306  0
H  H29  1  0.60279444  0.24936990  0.21971564  1  0  0.085816  0  0.962486  0  0  0.09121  0  1.029958  0  0  0.094091  0  1.02769  0  0.109934  0  0.111758  0.089091  0  1.031645  0
H  H30  1  0.39720230  0.75063197  0.78028360  1  0  0.085841  0  0.962465  0  0  0.091233  0  1.029939  0  0  0.094116  0  1.02767  0  0.109924  0  0.111765  0.089113  0  1.031629  0
H  H31  1  0.60132608  0.04578755  0.12843478  1  0  0.113779  0  0.96329  0  0  0.123167  0  1.023141  0  0  0.126829  0  1.021077  0  0.154935  0  0.104931  0.120157  0  1.02545  0
H  H32  1  0.39867863  0.95421239  0.87156578  1  0  0.113789  0  0.963294  0  0  0.123183  0  1.023139  0  0  0.126847  0  1.021072  0  0.15493  0  0.10493  0.120174  0  1.025449  0
H  H33  1  0.93588640  0.88582169  0.68857535  1  0  0.336666  0  0.877673  0  0  0.316171  0  0.936455  0  0  0.325786  0  0.927872  0  0.558913  0  0.323365  0.30927  0  0.942731  0
H  H34  1  0.06411693  0.11417826  0.31142395  1  0  0.336628  0  0.877719  0  0  0.316121  0  0.936537  0  0  0.325736  0  0.927953  0  0.559  0  0.323337  0.309219  0  0.942813  0
H  H35  1  0.26169187  0.32489819  0.50960859  1  0  0.454345  0  0.83132  0  0  0.427223  0  0.887087  0  0  0.43778  0  0.871761  0  0.645917  0  0.301012  0.419664  0  0.898056  0
H  H36  1  0.73830717  0.67510079  0.49039174  1  0  0.454349  0  0.831319  0  0  0.427229  0  0.887076  0  0  0.437787  0  0.87175  0  0.645916  0  0.301014  0.419672  0  0.898043  0
H  H37  1  0.05304466  0.25718496  0.51673218  1  0  0.455762  0  0.821296  0  0  0.427338  0  0.883799  0  0  0.437567  0  0.868681  0  0.654434  0  0.302333  0.419787  0  0.894995  0
H  H38  1  0.94695315  0.74281498  0.48326635  1  0  0.455745  0  0.821289  0  0  0.42732  0  0.883814  0  0  0.437549  0  0.868697  0  0.654429  0  0.302349  0.41977  0  0.895009  0
C  C39  1  0.17269210  0.77322742  0.22767216  1  0  0.222776  0  3.66963  0  0  0.171397  0  3.958994  0  0  0.185402  0  3.964908  0  0.975896  0  0.156595  0.162661  0  3.952077  0
C  C40  1  0.82730970  0.22677156  0.77232885  1  0  0.222799  0  3.669644  0  0  0.171438  0  3.958991  0  0  0.185441  0  3.964902  0  0.975901  0  0.156611  0.162699  0  3.952072  0
C  C41  1  0.96631183  0.63749783  0.26778283  1  0  0.230501  0  3.545881  0  0  0.154515  0  3.813159  0  0  0.183365  0  3.823888  0  0.991401  0  0.190894  0.142712  0  3.808302  0
C  C42  1  0.03369150  0.36250211  0.73221769  1  0  0.23054  0  3.545816  0  0  0.154567  0  3.813116  0  0  0.183427  0  3.823846  0  0.991374  0  0.190887  0.142764  0  3.80826  0
C  C43  1  0.72052139  0.65388916  0.15418081  1  0  0.076064  0  3.572429  0  0  -0.020912  0  3.82494  0  0  -0.001044  0  3.832389  0  0.626941  0  0.071784  -0.027346  0  3.822382  0
C  C44  1  0.27947917  0.34611078  0.84582024  1  0  0.076039  0  3.57242  0  0  -0.02095  0  3.82492  0  0  -0.001072  0  3.832367  0  0.62695  0  0.071784  -0.027384  0  3.822359  0
C  C45  1  0.79249162  0.64955099  0.94625919  1  0  0.279673  0  3.812319  0  0  0.260821  0  4.091069  0  0  0.268893  0  4.107232  0  1.002408  0  0.214246  0.255443  0  4.08007  0
C  C46  1  0.20750619  0.35044895  0.05373995  1  0  0.279642  0  3.812438  0  0  0.260819  0  4.091121  0  0  0.268876  0  4.107307  0  1.002387  0  0.214315  0.255441  0  4.080121  0
C  C47  1  0.83750029  0.71486128  0.87485884  1  0  0.083411  0  3.740858  0  0  0.094573  0  3.972181  0  0  0.100782  0  3.992242  0  0.014721  0  0.030378  0.090636  0  3.958653  0
C  C48  1  0.16249215  0.28513962  0.12513961  1  0  0.08337  0  3.740966  0  0  0.094547  0  3.97227  0  0  0.100762  0  3.992331  0  0.014771  0  0.030345  0.09061  0  3.95874  0
C  C49  1  0.84204454  0.64398873  0.79788737  1  0  -0.121773  0  3.629097  0  0  -0.146813  0  3.884844  0  0  -0.155325  0  3.903365  0  0.106438  0  -0.064138  -0.141682  0  3.872985  0
C  C50  1  0.15795021  0.35600928  0.20211156  1  0  -0.121676  0  3.629113  0  0  -0.146749  0  3.884906  0  0  -0.155264  0  3.903424  0  0.106439  0  -0.064091  -0.141615  0  3.873038  0
C  C51  1  0.88285429  0.70763613  0.73045426  1  0  0.19362  0  3.556023  0  0  0.15547  0  3.805678  0  0  0.166706  0  3.816841  0  0.411678  0  0.086183  0.148098  0  3.798447  0
C  C52  1  0.11714796  0.29236574  0.26954514  1  0  0.1937  0  3.555928  0  0  0.155478  0  3.805603  0  0  0.166714  0  3.816769  0  0.411682  0  0.086196  0.148121  0  3.798379  0
C  C53  1  0.87870009  0.84929942  0.88207662  1  0  -0.145503  0  3.694072  0  0  -0.167488  0  3.946118  0  0  -0.176398  0  3.967218  0  0.038395  0  -0.069133  -0.161904  0  3.932127  0
C  C54  1  0.12129343  0.15069956  0.11792234  1  0  -0.145422  0  3.693944  0  0  -0.167443  0  3.945992  0  0  -0.176352  0  3.967092  0  0.038581  0  -0.06912  -0.161849  0  3.932008  0
C  C55  1  0.91815239  0.90821313  0.81303676  1  0  0.16258  0  3.60386  0  0  0.122064  0  3.857745  0  0  0.1313  0  3.872745  0  0.446605  0  0.073844  0.115988  0  3.848114  0
C  C56  1  0.08184572  0.09178874  0.18696252  1  0  0.162455  0  3.604009  0  0  0.121939  0  3.857853  0  0  0.131162  0  3.872865  0  0.446425  0  0.073797  0.115864  0  3.848219  0
C  C57  1  0.74113673  0.50069237  0.02277207  1  0  0.259526  0  3.709665  0  0  0.219088  0  3.989766  0  0  0.233514  0  4.002154  0  0.961162  0  0.233992  0.209693  0  3.981074  0
C  C58  1  0.25886246  0.49930758  0.97722711  1  0  0.259664  0  3.709404  0  0  0.219114  0  3.989647  0  0  0.233546  0  4.002029  0  0.961219  0  0.234021  0.209717  0  3.980955  0
C  C59  1  0.70870890  0.37390377  0.05197845  1  0  0.144567  0  3.818597  0  0  0.147958  0  4.071702  0  0  0.151304  0  4.09111  0  0.526141  0  0.113251  0.145503  0  4.058622  0
C  C60  1  0.29129305  0.62609618  0.94802020  1  0  0.144425  0  3.818607  0  0  0.147882  0  4.071694  0  0  0.151215  0  4.091117  0  0.52616  0  0.113274  0.14543  0  4.058611  0
C  C61  1  0.71301624  0.26437644  0.99567971  1  0  -0.121762  0  3.694671  0  0  -0.145955  0  3.943783  0  0  -0.150235  0  3.963777  0  -0.047225  0  -0.083942  -0.143135  0  3.930546  0
C  C62  1  0.28698433  0.73562350  0.00432012  1  0  -0.121743  0  3.694611  0  0  -0.145959  0  3.943725  0  0  -0.150232  0  3.963718  0  -0.047153  0  -0.083972  -0.143136  0  3.930492  0
C  C63  1  0.67458330  0.14408740  0.02253139  1  0  -0.024044  0  3.753316  0  0  -0.037415  0  3.999733  0  0  -0.036597  0  4.019993  0  -0.075423  0  -0.073064  -0.037575  0  3.985026  0
C  C64  1  0.32541880  0.85591350  0.97746794  1  0  -0.024074  0  3.75328  0  0  -0.037435  0  3.999708  0  0  -0.036618  0  4.019967  0  -0.075428  0  -0.073065  -0.037595  0  3.985001  0
C  C65  1  0.63530532  0.25157652  0.15585816  1  0  0.131047  0  3.70471  0  0  0.108237  0  3.964128  0  0  0.112738  0  3.982009  0  0.500344  0  0.044122  0.105253  0  3.95184  0
C  C66  1  0.36469279  0.74842535  0.84414051  1  0  0.131029  0  3.704741  0  0  0.108225  0  3.964148  0  0  0.112719  0  3.982034  0  0.500208  0  0.04411  0.105238  0  3.951861  0
C  C67  1  0.63410250  0.13704124  0.10395538  1  0  -0.120268  0  3.727849  0  0  -0.135869  0  3.97836  0  0  -0.141314  0  4.000101  0  -0.043351  0  -0.085302  -0.13202  0  3.963484  0
C  C68  1  0.36589960  0.86295967  0.89604578  1  0  -0.120291  0  3.727874  0  0  -0.135895  0  3.97837  0  0  -0.141336  0  4.000111  0  -0.043358  0  -0.085298  -0.132044  0  3.963491  0
N  N69  1  0.13767799  0.69671082  0.28848845  1  0  -0.435777  0  3.257742  0  0  -0.391032  0  3.553304  0  0  -0.415508  0  3.568784  0  -1.235066  0  -0.366278  -0.373152  0  3.539321  0
N  N70  1  0.86232396  0.30328912  0.71151264  1  0  -0.435759  0  3.257635  0  0  -0.391059  0  3.553242  0  0  -0.415535  0  3.568718  0  -1.234952  0  -0.366294  -0.373179  0  3.539261  0
N  N71  1  0.03368324  0.76435283  0.17093753  1  0  -0.251087  0  2.868428  0  0  -0.251195  0  3.139894  0  0  -0.247784  0  3.155301  0  -0.680183  0  -0.214264  -0.246257  0  3.133682  0
N  N72  1  0.96632008  0.23564711  0.82906359  1  0  -0.251075  0  2.868483  0  0  -0.251189  0  3.139925  0  0  -0.247765  0  3.155333  0  -0.680248  0  -0.214254  -0.246251  0  3.133714  0
N  N73  1  0.90505361  0.67705239  0.19680545  1  0  0.036784  0  3.525325  0  0  0.153895  0  3.715402  0  0  0.110769  0  3.778103  0  -0.808905  0  -0.125369  0.160104  0  3.702703  0
N  N74  1  0.09494818  0.32294659  0.80319557  1  0  0.036748  0  3.525353  0  0  0.153904  0  3.715373  0  0  0.110748  0  3.778106  0  -0.808943  0  -0.125335  0.160109  0  3.702682  0
N  N75  1  0.73495398  0.61861985  0.06720225  1  0  0.000811  0  3.497565  0  0  0.083966  0  3.732649  0  0  0.070619  0  3.755417  0  -0.766535  0  -0.118333  0.092952  0  3.715328  0
N  N76  1  0.26504659  0.38138009  0.93279819  1  0  0.000931  0  3.497355  0  0  0.084113  0  3.732461  0  0  0.070766  0  3.755223  0  -0.766502  0  -0.118305  0.0931  0  3.715139  0
N  N77  1  0.76799922  0.71388356  0.01887906  1  0  -0.283715  0  2.828044  0  0  -0.285869  0  3.102675  0  0  -0.292056  0  3.117339  0  -0.626826  0  -0.207111  -0.28167  0  3.09241  0
N  N78  1  0.23199874  0.28611735  0.98112076  1  0  -0.28379  0  2.82807  0  0  -0.285955  0  3.102702  0  0  -0.292138  0  3.117372  0  -0.626922  0  -0.207195  -0.281755  0  3.092435  0
N  N79  1  0.77570462  0.51893040  0.94577206  1  0  -0.429559  0  2.916283  0  0  -0.408076  0  3.192969  0  0  -0.421602  0  3.204453  0  -1.189615  0  -0.326279  -0.398909  0  3.184946  0
N  N80  1  0.22428782  0.48107050  0.05422699  1  0  -0.429642  0  2.916233  0  0  -0.408148  0  3.192964  0  0  -0.421668  0  3.20445  0  -1.189619  0  -0.326349  -0.398988  0  3.184957  0
N  N81  1  0.91840235  0.83654570  0.74000063  1  0  -0.199001  0  3.43537  0  0  -0.126982  0  3.65499  0  0  -0.142067  0  3.668083  0  -1.261876  0  -0.334182  -0.117184  0  3.646417  0
N  N82  1  0.08159669  0.16345328  0.25999970  1  0  -0.198925  0  3.435276  0  0  -0.126931  0  3.654935  0  0  -0.142015  0  3.66803  0  -1.261937  0  -0.334147  -0.117129  0  3.646353  0
N  N83  1  0.67214453  0.36836172  0.13111389  1  0  -0.339758  0  3.063674  0  0  -0.309258  0  3.329129  0  0  -0.319808  0  3.344982  0  -1.200868  0  -0.314801  -0.301539  0  3.31808  0
N  N84  1  0.32785757  0.63163918  0.86888604  1  0  -0.339683  0  3.063717  0  0  -0.309187  0  3.329132  0  0  -0.319733  0  3.344992  0  -1.200763  0  -0.314779  -0.301468  0  3.318082  0
O  O85  1  0.17327543  0.54254977  0.40544688  1  0  -0.797157  0  1.641793  0  0  -0.781402  0  1.940119  0  0  -0.814422  0  1.927935  0  -0.916974  0  -0.526112  -0.757031  0  1.949492  0
O  O86  1  0.82672361  0.45744921  0.59455284  1  0  -0.797175  0  1.641859  0  0  -0.781385  0  1.940151  0  0  -0.814405  0  1.927964  0  -0.916945  0  -0.526097  -0.757006  0  1.949511  0
O  O87  1  0.48096960  0.59119159  0.31697940  1  0  -0.640442  0  1.396804  0  0  -0.635612  0  1.630087  0  0  -0.659545  0  1.621974  0  -0.79268  0  -0.501612  -0.617614  0  1.636948  0
O  O88  1  0.51902974  0.40880932  0.68302106  1  0  -0.640408  0  1.396761  0  0  -0.635566  0  1.63003  0  0  -0.659505  0  1.62192  0  -0.792694  0  -0.501616  -0.617568  0  1.636898  0
O  O89  1  0.49462310  0.67353219  0.48809992  1  0  -0.869046  0  1.743503  0  0  -0.859843  0  2.020654  0  0  -0.900036  0  2.014266  0  -1.010319  0  -0.569759  -0.829796  0  2.025743  0
O  O90  1  0.50537579  0.32646582  0.51190096  1  0  -0.868983  0  1.743542  0  0  -0.859794  0  2.020719  0  0  -0.899988  0  2.014329  0  -1.010285  0  -0.569724  -0.829744  0  2.02581  0
O  O91  1  0.20301690  0.60074365  0.58465407  1  0  -0.781811  0  1.587254  0  0  -0.766312  0  1.87524  0  0  -0.798728  0  1.860041  0  -0.904401  0  -0.526101  -0.742871  0  1.886413  0
O  O92  1  0.79698214  0.39925533  0.41534687  1  0  -0.781785  0  1.587246  0  0  -0.76629  0  1.875247  0  0  -0.798702  0  1.860043  0  -0.904367  0  -0.526101  -0.742844  0  1.886421  0
O  O93  1  0.53846485  0.71157493  0.65825245  1  0  -0.644912  0  1.467198  0  0  -0.642941  0  1.715215  0  0  -0.668027  0  1.707858  0  -0.78518  0  -0.491498  -0.624746  0  1.72179  0
O  O94  1  0.46153434  0.28842501  0.34174795  1  0  -0.644882  0  1.467171  0  0  -0.642902  0  1.715185  0  0  -0.667989  0  1.707828  0  -0.785168  0  -0.491454  -0.624701  0  1.72176  0
O  O95  1  0.19913282  0.79973859  0.47310320  1  0  -0.998629  0  1.756717  0  0  -0.982339  0  2.036211  0  0  -1.022076  0  2.028443  0  -1.095457  0  -0.58983  -0.951456  0  2.041506  0
O  O96  1  0.80086760  0.20026039  0.52689717  1  0  -0.998675  0  1.756852  0  0  -0.982373  0  2.036329  0  0  -1.022114  0  2.028573  0  -1.095451  0  -0.589812  -0.951485  0  2.04162  0
O  O97  1  0.21149857  0.06114823  0.54332008  1  0  -0.77165  0  1.57949  0  0  -0.773945  0  1.861477  0  0  -0.80541  0  1.852379  0  -0.909976  0  -0.537624  -0.750244  0  1.868799  0
O  O98  1  0.78850323  0.93885075  0.45668093  1  0  -0.771642  0  1.579495  0  0  -0.773934  0  1.861472  0  0  -0.805411  0  1.8524  0  -0.909991  0  -0.537616  -0.750233  0  1.868795  0
O  O99  1  0.49947872  0.07628564  0.43816927  1  0  -1.113313  0  1.974016  0  0  -1.098623  0  2.27348  0  0  -1.141894  0  2.268386  0  -1.165103  0  -0.627469  -1.063918  0  2.27581  0
O  O100  1  0.50052170  0.92371334  0.56183110  1  0  -1.113315  0  1.973949  0  0  -1.098621  0  2.273391  0  0  -1.141893  0  2.268297  0  -1.165082  0  -0.627491  -1.063919  0  2.275722  0
O  O101  1  0.12554264  0.00486553  0.37621885  1  0  -0.686646  0  1.514307  0  0  -0.6745  0  1.770783  0  0  -0.699173  0  1.759229  0  -0.84426  0  -0.508005  -0.656265  0  1.780319  0
O  O102  1  0.87445793  0.99513441  0.62378220  1  0  -0.686667  0  1.5143  0  0  -0.674558  0  1.7708  0  0  -0.699223  0  1.759244  0  -0.844226  0  -0.508017  -0.656323  0  1.780337  0
O  O103  1  0.75757729  0.13956639  0.35230107  1  0  -0.878207  0  1.71913  0  0  -0.882869  0  2.01394  0  0  -0.924681  0  2.011327  0  -1.000828  0  -0.584687  -0.851073  0  2.016119  0
O  O104  1  0.24242190  0.86043356  0.64769933  1  0  -0.878214  0  1.71913  0  0  -0.882874  0  2.013937  0  0  -0.924689  0  2.011333  0  -1.000784  0  -0.584689  -0.85108  0  2.016116  0
O  O105  1  0.47793322  0.00051966  0.24827240  1  0  -0.717773  0  1.467571  0  0  -0.715738  0  1.719398  0  0  -0.742145  0  1.710987  0  -0.859473  0  -0.525354  -0.696511  0  1.726885  0
O  O106  1  0.52206582  0.99947932  0.75172793  1  0  -0.717733  0  1.46759  0  0  -0.715716  0  1.71943  0  0  -0.742127  0  1.71102  0  -0.859498  0  -0.525359  -0.696491  0  1.72692  0
O  O107  1  0.77573129  0.87742538  0.28705357  1  0  -0.67873  0  1.470349  0  0  -0.68093  0  1.72298  0  0  -0.7061  0  1.713496  0  -0.825167  0  -0.520373  -0.661879  0  1.730115  0
O  O108  1  0.22426913  0.12257360  0.71294741  1  0  -0.678756  0  1.470379  0  0  -0.680939  0  1.722986  0  0  -0.706111  0  1.713502  0  -0.825152  0  -0.520377  -0.661888  0  1.730121  0
O  O109  1  0.43851810  0.84796756  0.37258601  1  0  -1.028172  0  1.929706  0  0  -1.02324  0  2.243012  0  0  -1.068205  0  2.238512  0  -1.117146  0  -0.618616  -0.987407  0  2.245148  0
O  O110  1  0.56148385  0.15203238  0.62741508  1  0  -1.028219  0  1.929826  0  0  -1.023275  0  2.243121  0  0  -1.068245  0  2.238628  0  -1.11716  0  -0.618601  -0.987439  0  2.245255  0
O  O111  1  0.12772066  0.33026124  0.49778231  1  0  -0.838382  0  1.860155  0  0  -0.77543  0  2.056798  0  0  -0.795583  0  2.020186  0  -1.260703  0  -0.569647  -0.761099  0  2.083024  0
O  O112  1  0.87227990  0.66973870  0.50221630  1  0  -0.838371  0  1.86012  0  0  -0.775418  0  2.056776  0  0  -0.795572  0  2.020167  0  -1.260693  0  -0.569676  -0.761089  0  2.083004  0
