# generated using pymatgen
data_CdH10C14(SN2)2
_symmetry_space_group_name_H-M   'P 1'
_cell_length_a   8.61976643
_cell_length_b   9.03633207
_cell_length_c   10.47020926
_cell_angle_alpha   85.42863876
_cell_angle_beta   73.27782888
_cell_angle_gamma   74.98457601
_symmetry_Int_Tables_number   1
_chemical_formula_structural   CdH10C14(SN2)2
_chemical_formula_sum   'Cd2 H20 C28 S4 N8'
_cell_volume   754.36808939
_cell_formula_units_Z   2
loop_
 _symmetry_equiv_pos_site_id
 _symmetry_equiv_pos_as_xyz
  1  'x, y, z'
loop_
 _atom_site_type_symbol
 _atom_site_label
 _atom_site_symmetry_multiplicity
 _atom_site_fract_x
 _atom_site_fract_y
 _atom_site_fract_z
 _atom_site_occupancy
 _atom_site_pbe_bader_spin_density
 _atom_site_pbe_cm5_charge
 _atom_site_pbe_ddec_charge
 _atom_site_pbe_ddec_spin_density
 _atom_site_pbe_ddec_sum_bond_order
 _atom_site_pbe_magmom
Cd  Cd0  1  0.07867837  0.36099414  0.24063329  1  0  0.720605  0.759581  0  2.520828  0
Cd  Cd1  1  0.91618894  0.64128561  0.76673772  1  0  0.72034  0.758949  0  2.523007  0
H  H2  1  0.76123821  0.92181947  0.62611419  1  0  0.285942  0.268522  0  0.992196  0
H  H3  1  0.23426344  0.07995940  0.38100257  1  0  0.286392  0.269665  0  0.990613  0
H  H4  1  0.27168317  0.85433090  0.78324831  1  0  0.087619  0.089441  0  1.064343  0
H  H5  1  0.06373802  0.02542057  0.68299298  1  0  0.093186  0.095922  0  1.009982  0
H  H6  1  0.12163447  0.26542368  0.56578336  1  0  0.096888  0.094122  0  1.04298  0
H  H7  1  0.39589100  0.32370385  0.53902519  1  0  0.095175  0.094626  0  1.027992  0
H  H8  1  0.60434837  0.15303267  0.63794340  1  0  0.091748  0.083763  0  1.061689  0
H  H9  1  0.71106870  0.51131342  0.05968734  1  0  0.114573  0.08639  0  1.011774  0
H  H10  1  0.43158382  0.57846950  0.23061863  1  0  0.110127  0.12111  0  1.002448  0
H  H11  1  0.21333004  0.80647267  0.18767626  1  0  0.110543  0.113935  0  0.977754  0
H  H12  1  0.28203037  0.95783309  0.97892354  1  0  0.094509  0.102377  0  1.077472  0
H  H13  1  0.71260197  0.04463233  0.02744021  1  0  0.094831  0.102784  0  1.077711  0
H  H14  1  0.77993265  0.19549868  0.81819179  1  0  0.110441  0.113191  0  0.978529  0
H  H15  1  0.56104643  0.42330956  0.77581210  1  0  0.110016  0.120968  0  1.002915  0
H  H16  1  0.28253619  0.49082732  0.94783653  1  0  0.113822  0.084946  0  1.012313  0
H  H17  1  0.72303766  0.14887377  0.22351706  1  0  0.087122  0.088045  0  1.065799  0
H  H18  1  0.93178316  0.97843263  0.32339035  1  0  0.093532  0.096578  0  1.00934  0
H  H19  1  0.87523413  0.73786982  0.44029698  1  0  0.096525  0.093353  0  1.041967  0
H  H20  1  0.60160491  0.67836077  0.46714064  1  0  0.09529  0.094316  0  1.028462  0
H  H21  1  0.39227193  0.84847264  0.36870294  1  0  0.091589  0.083781  0  1.061956  0
C  C22  1  0.17581311  0.57165621  0.45998761  1  0  0.148557  0.264695  0  4.288411  0
C  C23  1  0.01568306  0.32454918  0.94208195  1  0  0.150166  0.27126  0  4.303815  0
C  C24  1  0.97955144  0.67780663  0.06459629  1  0  0.14932  0.269508  0  4.30899  0
C  C25  1  0.57969581  0.89014714  0.77616305  1  0  0.161891  0.259825  0  3.93554  0
C  C26  1  0.45132475  0.99315979  0.72061217  1  0  -0.016044  0.010856  0  3.983818  0
C  C27  1  0.29870337  0.95798281  0.73130251  1  0  -0.088492  -0.102405  0  3.960473  0
C  C28  1  0.18170268  0.05434501  0.67419253  1  0  -0.096449  -0.087279  0  3.999871  0
C  C29  1  0.21503107  0.18705264  0.60658008  1  0  -0.083219  -0.055989  0  3.965475  0
C  C30  1  0.36851287  0.22089575  0.59250343  1  0  -0.087462  -0.064859  0  3.973897  0
C  C31  1  0.48580538  0.12454073  0.64859553  1  0  -0.086161  -0.108919  0  3.971563  0
C  C32  1  0.52984500  0.80765750  0.90504058  1  0  0.116619  0.155769  0  3.933982  0
C  C33  1  0.61186580  0.60824478  0.04462064  1  0  0.053826  0.105935  0  3.932376  0
C  C34  1  0.45693596  0.64716432  0.14030222  1  0  -0.072964  -0.105122  0  3.930698  0
C  C35  1  0.33625524  0.77312076  0.11600417  1  0  -0.06387  -0.019745  0  3.93766  0
C  C36  1  0.37351735  0.85630514  0.99771523  1  0  -0.076438  -0.145999  0  3.937109  0
C  C37  1  0.46486110  0.19459630  0.10196889  1  0  0.11664  0.154526  0  3.932618  0
C  C38  1  0.62082268  0.14597513  0.00885551  1  0  -0.076804  -0.146452  0  3.935937  0
C  C39  1  0.65740936  0.22897387  0.89038004  1  0  -0.063468  -0.018392  0  3.93813  0
C  C40  1  0.53642159  0.35482056  0.86634958  1  0  -0.072438  -0.105191  0  3.931265  0
C  C41  1  0.38193584  0.39386972  0.96256132  1  0  0.054869  0.108254  0  3.928251  0
C  C42  1  0.41547570  0.11203677  0.23085287  1  0  0.162109  0.261103  0  3.935548  0
C  C43  1  0.54422488  0.00925110  0.28615744  1  0  -0.015682  0.010802  0  3.98655  0
C  C44  1  0.69656610  0.04501100  0.27539055  1  0  -0.08827  -0.101543  0  3.963465  0
C  C45  1  0.81402170  0.94900442  0.33230675  1  0  -0.096042  -0.086946  0  3.999438  0
C  C46  1  0.78144797  0.81596887  0.39974003  1  0  -0.08303  -0.054825  0  3.963721  0
C  C47  1  0.62825600  0.78149941  0.41386516  1  0  -0.088123  -0.065885  0  3.972832  0
C  C48  1  0.51052162  0.87752193  0.35798400  1  0  -0.085839  -0.10788  0  3.971662  0
C  C49  1  0.81902678  0.43069962  0.54749961  1  0  0.148561  0.263738  0  4.290425  0
S  S50  1  0.00716418  0.19396683  0.05831130  1  0  -0.131862  -0.291356  0  2.523907  0
S  S51  1  0.18534499  0.68423058  0.57098500  1  0  -0.147453  -0.306043  0  2.458729  0
S  S52  1  0.98770973  0.80857945  0.94849932  1  0  -0.131585  -0.290383  0  2.525692  0
S  S53  1  0.81005302  0.31775531  0.43651003  1  0  -0.147661  -0.305957  0  2.460731  0
N  N54  1  0.73784457  0.86716357  0.71664241  1  0  -0.486642  -0.523967  0  3.232432  0
N  N55  1  0.64647836  0.68519824  0.92981468  1  0  -0.317251  -0.255837  0  3.476752  0
N  N56  1  0.34800118  0.31703197  0.07751020  1  0  -0.318041  -0.255572  0  3.473206  0
N  N57  1  0.25739321  0.13473983  0.29052047  1  0  -0.487506  -0.526515  0  3.229199  0
N  N58  1  0.17302101  0.49086081  0.37768133  1  0  -0.380987  -0.448983  0  3.107188  0
N  N59  1  0.02337874  0.41796584  0.85615919  1  0  -0.396987  -0.461929  0  3.191041  0
N  N60  1  0.97231916  0.58413259  0.15028372  1  0  -0.396275  -0.461129  0  3.194193  0
N  N61  1  0.82120102  0.51172561  0.62985956  1  0  -0.380329  -0.447535  0  3.109093  0
