# generated using pymatgen
data_ZnH13C19N5O4
_symmetry_space_group_name_H-M   'P 1'
_cell_length_a   15.90933512
_cell_length_b   24.47082943
_cell_length_c   24.34415286
_cell_angle_alpha   89.98002299
_cell_angle_beta   86.90716232
_cell_angle_gamma   90.18492547
_symmetry_Int_Tables_number   1
_chemical_formula_structural   ZnH13C19N5O4
_chemical_formula_sum   'Zn4 H52 C76 N20 O16'
_cell_volume   9463.67941377
_cell_formula_units_Z   4
loop_
 _symmetry_equiv_pos_site_id
 _symmetry_equiv_pos_as_xyz
  1  'x, y, z'
loop_
 _atom_site_type_symbol
 _atom_site_label
 _atom_site_symmetry_multiplicity
 _atom_site_fract_x
 _atom_site_fract_y
 _atom_site_fract_z
 _atom_site_occupancy
 _atom_site_pbe_bader_charge
 _atom_site_pbe_bader_spin_density
 _atom_site_pbe_cm5_charge
 _atom_site_pbe_ddec_charge
 _atom_site_pbe_ddec_spin_density
 _atom_site_pbe_ddec_sum_bond_order
 _atom_site_pbe_magmom
Zn  Zn0  1  0.58778746  0.99992758  0.50145296  1  1.287233  0  0.663949  0.81666  0  2.428984  0
Zn  Zn1  1  0.41222806  0.99964138  0.49858946  1  1.285828  0  0.664291  0.816954  0  2.426321  0
Zn  Zn2  1  0.58779278  0.49992428  0.00157134  1  1.285364  0  0.664371  0.817674  0  2.424702  0
Zn  Zn3  1  0.41211245  0.49945034  0.99848994  1  1.286048  0  0.664303  0.817153  0  2.426431  0
H  H4  1  0.62056520  0.13699872  0.60904235  1  0.11503  0  0.102189  0.106402  0  1.00311  0
H  H5  1  0.38458679  0.78472125  0.32308429  1  0.120745  0  0.102889  0.102684  0  1.020656  0
H  H6  1  0.39314602  0.17080488  0.27868456  1  0.115935  0  0.103058  0.103053  0  1.019822  0
H  H7  1  0.60684404  0.82895066  0.72157584  1  0.111007  0  0.102721  0.102875  0  1.020183  0
H  H8  1  0.60681838  0.67127335  0.22152817  1  0.113191  0  0.102643  0.102431  0  1.021158  0
H  H9  1  0.39369341  0.32889641  0.77809686  1  0.112477  0  0.102779  0.102623  0  1.020236  0
H  H10  1  0.38447505  0.71481565  0.82359728  1  0.072858  0  0.103049  0.103129  0  1.01997  0
H  H11  1  0.61505117  0.28523485  0.17668679  1  0.078141  0  0.103287  0.103377  0  1.020028  0
H  H12  1  0.65475369  0.79113742  0.31630097  1  0.094249  0  0.104811  0.106233  0  0.998628  0
H  H13  1  0.34551725  0.20877460  0.68350530  1  0.099067  0  0.10478  0.105995  0  0.998503  0
H  H14  1  0.34192648  0.80843468  0.70192233  1  0.059515  0  0.104841  0.106276  0  0.998104  0
H  H15  1  0.37952086  0.86269734  0.39072759  1  0.069514  0  0.101976  0.106137  0  1.003143  0
H  H16  1  0.65807271  0.19136789  0.29825025  1  0.061438  0  0.105021  0.106275  0  0.998175  0
H  H17  1  0.65836833  0.30880324  0.79822448  1  0.059894  0  0.104841  0.106188  0  0.998635  0
H  H18  1  0.34213237  0.69112623  0.20131430  1  0.065078  0  0.104965  0.106142  0  0.998657  0
H  H19  1  0.34486032  0.29043242  0.18396258  1  0.088494  0  0.104781  0.106244  0  0.998856  0
H  H20  1  0.65464026  0.70885184  0.81624445  1  0.096245  0  0.104828  0.106179  0  0.997938  0
H  H21  1  0.64927561  0.86949719  0.38403146  1  0.107769  0  0.104415  0.109601  0  0.999553  0
H  H22  1  0.35080817  0.13025114  0.61597146  1  0.080841  0  0.104401  0.110014  0  0.998945  0
H  H23  1  0.34923455  0.87741084  0.62450666  1  0.088626  0  0.104717  0.110231  0  0.997859  0
H  H24  1  0.65089176  0.12230891  0.37558476  1  0.088308  0  0.104709  0.109728  0  0.998424  0
H  H25  1  0.65114236  0.37766819  0.87564894  1  0.10236  0  0.104364  0.109064  0  0.998738  0
H  H26  1  0.38615090  0.10250126  0.35622698  1  0.091814  0  0.101094  0.10374  0  1.004939  0
H  H27  1  0.34945923  0.62200636  0.12408688  1  0.092867  0  0.104749  0.10993  0  0.998134  0
H  H28  1  0.34996826  0.36875536  0.11613756  1  0.101776  0  0.104362  0.109349  0  0.999622  0
H  H29  1  0.64904200  0.63031102  0.88382754  1  0.083478  0  0.104484  0.110148  0  0.99875  0
H  H30  1  0.73530451  0.99785207  0.42152107  1  0.093119  0  0.12641  0.10806  0  0.975898  0
H  H31  1  0.26466153  0.00184465  0.57844071  1  0.092644  0  0.126513  0.108371  0  0.976262  0
H  H32  1  0.73534561  0.49642002  0.92202148  1  0.100194  0  0.12608  0.107567  0  0.978169  0
H  H33  1  0.26460847  0.49770346  0.07824241  1  0.098592  0  0.126352  0.108257  0  0.976618  0
H  H34  1  0.89415127  0.99798926  0.42506225  1  0.129262  0  0.111403  0.116675  0  1.010897  0
H  H35  1  0.10583173  0.00191509  0.57486276  1  0.130901  0  0.111482  0.116763  0  1.010988  0
H  H36  1  0.89417027  0.49823185  0.92547849  1  0.111959  0  0.111412  0.116802  0  1.011006  0
H  H37  1  0.61395555  0.89713142  0.64392306  1  0.052887  0  0.101311  0.103931  0  1.005075  0
H  H38  1  0.10580642  0.49968598  0.07478599  1  0.133128  0  0.111188  0.116189  0  1.012039  0
H  H39  1  0.29641388  0.99710443  0.40871962  1  0.108516  0  0.128615  0.112785  0  0.975473  0
H  H40  1  0.70363636  0.00254171  0.59125119  1  0.110262  0  0.128766  0.112748  0  0.975762  0
H  H41  1  0.29632389  0.50391361  0.90857400  1  0.105624  0  0.128746  0.113174  0  0.97585  0
H  H42  1  0.70365102  0.50633200  0.09150551  1  0.108811  0  0.128259  0.112408  0  0.978251  0
H  H43  1  0.17042922  0.99146684  0.35277981  1  0.464079  0  0.329195  0.325948  0  0.913652  0
H  H44  1  0.06921244  0.99405534  0.38421427  1  0.456133  0  0.316633  0.308969  0  0.957572  0
H  H45  1  0.82968570  0.00857903  0.64714229  1  0.465478  0  0.329522  0.326462  0  0.913764  0
H  H46  1  0.93087644  0.00610616  0.61565571  1  0.454436  0  0.316633  0.308857  0  0.957441  0
H  H47  1  0.17054491  0.50816316  0.85239408  1  0.463442  0  0.330359  0.327521  0  0.913465  0
H  H48  1  0.61394837  0.60299022  0.14404199  1  0.053067  0  0.100356  0.102012  0  1.008063  0
H  H49  1  0.06908232  0.50850175  0.88401648  1  0.455746  0  0.31765  0.310223  0  0.95676  0
H  H50  1  0.82959349  0.50885886  0.14766956  1  0.469824  0  0.329647  0.326378  0  0.914233  0
H  H51  1  0.93094420  0.50935666  0.11605454  1  0.45294  0  0.317054  0.309599  0  0.9572  0
H  H52  1  0.38666067  0.39697528  0.85577856  1  0.063791  0  0.100803  0.10359  0  1.006212  0
H  H53  1  0.37930030  0.63667290  0.89110168  1  0.108049  0  0.102223  0.106767  0  1.002457  0
H  H54  1  0.61976138  0.36322389  0.10902048  1  0.118344  0  0.102594  0.107115  0  1.001274  0
H  H55  1  0.61570582  0.21510624  0.67650930  1  0.122584  0  0.103085  0.103344  0  1.020201  0
C  C56  1  0.51261533  0.06873889  0.41713895  1  1.565156  0  0.213284  0.588557  0  4.175098  0
C  C57  1  0.89007528  0.00050052  0.51369632  1  0.452766  0  0.091885  0.084683  0  4.03314  0
C  C58  1  0.10988243  0.50347263  0.98620376  1  0.450033  0  0.09152  0.084438  0  4.034696  0
C  C59  1  0.89012147  0.50382009  0.01396566  1  0.449912  0  0.091602  0.085717  0  4.033633  0
C  C60  1  0.16378025  0.99798951  0.43747925  1  0.453667  0  0.124093  0.222016  0  4.07642  0
C  C61  1  0.83626312  0.00190222  0.56245766  1  0.449917  0  0.123737  0.222133  0  4.076221  0
C  C62  1  0.16371413  0.50486000  0.93742400  1  0.445735  0  0.125055  0.224078  0  4.078113  0
C  C63  1  0.83629745  0.50623932  0.06268368  1  0.436618  0  0.124459  0.222714  0  4.078427  0
C  C64  1  0.25149278  0.99809158  0.44425382  1  0.567608  0  0.054518  -0.009998  0  3.868901  0
C  C65  1  0.74855387  0.00162443  0.55571135  1  0.567314  0  0.054536  -0.009314  0  3.868788  0
C  C66  1  0.25142737  0.50315054  0.94412493  1  0.57618  0  0.053742  -0.011832  0  3.869975  0
C  C67  1  0.48749187  0.93085948  0.58292111  1  1.568065  0  0.213904  0.58897  0  4.176103  0
C  C68  1  0.74857161  0.50465300  0.05599733  1  0.57033  0  0.053671  -0.011132  0  3.869676  0
C  C69  1  0.51403473  0.87096317  0.39050911  1  -0.052269  0  -0.011541  -0.020578  0  3.939249  0
C  C70  1  0.48604805  0.12876802  0.60935911  1  -0.096977  0  -0.011472  -0.019307  0  3.940542  0
C  C71  1  0.48211201  0.89094192  0.62976438  1  -0.017783  0  -0.011835  -0.018756  0  3.939456  0
C  C72  1  0.51802228  0.10868999  0.37031980  1  -0.040173  0  -0.012375  -0.020101  0  3.940318  0
C  C73  1  0.51838473  0.39098398  0.87018384  1  -0.012134  0  -0.011623  -0.018795  0  3.938992  0
C  C74  1  0.48220161  0.60875183  0.12968230  1  -0.016092  0  -0.012226  -0.020055  0  3.940161  0
C  C75  1  0.48522293  0.37084838  0.10940699  1  -0.021737  0  -0.011797  -0.020764  0  3.942323  0
C  C76  1  0.51378761  0.62864300  0.89062211  1  -0.101551  0  -0.011628  -0.020061  0  3.941387  0
C  C77  1  0.43927775  0.84676821  0.37370448  1  0.039374  0  -0.08399  -0.083346  0  3.981216  0
C  C78  1  0.49017766  0.08157958  0.56995286  1  1.568292  0  0.213089  0.588432  0  4.175898  0
C  C79  1  0.56083936  0.15299450  0.62605000  1  -0.0175  0  -0.084172  -0.083527  0  3.983016  0
C  C80  1  0.55477462  0.87747366  0.65727652  1  -0.012964  0  -0.084232  -0.082533  0  3.983239  0
C  C81  1  0.44532308  0.12217209  0.34285985  1  -0.000804  0  -0.084503  -0.083324  0  3.984387  0
C  C82  1  0.44577382  0.37742418  0.84253023  1  -0.01659  0  -0.084177  -0.083572  0  3.984947  0
C  C83  1  0.55479295  0.62249020  0.15727822  1  -0.013271  0  -0.084596  -0.08276  0  3.985846  0
C  C84  1  0.56006632  0.34699801  0.12611096  1  -0.031831  0  -0.083143  -0.081762  0  3.98158  0
C  C85  1  0.43909446  0.65274932  0.87400619  1  -0.01735  0  -0.084608  -0.084401  0  3.983181  0
C  C86  1  0.44187124  0.80380687  0.33657206  1  -0.03467  0  -0.086428  -0.142651  0  3.958031  0
C  C87  1  0.55836147  0.19603934  0.66308397  1  -0.031979  0  -0.087449  -0.144888  0  3.959207  0
C  C88  1  0.55112758  0.83985444  0.69992794  1  -0.030785  0  -0.086336  -0.14427  0  3.959409  0
C  C89  1  0.50977623  0.91805338  0.43002537  1  1.564839  0  0.213177  0.588768  0  4.175691  0
C  C90  1  0.44890088  0.15984353  0.30026913  1  -0.048049  0  -0.086519  -0.143883  0  3.958807  0
C  C91  1  0.44937635  0.33987825  0.79985698  1  -0.08308  0  -0.086523  -0.143295  0  3.956761  0
C  C92  1  0.55114319  0.66016401  0.19982573  1  -0.026019  0  -0.086678  -0.144144  0  3.959893  0
C  C93  1  0.55767658  0.30403265  0.16328029  1  0.021188  0  -0.086903  -0.144406  0  3.957879  0
C  C94  1  0.44173595  0.69580688  0.83694692  1  0.028979  0  -0.086728  -0.143447  0  3.958668  0
C  C95  1  0.52030196  0.78432665  0.31539933  1  0.339582  0  0.085442  0.170395  0  4.048367  0
C  C96  1  0.47998372  0.21558541  0.68428937  1  0.333266  0  0.085872  0.171306  0  4.047164  0
C  C97  1  0.47384476  0.81451771  0.71547420  1  0.353007  0  0.085415  0.172187  0  4.045357  0
C  C98  1  0.52615422  0.18521742  0.28471812  1  0.338741  0  0.085904  0.173154  0  4.043882  0
C  C99  1  0.52655883  0.31467052  0.78445228  1  0.395009  0  0.086035  0.172621  0  4.044911  0
C  C100  1  0.50938951  0.58149339  0.93011380  1  1.568451  0  0.212764  0.587619  0  4.177523  0
C  C101  1  0.47390340  0.68530957  0.21517530  1  0.34182  0  0.085746  0.172692  0  4.044232  0
C  C102  1  0.47934447  0.28420651  0.18463749  1  0.294182  0  0.085807  0.172672  0  4.046313  0
C  C103  1  0.52018592  0.71547417  0.81562637  1  0.332581  0  0.085804  0.170632  0  4.047672  0
C  C104  1  0.59506610  0.80756482  0.33300860  1  -0.084027  0  -0.083068  -0.143744  0  3.967746  0
C  C105  1  0.40517022  0.19231815  0.66677012  1  -0.076611  0  -0.08291  -0.142961  0  3.96636  0
C  C106  1  0.40086901  0.82855149  0.68872689  1  -0.029779  0  -0.082494  -0.143228  0  3.966276  0
C  C107  1  0.59916220  0.17119309  0.31141749  1  -0.02354  0  -0.082846  -0.143614  0  3.966526  0
C  C108  1  0.59949267  0.32880209  0.81131999  1  -0.024335  0  -0.083115  -0.144013  0  3.967653  0
C  C109  1  0.40100895  0.67108078  0.18831982  1  -0.020022  0  -0.082735  -0.143288  0  3.964707  0
C  C110  1  0.40447220  0.30711136  0.16713408  1  -0.042477  0  -0.082784  -0.144389  0  3.968067  0
C  C111  1  0.48930570  0.41795802  0.06986410  1  1.563859  0  0.213024  0.587561  0  4.176247  0
C  C112  1  0.59491420  0.69229784  0.83304194  1  -0.078039  0  -0.083084  -0.143427  0  3.965938  0
C  C113  1  0.59193858  0.85073358  0.37020573  1  -0.055724  0  -0.08432  -0.086356  0  3.982149  0
C  C114  1  0.40819530  0.14905895  0.62967921  1  0.006642  0  -0.084254  -0.087746  0  3.98321  0
C  C115  1  0.40500454  0.86648465  0.64611535  1  -0.015627  0  -0.084771  -0.088751  0  3.982541  0
C  C116  1  0.59508831  0.13321055  0.35399324  1  -0.027558  0  -0.084505  -0.087216  0  3.981877  0
C  C117  1  0.59540580  0.36668384  0.85394407  1  -0.040098  0  -0.084289  -0.086954  0  3.981984  0
C  C118  1  0.40515883  0.63306954  0.14580287  1  -0.03604  0  -0.084351  -0.087064  0  3.980235  0
C  C119  1  0.40740710  0.35026612  0.12986426  1  -0.057153  0  -0.084242  -0.086173  0  3.982925  0
C  C120  1  0.59172755  0.64902719  0.87017417  1  0.009469  0  -0.083906  -0.086697  0  3.98232  0
C  C121  1  0.23299738  0.00093822  0.53988753  1  0.476535  0  0.034607  0.056432  0  3.965474  0
C  C122  1  0.48774006  0.56872895  0.08296266  1  1.553685  0  0.214281  0.589711  0  4.17573  0
C  C123  1  0.76699332  0.99879653  0.46006805  1  0.474402  0  0.034907  0.057258  0  3.964509  0
C  C124  1  0.23293532  0.49957011  0.03974573  1  0.471259  0  0.034343  0.055954  0  3.96577  0
C  C125  1  0.76702935  0.49929660  0.96047257  1  0.472918  0  0.034689  0.056735  0  3.965399  0
C  C126  1  0.14656876  0.00098387  0.53754143  1  -0.077828  0  -0.081144  -0.177622  0  3.998906  0
C  C127  1  0.85342485  0.99888942  0.46239062  1  -0.078658  0  -0.081216  -0.177581  0  3.999061  0
C  C128  1  0.14652663  0.50085766  0.03745951  1  -0.079525  0  -0.081226  -0.177048  0  4.000327  0
C  C129  1  0.85345839  0.50037884  0.96275561  1  -0.054661  0  -0.081571  -0.178469  0  3.998968  0
C  C130  1  0.51305579  0.43085749  0.91705981  1  1.565414  0  0.21372  0.588733  0  4.175825  0
C  C131  1  0.10993739  0.99943572  0.48622520  1  0.438744  0  0.091619  0.084951  0  4.033378  0
N  N132  1  0.53084145  0.74244686  0.27578456  1  -0.482151  0  -0.153244  -0.142188  0  3.290801  0
N  N133  1  0.71608754  0.00012518  0.50654176  1  -1.203864  0  -0.314856  -0.16429  0  3.565185  0
N  N134  1  0.28384475  0.50060696  0.99325750  1  -1.206456  0  -0.314896  -0.163536  0  3.56614  0
N  N135  1  0.71610066  0.50136262  0.00690750  1  -1.207988  0  -0.315182  -0.163575  0  3.56477  0
N  N136  1  0.02403807  0.99854466  0.47810202  1  -0.512572  0  -0.159246  -0.137201  0  3.315509  0
N  N137  1  0.97598043  0.00144554  0.52180697  1  -0.557298  0  -0.159136  -0.137044  0  3.315446  0
N  N138  1  0.02399375  0.50440292  0.97815259  1  -0.51187  0  -0.15977  -0.1377  0  3.315764  0
N  N139  1  0.97603389  0.50435769  0.02203177  1  -0.559808  0  -0.159524  -0.138019  0  3.315312  0
N  N140  1  0.13231612  0.99745436  0.38678357  1  -1.231579  0  -0.570746  -0.590694  0  3.370364  0
N  N141  1  0.86776905  0.00252854  0.61314203  1  -1.239495  0  -0.571231  -0.591481  0  3.37003  0
N  N142  1  0.13229666  0.50779186  0.88687191  1  -1.23698  0  -0.570874  -0.591712  0  3.377001  0
N  N143  1  0.46952056  0.25750900  0.72387728  1  -0.475268  0  -0.153039  -0.141986  0  3.291104  0
N  N144  1  0.86773246  0.51058023  0.11316853  1  -1.235765  0  -0.570565  -0.590913  0  3.375097  0
N  N145  1  0.46303042  0.77382672  0.75640894  1  -0.514268  0  -0.153094  -0.143426  0  3.290527  0
N  N146  1  0.53684587  0.22594056  0.24379827  1  -0.510349  0  -0.153322  -0.144146  0  3.289285  0
N  N147  1  0.53729052  0.27400649  0.74355893  1  -0.517285  0  -0.153892  -0.144256  0  3.291387  0
N  N148  1  0.46309819  0.72598783  0.25603174  1  -0.510512  0  -0.153461  -0.143782  0  3.290143  0
N  N149  1  0.46899004  0.24230498  0.22432557  1  -0.484427  0  -0.153619  -0.143104  0  3.290648  0
N  N150  1  0.53078331  0.75743766  0.77600430  1  -0.477252  0  -0.153608  -0.142364  0  3.289472  0
N  N151  1  0.28393057  0.99951438  0.49343550  1  -1.204385  0  -0.314794  -0.163602  0  3.565023  0
O  O152  1  0.58161293  0.05416512  0.43690982  1  -1.16459  0  -0.318004  -0.54744  0  2.321984  0
O  O153  1  0.56085711  0.94680922  0.56627572  1  -1.171614  0  -0.318853  -0.553506  0  2.329085  0
O  O154  1  0.56319578  0.06342828  0.55590399  1  -1.164685  0  -0.319492  -0.553238  0  2.330303  0
O  O155  1  0.43674349  0.93603219  0.44422347  1  -1.167255  0  -0.319198  -0.552483  0  2.330561  0
O  O156  1  0.43634533  0.56291522  0.94383912  1  -1.165259  0  -0.319139  -0.55266  0  2.334372  0
O  O157  1  0.56233540  0.43607780  0.05535354  1  -1.163071  0  -0.31949  -0.550831  0  2.329486  0
O  O158  1  0.56112993  0.55279739  0.06671079  1  -1.162171  0  -0.318985  -0.555146  0  2.330934  0
O  O159  1  0.43967465  0.44626099  0.93388985  1  -1.167149  0  -0.319168  -0.55327  0  2.326388  0
O  O160  1  0.41848796  0.94549412  0.56322726  1  -1.163789  0  -0.318419  -0.548104  0  2.322136  0
O  O161  1  0.42072760  0.06327146  0.55366836  1  -1.161133  0  -0.318694  -0.547446  0  2.316545  0
O  O162  1  0.57923358  0.93645183  0.44624757  1  -1.161538  0  -0.318766  -0.547741  0  2.315768  0
O  O163  1  0.57871009  0.56365332  0.94680609  1  -1.161244  0  -0.318588  -0.546677  0  2.317668  0
O  O164  1  0.41976866  0.43625746  0.05392841  1  -1.163335  0  -0.318498  -0.546943  0  2.316456  0
O  O165  1  0.41889259  0.55400106  0.06295863  1  -1.163859  0  -0.317896  -0.548225  0  2.321187  0
O  O166  1  0.58211122  0.44598290  0.93655056  1  -1.165519  0  -0.318027  -0.548622  0  2.321253  0
O  O167  1  0.43926704  0.05270990  0.43371558  1  -1.173438  0  -0.318582  -0.553528  0  2.328774  0
