# generated using pymatgen
data_AlH12(C7O3)3
_symmetry_space_group_name_H-M   'P 1'
_cell_length_a   4.00898136
_cell_length_b   24.62002197
_cell_length_c   24.61957933
_cell_angle_alpha   119.99875410
_cell_angle_beta   89.99956217
_cell_angle_gamma   89.99938934
_symmetry_Int_Tables_number   1
_chemical_formula_structural   AlH12(C7O3)3
_chemical_formula_sum   'Al2 H24 C42 O18'
_cell_volume   2104.45277920
_cell_formula_units_Z   2
loop_
 _symmetry_equiv_pos_site_id
 _symmetry_equiv_pos_as_xyz
  1  'x, y, z'
loop_
 _atom_site_type_symbol
 _atom_site_label
 _atom_site_symmetry_multiplicity
 _atom_site_fract_x
 _atom_site_fract_y
 _atom_site_fract_z
 _atom_site_occupancy
 _atom_site_pbe_bader_charge
 _atom_site_pbe_bader_spin_density
 _atom_site_pbe_cm5_charge
 _atom_site_pbe_ddec_charge
 _atom_site_pbe_ddec_spin_density
 _atom_site_pbe_ddec_sum_bond_order
 _atom_site_pbe_magmom
Al  Al0  1  0.01954315  0.49999906  0.49999990  1  2.50603  0  0.427927  1.597267  0  2.572357  0
Al  Al1  1  0.01919892  0.16665359  0.83333379  1  2.506891  0  0.428624  1.596854  0  2.573298  0
H  H2  1  0.24428263  0.48608344  0.65863613  1  0.074781  0  0.10616  0.122003  0  1.006558  0
H  H3  1  0.24372321  0.18020289  0.67441104  1  0.079652  0  0.106167  0.121764  0  1.005604  0
H  H4  1  0.82177207  0.32744859  0.82080219  1  0.092633  0  0.105947  0.112942  0  0.993474  0
H  H5  1  0.81383946  0.38574847  0.76203476  1  0.101958  0  0.10043  0.107512  0  1.021085  0
H  H6  1  0.82222567  0.33890769  0.51218618  1  0.096943  0  0.105889  0.113136  0  0.993079  0
H  H7  1  0.81380002  0.28049084  0.57083992  1  0.097794  0  0.100479  0.109785  0  1.019013  0
H  H8  1  0.24425529  0.67254865  0.51392244  1  0.079645  0  0.106164  0.122002  0  1.006493  0
H  H9  1  0.24366900  0.99420503  0.81978706  1  0.071476  0  0.106161  0.121787  0  1.005519  0
H  H10  1  0.82181695  0.99334005  0.67254285  1  0.073597  0  0.105965  0.112938  0  0.993486  0
H  H11  1  0.81392230  0.87627542  0.61424814  1  0.110516  0  0.100373  0.107528  0  1.021024  0
H  H12  1  0.82221648  0.67327585  0.66109382  1  0.076149  0  0.105873  0.113095  0  0.993019  0
H  H13  1  0.81383018  0.79034234  0.71950857  1  0.125182  0  0.100468  0.109785  0  1.018907  0
H  H14  1  0.24425531  0.34137118  0.32745250  1  0.06791  0  0.106199  0.122014  0  1.006473  0
H  H15  1  0.24368488  0.32558270  0.00578906  1  0.066458  0  0.106136  0.121761  0  1.005672  0
H  H16  1  0.82180393  0.17920871  0.00666513  1  0.081456  0  0.105919  0.112925  0  0.993377  0
H  H17  1  0.81383462  0.23798864  0.12373166  1  0.110172  0  0.10034  0.107459  0  1.021258  0
H  H18  1  0.82221546  0.48780894  0.32672203  1  0.088521  0  0.105881  0.11316  0  0.993078  0
H  H19  1  0.81377661  0.42916594  0.20965266  1  0.103041  0  0.100518  0.109815  0  1.018878  0
H  H20  1  0.10416577  0.47120614  0.73892347  1  0.608085  0  0.335239  0.363463  0  0.874795  0
H  H21  1  0.10359432  0.19504439  0.59411647  1  0.605334  0  0.335033  0.36312  0  0.875878  0
H  H22  1  0.10418641  0.76771325  0.52879543  1  0.607328  0  0.335212  0.363454  0  0.87493  0
H  H23  1  0.10358441  0.89906569  0.80495382  1  0.597968  0  0.335037  0.363177  0  0.875827  0
H  H24  1  0.10417968  0.26108409  0.23228996  1  0.616192  0  0.335193  0.363402  0  0.874778  0
H  H25  1  0.10354220  0.40588871  0.10092215  1  0.605663  0  0.334984  0.362953  0  0.875961  0
C  C26  1  0.52200127  0.45345555  0.40361565  1  1.590027  0  0.273192  0.651479  0  4.057683  0
C  C27  1  0.52200541  0.45015839  0.54654676  1  1.581087  0  0.273211  0.651448  0  4.057621  0
C  C28  1  0.52199821  0.59638411  0.54984407  1  1.587416  0  0.273119  0.651404  0  4.05748  0
C  C29  1  0.52150563  0.21628048  0.78656959  1  1.581469  0  0.273731  0.653295  0  4.054133  0
C  C30  1  0.52148537  0.07027205  0.78370486  1  1.591247  0  0.273707  0.652909  0  4.055094  0
C  C31  1  0.52145985  0.21342871  0.92972143  1  1.591571  0  0.27372  0.65304  0  4.054645  0
C  C32  1  0.53180114  0.41583029  0.58191912  1  -0.012459  0  -0.013497  -0.012933  0  4.003822  0
C  C33  1  0.53132336  0.25051558  0.75111877  1  -0.012623  0  -0.013679  -0.014108  0  4.004196  0
C  C34  1  0.37583661  0.44148671  0.64039446  1  0.013748  0  -0.107667  -0.255128  0  4.023363  0
C  C35  1  0.38530801  0.41007544  0.67436168  1  0.446012  0  0.076576  0.249541  0  4.080354  0
C  C36  1  0.37543312  0.22479506  0.69262804  1  0.000875  0  -0.107451  -0.254038  0  4.020684  0
C  C37  1  0.38505883  0.25615975  0.65861799  1  0.439509  0  0.076698  0.24963  0  4.081745  0
C  C38  1  0.69367888  0.30842633  0.77593066  1  0.017669  0  -0.091407  -0.112417  0  3.995356  0
C  C39  1  0.68879213  0.34065968  0.74294312  1  -0.009271  0  -0.085701  -0.101473  0  3.982743  0
C  C40  1  0.69403681  0.35789885  0.55704815  1  -0.005796  0  -0.09146  -0.11306  0  3.99628  0
C  C41  1  0.68882623  0.32559883  0.58997323  1  -0.059057  0  -0.086224  -0.104491  0  3.982116  0
C  C42  1  0.53774823  0.35061271  0.64914555  1  -0.078058  0  -0.008596  -0.004306  0  3.929715  0
C  C43  1  0.53768614  0.31558241  0.68377255  1  -0.036843  0  -0.009018  -0.00666  0  3.931941  0
C  C44  1  0.53177820  0.66608964  0.58417657  1  -0.053181  0  -0.013473  -0.012877  0  4.00373  0
C  C45  1  0.53131883  0.00058895  0.74947498  1  -0.068025  0  -0.013803  -0.014104  0  4.004419  0
C  C46  1  0.37581797  0.69890567  0.55851666  1  0.023666  0  -0.107725  -0.25518  0  4.023421  0
C  C47  1  0.38531631  0.76428155  0.58992464  1  0.363831  0  0.076558  0.249355  0  4.080491  0
C  C48  1  0.37542508  0.96782347  0.77519791  1  0.040624  0  -0.107462  -0.254034  0  4.020444  0
C  C49  1  0.38505878  0.90244814  0.74383644  1  0.352629  0  0.076685  0.249619  0  4.081755  0
C  C50  1  0.69372492  0.96749382  0.69156825  1  0.105846  0  -0.091404  -0.11237  0  3.995095  0
C  C51  1  0.68883874  0.90227209  0.65933510  1  -0.071557  0  -0.085661  -0.101503  0  3.982562  0
C  C52  1  0.69403144  0.69914756  0.64210464  1  0.10097  0  -0.0915  -0.113149  0  3.996407  0
C  C53  1  0.68883775  0.76436950  0.67440178  1  -0.100147  0  -0.086053  -0.104386  0  3.981767  0
C  C54  1  0.53776149  0.79852807  0.64938792  1  -0.046148  0  -0.008782  -0.004032  0  3.929213  0
C  C55  1  0.53772102  0.86818121  0.68441378  1  0.06434  0  -0.008903  -0.006829  0  3.932014  0
C  C56  1  0.53176466  0.41808134  0.33391073  1  0.02803  0  -0.013571  -0.013061  0  4.003807  0
C  C57  1  0.53129745  0.24888517  0.99940496  1  0.049905  0  -0.013802  -0.014307  0  4.004415  0
C  C58  1  0.37579502  0.35960923  0.30109555  1  -0.088955  0  -0.107638  -0.254937  0  4.023301  0
C  C59  1  0.38526890  0.32564551  0.23571937  1  0.457889  0  0.076458  0.249231  0  4.080293  0
C  C60  1  0.37540656  0.30737736  0.03216938  1  -0.120124  0  -0.10738  -0.253906  0  4.020252  0
C  C61  1  0.38502979  0.34139388  0.09754631  1  0.456512  0  0.076757  0.249651  0  4.081559  0
C  C62  1  0.69369453  0.22408104  0.03250613  1  -0.092228  0  -0.091336  -0.112295  0  3.995062  0
C  C63  1  0.68879041  0.25707084  0.09772870  1  0.062659  0  -0.08566  -0.101481  0  3.982907  0
C  C64  1  0.69402035  0.44295107  0.30084947  1  -0.108545  0  -0.091534  -0.1133  0  3.996518  0
C  C65  1  0.68879471  0.41003156  0.23562731  1  0.104355  0  -0.086116  -0.104381  0  3.982196  0
C  C66  1  0.53771414  0.35086682  0.20147226  1  0.023151  0  -0.008679  -0.004026  0  3.929196  0
C  C67  1  0.53765955  0.31623735  0.13181465  1  -0.050789  0  -0.009063  -0.00682  0  3.931916  0
O  O68  1  0.75273825  0.56768985  0.56128672  1  -1.257817  0  -0.241185  -0.601433  0  2.362523  0
O  O69  1  0.75275119  0.49359299  0.43231004  1  -1.262137  0  -0.241275  -0.60158  0  2.362529  0
O  O70  1  0.75276610  0.43871388  0.50640572  1  -1.252781  0  -0.241275  -0.601564  0  2.362325  0
O  O71  1  0.28338326  0.56970113  0.51099860  1  -1.258987  0  -0.23863  -0.595464  0  2.363568  0
O  O72  1  0.28338716  0.48900577  0.55870881  1  -1.256782  0  -0.238699  -0.595478  0  2.363758  0
O  O73  1  0.28338179  0.44129352  0.43029803  1  -1.255672  0  -0.238623  -0.595386  0  2.363724  0
O  O74  1  0.75222867  0.17329200  0.90110291  1  -1.262445  0  -0.241393  -0.602005  0  2.361445  0
O  O75  1  0.75225119  0.22778923  0.82670836  1  -1.251637  0  -0.241335  -0.60204  0  2.361366  0
O  O76  1  0.75225160  0.09889272  0.77219714  1  -1.258416  0  -0.241338  -0.601899  0  2.361921  0
O  O77  1  0.28285836  0.22551670  0.90297805  1  -1.257463  0  -0.239387  -0.596019  0  2.361899  0
O  O78  1  0.28288682  0.09701229  0.82254324  1  -1.262007  0  -0.239381  -0.596079  0  2.361955  0
O  O79  1  0.28287546  0.17744896  0.77447678  1  -1.259393  0  -0.23938  -0.596146  0  2.361626  0
O  O80  1  0.24000703  0.43576692  0.73280924  1  -1.138426  0  -0.352837  -0.454226  0  2.308086  0
O  O81  1  0.23962262  0.23044561  0.60018666  1  -1.134623  0  -0.352816  -0.454263  0  2.310069  0
O  O82  1  0.24002462  0.79703609  0.56423278  1  -1.138434  0  -0.35276  -0.454173  0  2.308346  0
O  O83  1  0.23960329  0.86973361  0.76955090  1  -1.129519  0  -0.352765  -0.454249  0  2.31017  0
O  O84  1  0.23998776  0.26719893  0.20296068  1  -1.142111  0  -0.352711  -0.4541  0  2.308063  0
O  O85  1  0.23956626  0.39982432  0.13025784  1  -1.133957  0  -0.352697  -0.454011  0  2.310227  0
