# generated using pymatgen
data_CdH2C3N3O2
_symmetry_space_group_name_H-M   'P 1'
_cell_length_a   8.52148964
_cell_length_b   10.28567494
_cell_length_c   13.66081945
_cell_angle_alpha   89.99986784
_cell_angle_beta   90.00012577
_cell_angle_gamma   90.00003463
_symmetry_Int_Tables_number   1
_chemical_formula_structural   CdH2C3N3O2
_chemical_formula_sum   'Cd8 H16 C24 N24 O16'
_cell_volume   1197.36088460
_cell_formula_units_Z   8
loop_
 _symmetry_equiv_pos_site_id
 _symmetry_equiv_pos_as_xyz
  1  'x, y, z'
loop_
 _atom_site_type_symbol
 _atom_site_label
 _atom_site_symmetry_multiplicity
 _atom_site_fract_x
 _atom_site_fract_y
 _atom_site_fract_z
 _atom_site_occupancy
 _atom_site_hle17_bader_spin_density
 _atom_site_hle17_ddec_charge
 _atom_site_hle17_ddec_spin_density
 _atom_site_hle17_ddec_sum_bond_order
 _atom_site_hle17_magmom
 _atom_site_hse06_10hf_bader_spin_density
 _atom_site_hse06_10hf_ddec_charge
 _atom_site_hse06_10hf_ddec_spin_density
 _atom_site_hse06_10hf_ddec_sum_bond_order
 _atom_site_hse06_10hf_magmom
 _atom_site_hse06_bader_spin_density
 _atom_site_hse06_ddec_charge
 _atom_site_hse06_ddec_spin_density
 _atom_site_hse06_ddec_sum_bond_order
 _atom_site_hse06_magmom
 _atom_site_pbe_bader_spin_density
 _atom_site_pbe_cm5_charge
 _atom_site_pbe_ddec_charge
 _atom_site_pbe_ddec_spin_density
 _atom_site_pbe_ddec_sum_bond_order
 _atom_site_pbe_magmom
Cd  Cd0  1  0.25000035  0.52856295  0.24999936  1  0  1.073153  0  1.731523  0  0  0.860369  0  2.18693  0  0  0.913161  0  2.143468  0  0  0.783269  0.82074  0  2.217846  0
Cd  Cd1  1  0.25000139  0.97143735  0.75000046  1  0  1.073148  0  1.731577  0  0  0.860364  0  2.186984  0  0  0.913155  0  2.143523  0  0  0.78327  0.820747  0  2.217901  0
Cd  Cd2  1  0.74999947  0.47144404  0.75000050  1  0  1.073118  0  1.731634  0  0  0.860366  0  2.187012  0  0  0.913156  0  2.143549  0  0  0.7833  0.820735  0  2.217934  0
Cd  Cd3  1  0.74999960  0.02855700  0.25000013  1  0  1.073114  0  1.731637  0  0  0.860359  0  2.187024  0  0  0.913151  0  2.143559  0  0  0.7833  0.820751  0  2.217935  0
Cd  Cd4  1  0.31575933  0.75000065  0.49999959  1  0  1.100738  0  1.808906  0  0  0.906984  0  2.28022  0  0  0.958246  0  2.232225  0  0  0.782694  0.869894  0  2.313138  0
Cd  Cd5  1  0.18424036  0.75000139  0.00000021  1  0  1.100802  0  1.808846  0  0  0.907074  0  2.280132  0  0  0.958334  0  2.232138  0  0  0.782739  0.870054  0  2.31305  0
Cd  Cd6  1  0.68423815  0.24999953  0.49999881  1  0  1.10073  0  1.80892  0  0  0.907008  0  2.280204  0  0  0.958268  0  2.232209  0  0  0.782723  0.869922  0  2.313129  0
Cd  Cd7  1  0.81576239  0.24999936  0.00000034  1  0  1.100757  0  1.808907  0  0  0.907044  0  2.280173  0  0  0.958303  0  2.23218  0  0  0.782683  0.869929  0  2.313104  0
H  H8  1  0.60371798  0.70621005  0.28930309  1  0  0.089313  0  0.927783  0  0  0.101452  0  0.987183  0  0  0.10325  0  0.984532  0  0  0.133327  0.100121  0  0.989228  0
H  H9  1  0.60371523  0.79378654  0.71069867  1  0  0.08924  0  0.927853  0  0  0.101382  0  0.98726  0  0  0.10318  0  0.984608  0  0  0.133305  0.100092  0  0.989261  0
H  H10  1  0.89628394  0.79378941  0.78930104  1  0  0.089254  0  0.927868  0  0  0.101408  0  0.98726  0  0  0.103206  0  0.984607  0  0  0.133345  0.100156  0  0.989225  0
H  H11  1  0.89628406  0.70621024  0.21069746  1  0  0.0893  0  0.927829  0  0  0.101449  0  0.987218  0  0  0.103248  0  0.984566  0  0  0.133368  0.100194  0  0.98919  0
H  H12  1  0.39628418  0.29379013  0.71069677  1  0  0.089303  0  0.927827  0  0  0.10145  0  0.987216  0  0  0.103248  0  0.984563  0  0  0.133326  0.100128  0  0.989258  0
H  H13  1  0.39628458  0.20621267  0.28930119  1  0  0.089236  0  0.927883  0  0  0.101378  0  0.987293  0  0  0.103175  0  0.984643  0  0  0.133317  0.100096  0  0.989304  0
H  H14  1  0.10371705  0.20621077  0.21069735  1  0  0.089304  0  0.927831  0  0  0.101457  0  0.987216  0  0  0.103256  0  0.984563  0  0  0.133365  0.100209  0  0.989172  0
H  H15  1  0.10371458  0.29378897  0.78930093  1  0  0.08926  0  0.927871  0  0  0.101414  0  0.987261  0  0  0.103213  0  0.984607  0  0  0.133338  0.100151  0  0.989234  0
H  H16  1  0.44760887  0.98081457  0.08476889  1  0  0.081579  0  0.938752  0  0  0.091989  0  1.002907  0  0  0.093823  0  1.00036  0  0  0.128849  0.090462  0  1.005091  0
H  H17  1  0.44760546  0.51918292  0.91523192  1  0  0.081485  0  0.938673  0  0  0.091923  0  1.002792  0  0  0.093753  0  1.000247  0  0  0.128882  0.090433  0  1.004948  0
H  H18  1  0.05238877  0.51918333  0.58476904  1  0  0.081504  0  0.938734  0  0  0.091919  0  1.002887  0  0  0.093749  0  1.00034  0  0  0.128816  0.090404  0  1.005079  0
H  H19  1  0.05238982  0.98081591  0.41523050  1  0  0.081457  0  0.938781  0  0  0.091891  0  1.002912  0  0  0.09372  0  1.000365  0  0  0.128816  0.09037  0  1.005114  0
H  H20  1  0.55238978  0.01918562  0.91523023  1  0  0.081458  0  0.938809  0  0  0.091877  0  1.002954  0  0  0.093706  0  1.000407  0  0  0.128814  0.090352  0  1.005139  0
H  H21  1  0.55239318  0.48081726  0.08476867  1  0  0.081511  0  0.938683  0  0  0.091898  0  1.002867  0  0  0.093729  0  1.000321  0  0  0.128828  0.090393  0  1.005033  0
H  H22  1  0.94760987  0.48081589  0.41523081  1  0  0.081561  0  0.938724  0  0  0.091973  0  1.002888  0  0  0.093804  0  1.000339  0  0  0.128852  0.09046  0  1.005081  0
H  H23  1  0.94761000  0.01918428  0.58476936  1  0  0.081527  0  0.938784  0  0  0.09197  0  1.002911  0  0  0.0938  0  1.000362  0  0  0.128843  0.090448  0  1.005112  0
C  C24  1  0.53895457  0.75328141  0.23093169  1  0  0.220958  0  3.729732  0  0  0.16361  0  4.006417  0  0  0.177491  0  4.020126  0  0  0.135796  0.154161  0  3.997188  0
C  C25  1  0.53895669  0.74671515  0.76906852  1  0  0.221124  0  3.729793  0  0  0.163772  0  4.006475  0  0  0.177654  0  4.020181  0  0  0.135937  0.154384  0  3.997179  0
C  C26  1  0.96104362  0.74671920  0.73093127  1  0  0.22106  0  3.729813  0  0  0.163698  0  4.006497  0  0  0.177578  0  4.020205  0  0  0.135918  0.154337  0  3.997143  0
C  C27  1  0.96104516  0.75328146  0.26906805  1  0  0.220992  0  3.729822  0  0  0.163632  0  4.006505  0  0  0.177512  0  4.020213  0  0  0.135908  0.154286  0  3.997127  0
C  C28  1  0.46104525  0.24671974  0.76906670  1  0  0.220962  0  3.729799  0  0  0.163598  0  4.006475  0  0  0.177478  0  4.020183  0  0  0.135765  0.154123  0  3.997227  0
C  C29  1  0.46104430  0.25328309  0.23093134  1  0  0.221105  0  3.729743  0  0  0.163751  0  4.006431  0  0  0.177631  0  4.020137  0  0  0.135896  0.154355  0  3.997165  0
C  C30  1  0.03895502  0.25328098  0.26906859  1  0  0.220915  0  3.729776  0  0  0.163549  0  4.006461  0  0  0.177429  0  4.020171  0  0  0.135888  0.154204  0  3.997082  0
C  C31  1  0.03895583  0.24671969  0.73093181  1  0  0.221016  0  3.729831  0  0  0.163649  0  4.006512  0  0  0.17753  0  4.020218  0  0  0.135906  0.154301  0  3.997136  0
C  C32  1  0.45921486  0.89273958  0.12801089  1  0  0.196382  0  3.766397  0  0  0.141344  0  4.035614  0  0  0.154761  0  4.050981  0  0  0.12906  0.132353  0  4.025259  0
C  C33  1  0.45921489  0.60726082  0.87198701  1  0  0.196521  0  3.766194  0  0  0.141479  0  4.035409  0  0  0.154899  0  4.050775  0  0  0.129208  0.132545  0  4.02503  0
C  C34  1  0.04078410  0.60726109  0.62801088  1  0  0.196486  0  3.76632  0  0  0.141448  0  4.035529  0  0  0.154872  0  4.050889  0  0  0.129179  0.132502  0  4.025222  0
C  C35  1  0.04078493  0.89273911  0.37198865  1  0  0.196542  0  3.766342  0  0  0.141494  0  4.035551  0  0  0.154919  0  4.050911  0  0  0.129164  0.132522  0  4.025259  0
C  C36  1  0.54078496  0.10726157  0.87198896  1  0  0.196557  0  3.766418  0  0  0.141512  0  4.035623  0  0  0.154935  0  4.050983  0  0  0.12912  0.132527  0  4.025271  0
C  C37  1  0.54078375  0.39273936  0.12801212  1  0  0.196496  0  3.76628  0  0  0.141488  0  4.035498  0  0  0.154908  0  4.050861  0  0  0.129196  0.132539  0  4.025132  0
C  C38  1  0.95921454  0.39273909  0.37198971  1  0  0.196415  0  3.766366  0  0  0.141372  0  4.035584  0  0  0.154795  0  4.050946  0  0  0.129141  0.132438  0  4.025288  0
C  C39  1  0.95921489  0.10726108  0.62801047  1  0  0.196436  0  3.766407  0  0  0.141366  0  4.035624  0  0  0.154788  0  4.050985  0  0  0.129117  0.132406  0  4.02533  0
C  C40  1  0.04415099  0.47501884  0.04672083  1  0  0.537753  0  3.91733  0  0  0.495641  0  4.200988  0  0  0.525426  0  4.195153  0  0  0.202059  0.475284  0  4.204224  0
C  C41  1  0.04415007  0.02498184  0.95328030  1  0  0.537868  0  3.917475  0  0  0.495729  0  4.201158  0  0  0.525515  0  4.195322  0  0  0.202056  0.475394  0  4.204371  0
C  C42  1  0.45585085  0.02498062  0.54672152  1  0  0.53774  0  3.917376  0  0  0.495641  0  4.201031  0  0  0.525426  0  4.195196  0  0  0.202075  0.475272  0  4.204239  0
C  C43  1  0.45584967  0.47501832  0.45327944  1  0  0.537753  0  3.917386  0  0  0.495634  0  4.201021  0  0  0.52542  0  4.195186  0  0  0.202025  0.475276  0  4.204208  0
C  C44  1  0.95584649  0.52497745  0.95328049  1  0  0.537823  0  3.91761  0  0  0.495725  0  4.20125  0  0  0.525512  0  4.195413  0  0  0.202068  0.475357  0  4.204464  0
C  C45  1  0.95584740  0.97502320  0.04672102  1  0  0.53769  0  3.917547  0  0  0.495598  0  4.201195  0  0  0.525385  0  4.195362  0  0  0.202032  0.475267  0  4.204423  0
C  C46  1  0.54415132  0.97502151  0.45328127  1  0  0.537859  0  3.917547  0  0  0.495725  0  4.201235  0  0  0.52551  0  4.195399  0  0  0.202111  0.475347  0  4.204454  0
C  C47  1  0.54415249  0.52497700  0.54672115  1  0  0.537687  0  3.917606  0  0  0.495618  0  4.201195  0  0  0.525403  0  4.195361  0  0  0.202069  0.47526  0  4.20438  0
N  N48  1  0.08576515  0.70039014  0.31259051  1  0  -0.299442  0  3.128578  0  0  -0.238003  0  3.411254  0  0  -0.255067  0  3.430681  0  0  -0.255362  -0.225428  0  3.397557  0
N  N49  1  0.08576702  0.79961008  0.68741128  1  0  -0.299495  0  3.128637  0  0  -0.238067  0  3.411333  0  0  -0.25513  0  3.430757  0  0  -0.255385  -0.225468  0  3.397636  0
N  N50  1  0.41423329  0.79960997  0.81258847  1  0  -0.299522  0  3.12859  0  0  -0.23809  0  3.411279  0  0  -0.255154  0  3.430702  0  0  -0.255361  -0.225471  0  3.397558  0
N  N51  1  0.41423215  0.70039041  0.18741083  1  0  -0.299425  0  3.128558  0  0  -0.23799  0  3.41124  0  0  -0.255053  0  3.430663  0  0  -0.255382  -0.225456  0  3.397616  0
N  N52  1  0.91422997  0.29960810  0.68741228  1  0  -0.299447  0  3.128666  0  0  -0.238016  0  3.41135  0  0  -0.255081  0  3.430774  0  0  -0.255369  -0.22543  0  3.397656  0
N  N53  1  0.91423162  0.20039107  0.31258858  1  0  -0.299376  0  3.12855  0  0  -0.237945  0  3.411233  0  0  -0.255009  0  3.430658  0  0  -0.255335  -0.225354  0  3.397527  0
N  N54  1  0.58576888  0.20039021  0.18741065  1  0  -0.299485  0  3.128548  0  0  -0.23805  0  3.41123  0  0  -0.255114  0  3.430655  0  0  -0.255354  -0.225459  0  3.397527  0
N  N55  1  0.58576884  0.29960977  0.81258756  1  0  -0.299427  0  3.128593  0  0  -0.237994  0  3.411278  0  0  -0.255058  0  3.430702  0  0  -0.255433  -0.225484  0  3.397645  0
N  N56  1  0.36239606  0.79134807  0.12083345  1  0  -0.30527  0  3.208125  0  0  -0.239128  0  3.494993  0  0  -0.257381  0  3.514417  0  0  -0.267657  -0.226888  0  3.481302  0
N  N57  1  0.36239384  0.70865423  0.87916578  1  0  -0.305282  0  3.208015  0  0  -0.23914  0  3.494891  0  0  -0.257394  0  3.514316  0  0  -0.267517  -0.226739  0  3.481098  0
N  N58  1  0.13760288  0.70865457  0.62083412  1  0  -0.305239  0  3.208174  0  0  -0.239094  0  3.495035  0  0  -0.257348  0  3.514457  0  0  -0.267494  -0.226746  0  3.481336  0
N  N59  1  0.13760366  0.79134568  0.37916700  1  0  -0.305243  0  3.208126  0  0  -0.239099  0  3.494989  0  0  -0.257354  0  3.514411  0  0  -0.267535  -0.22675  0  3.481288  0
N  N60  1  0.63760141  0.20865503  0.87916640  1  0  -0.305277  0  3.208208  0  0  -0.239137  0  3.495075  0  0  -0.25739  0  3.514496  0  0  -0.267561  -0.226832  0  3.48135  0
N  N61  1  0.63760480  0.29134401  0.12083335  1  0  -0.305303  0  3.208087  0  0  -0.239167  0  3.494961  0  0  -0.25742  0  3.514382  0  0  -0.267535  -0.226757  0  3.481161  0
N  N62  1  0.86239577  0.29134756  0.37916646  1  0  -0.30529  0  3.208221  0  0  -0.239148  0  3.495089  0  0  -0.257402  0  3.514511  0  0  -0.267544  -0.226801  0  3.481395  0
N  N63  1  0.86239499  0.20865354  0.62083432  1  0  -0.305271  0  3.208211  0  0  -0.239132  0  3.495087  0  0  -0.257386  0  3.514512  0  0  -0.267516  -0.226776  0  3.481388  0
N  N64  1  0.57168123  0.87366735  0.19620455  1  0  -0.428161  0  3.19907  0  0  -0.348352  0  3.484671  0  0  -0.371879  0  3.498387  0  0  -0.361144  -0.331708  0  3.474974  0
N  N65  1  0.57167516  0.62633117  0.80379497  1  0  -0.428208  0  3.199148  0  0  -0.348421  0  3.484783  0  0  -0.371943  0  3.49849  0  0  -0.361185  -0.331738  0  3.475061  0
N  N66  1  0.92831919  0.62633337  0.69620503  1  0  -0.428192  0  3.199036  0  0  -0.348382  0  3.484646  0  0  -0.371908  0  3.498357  0  0  -0.361158  -0.331743  0  3.47495  0
N  N67  1  0.92832211  0.87366825  0.30379351  1  0  -0.428221  0  3.199128  0  0  -0.348427  0  3.484764  0  0  -0.371949  0  3.498467  0  0  -0.361137  -0.331729  0  3.475013  0
N  N68  1  0.42831977  0.12633380  0.80379457  1  0  -0.428188  0  3.199028  0  0  -0.348367  0  3.484623  0  0  -0.371894  0  3.498337  0  0  -0.361131  -0.331721  0  3.474919  0
N  N69  1  0.42832348  0.37366707  0.19620416  1  0  -0.428197  0  3.199161  0  0  -0.348397  0  3.484765  0  0  -0.37192  0  3.498473  0  0  -0.361145  -0.331746  0  3.475073  0
N  N70  1  0.07168180  0.37366682  0.30379629  1  0  -0.428125  0  3.198953  0  0  -0.348302  0  3.48454  0  0  -0.37183  0  3.498256  0  0  -0.36107  -0.331621  0  3.474818  0
N  N71  1  0.07168123  0.12633485  0.69620415  1  0  -0.42813  0  3.199023  0  0  -0.348306  0  3.484621  0  0  -0.371834  0  3.498338  0  0  -0.361082  -0.331633  0  3.474879  0
O  O72  1  0.13968016  0.55473064  0.08683408  1  0  -0.618379  0  2.119377  0  0  -0.544373  0  2.387448  0  0  -0.57334  0  2.375118  0  0  -0.322794  -0.523669  0  2.395292  0
O  O73  1  0.13968175  0.94527059  0.91316411  1  0  -0.618441  0  2.119332  0  0  -0.544425  0  2.387414  0  0  -0.573394  0  2.375085  0  0  -0.322926  -0.523891  0  2.395324  0
O  O74  1  0.36031983  0.94527017  0.58683465  1  0  -0.618355  0  2.119397  0  0  -0.544333  0  2.387436  0  0  -0.573301  0  2.375108  0  0  -0.322727  -0.523558  0  2.395246  0
O  O75  1  0.36031939  0.55472922  0.41316532  1  0  -0.618344  0  2.119405  0  0  -0.544336  0  2.38747  0  0  -0.573304  0  2.375141  0  0  -0.322713  -0.523556  0  2.395265  0
O  O76  1  0.86031731  0.44526663  0.91316504  1  0  -0.618338  0  2.119483  0  0  -0.544344  0  2.387561  0  0  -0.573313  0  2.375231  0  0  -0.322746  -0.523611  0  2.395387  0
O  O77  1  0.86031924  0.05473251  0.08683428  1  0  -0.618268  0  2.119547  0  0  -0.544268  0  2.387611  0  0  -0.573235  0  2.375283  0  0  -0.32282  -0.523676  0  2.395501  0
O  O78  1  0.63968233  0.05473293  0.41316521  1  0  -0.618361  0  2.119408  0  0  -0.544365  0  2.387507  0  0  -0.573334  0  2.375177  0  0  -0.322737  -0.523579  0  2.395317  0
O  O79  1  0.63968043  0.44526902  0.58683381  1  0  -0.618263  0  2.119505  0  0  -0.544279  0  2.387559  0  0  -0.573244  0  2.375229  0  0  -0.322722  -0.523494  0  2.395352  0
O  O80  1  0.98293446  0.63780238  0.92329612  1  0  -0.56178  0  2.089603  0  0  -0.507986  0  2.336462  0  0  -0.532916  0  2.328117  0  0  -0.305399  -0.490375  0  2.341576  0
O  O81  1  0.98293657  0.86219246  0.07670543  1  0  -0.56176  0  2.089411  0  0  -0.507954  0  2.336256  0  0  -0.532886  0  2.327916  0  0  -0.305619  -0.490615  0  2.341489  0
O  O82  1  0.51706558  0.86219764  0.42329705  1  0  -0.561796  0  2.089645  0  0  -0.507983  0  2.336522  0  0  -0.532912  0  2.328178  0  0  -0.305394  -0.490331  0  2.341633  0
O  O83  1  0.51706343  0.63780863  0.57670605  1  0  -0.561734  0  2.089396  0  0  -0.507938  0  2.336227  0  0  -0.532871  0  2.327887  0  0  -0.305362  -0.490318  0  2.34134  0
O  O84  1  0.01706418  0.36219197  0.07670520  1  0  -0.561733  0  2.089397  0  0  -0.50793  0  2.336248  0  0  -0.53286  0  2.327905  0  0  -0.305484  -0.490436  0  2.341429  0
O  O85  1  0.01706559  0.13780384  0.92329590  1  0  -0.561758  0  2.089647  0  0  -0.50795  0  2.336518  0  0  -0.532879  0  2.328173  0  0  -0.305507  -0.49051  0  2.341704  0
O  O86  1  0.48293658  0.13780838  0.57670500  1  0  -0.561731  0  2.089424  0  0  -0.507928  0  2.336279  0  0  -0.532857  0  2.327935  0  0  -0.305374  -0.490275  0  2.341387  0
O  O87  1  0.48293639  0.36219058  0.42329380  1  0  -0.561742  0  2.089362  0  0  -0.507933  0  2.336208  0  0  -0.532863  0  2.327865  0  0  -0.305351  -0.490311  0  2.341326  0
