# generated using pymatgen
data_ZnH13C21NO5
_symmetry_space_group_name_H-M   'P 1'
_cell_length_a   8.94628647
_cell_length_b   18.36958816
_cell_length_c   19.68668451
_cell_angle_alpha   88.62992628
_cell_angle_beta   87.24013111
_cell_angle_gamma   82.96457244
_symmetry_Int_Tables_number   1
_chemical_formula_structural   ZnH13C21NO5
_chemical_formula_sum   'Zn2 H26 C42 N2 O10'
_cell_volume   3206.68812793
_cell_formula_units_Z   2
loop_
 _symmetry_equiv_pos_site_id
 _symmetry_equiv_pos_as_xyz
  1  'x, y, z'
loop_
 _atom_site_type_symbol
 _atom_site_label
 _atom_site_symmetry_multiplicity
 _atom_site_fract_x
 _atom_site_fract_y
 _atom_site_fract_z
 _atom_site_occupancy
 _atom_site_pbe_bader_charge
 _atom_site_pbe_bader_spin_density
 _atom_site_pbe_cm5_charge
 _atom_site_pbe_ddec_charge
 _atom_site_pbe_ddec_spin_density
 _atom_site_pbe_ddec_sum_bond_order
 _atom_site_pbe_magmom
Zn  Zn0  1  0.49626084  0.57671906  0.49800422  1  1.283983  0  0.663926  0.816766  0  2.435712  0
Zn  Zn1  1  0.50379275  0.42327436  0.50199423  1  1.285027  0  0.663891  0.816745  0  2.435443  0
H  H2  1  0.02150952  0.41567199  0.49438107  1  0.117298  0  0.10836  0.127671  0  0.991429  0
H  H3  1  0.97855381  0.58433950  0.50564891  1  0.117362  0  0.108334  0.127486  0  0.991295  0
H  H4  1  0.69738951  0.82290497  0.42583166  1  0.156427  0  0.115582  0.125729  0  1.00461  0
H  H5  1  0.30274266  0.17707776  0.57422260  1  0.155031  0  0.115654  0.125831  0  1.004326  0
H  H6  1  0.74453076  0.91991045  0.49062178  1  0.095691  0  0.108515  0.109461  0  0.990561  0
H  H7  1  0.25547472  0.08008377  0.50936930  1  0.095872  0  0.108537  0.109535  0  0.990471  0
H  H8  1  0.74148745  0.05422871  0.49131935  1  0.069642  0  0.106009  0.103627  0  0.996456  0
H  H9  1  0.25852291  0.94576561  0.50865641  1  0.069657  0  0.106095  0.103609  0  0.996365  0
H  H10  1  0.50906874  0.38684258  0.71784940  1  0.08343  0  0.103124  0.106779  0  0.999802  0
H  H11  1  0.49092811  0.61314820  0.28216423  1  0.083806  0  0.103185  0.106834  0  0.999868  0
H  H12  1  0.51065689  0.38426254  0.84438288  1  0.060675  0  0.099683  0.097941  0  1.006771  0
H  H13  1  0.48927066  0.61573601  0.15563122  1  0.060946  0  0.099648  0.097904  0  1.006967  0
H  H14  1  0.48350805  0.62014002  0.84287849  1  0.055882  0  0.098647  0.097042  0  1.008962  0
H  H15  1  0.51641749  0.37986296  0.15712388  1  0.056607  0  0.09866  0.097029  0  1.008936  0
H  H16  1  0.47880827  0.62156352  0.71628592  1  0.103806  0  0.100289  0.10263  0  1.00628  0
H  H17  1  0.52117856  0.37842834  0.28371514  1  0.103881  0  0.100295  0.10259  0  1.006409  0
H  H18  1  0.33540984  0.59725599  0.94037512  1  0.068311  0  0.100232  0.098921  0  1.003457  0
H  H19  1  0.66448757  0.40275829  0.05964072  1  0.070643  0  0.100264  0.098848  0  1.003257  0
H  H20  1  0.33748302  0.59552519  0.06561945  1  0.049839  0  0.101301  0.100656  0  1.001828  0
H  H21  1  0.66238126  0.40447568  0.93439411  1  0.050812  0  0.101407  0.100597  0  1.002117  0
H  H22  1  0.32500342  0.69950516  0.56167034  1  0.134621  0  0.132281  0.111184  0  0.968394  0
H  H23  1  0.67496651  0.30048902  0.43827304  1  0.134084  0  0.13222  0.111171  0  0.968513  0
H  H24  1  0.31359092  0.83537526  0.57018671  1  0.088729  0  0.114848  0.119496  0  0.987799  0
H  H25  1  0.68631038  0.16462296  0.42973079  1  0.08763  0  0.114898  0.119507  0  0.988046  0
H  H26  1  0.71079735  0.62024190  0.40667849  1  0.127715  0  0.116315  0.077844  0  1.006954  0
H  H27  1  0.28932311  0.37976020  0.59332229  1  0.126942  0  0.116326  0.07788  0  1.006884  0
C  C28  1  0.50876257  0.49430790  0.36655822  1  1.564003  0  0.214439  0.596159  0  4.164791  0
C  C29  1  0.49126042  0.50568255  0.63344382  1  1.563009  0  0.214358  0.59602  0  4.165131  0
C  C30  1  0.40984174  0.55510731  0.96630473  1  -0.02039  0  -0.092816  -0.129116  0  3.999749  0
C  C31  1  0.59005688  0.44490315  0.03370556  1  -0.022439  0  -0.092708  -0.128613  0  3.999753  0
C  C32  1  0.41100746  0.55413318  0.03697230  1  -0.039015  0  -0.092614  -0.128873  0  3.999873  0
C  C33  1  0.58887871  0.44587775  0.96303869  1  -0.039404  0  -0.092725  -0.128909  0  4.0003  0
C  C34  1  0.50115473  0.49899570  0.07222224  1  -0.017472  0  -0.009368  0.063677  0  4.009196  0
C  C35  1  0.49872576  0.50100750  0.92778898  1  -0.017087  0  -0.009312  0.063914  0  4.00925  0
C  C36  1  0.40468816  0.72977295  0.53246100  1  0.481764  0  0.065421  0.115128  0  3.905036  0
C  C37  1  0.59529476  0.27022509  0.46749888  1  0.482944  0  0.065486  0.114937  0  3.904911  0
C  C38  1  0.39891379  0.80560231  0.53648931  1  0.011056  0  -0.071372  -0.16478  0  3.925122  0
C  C39  1  0.60106490  0.19439517  0.46346760  1  0.010632  0  -0.071503  -0.164744  0  3.925465  0
C  C40  1  0.50435808  0.84242910  0.49835044  1  -0.051001  0  0.01682  0.112208  0  3.997694  0
C  C41  1  0.49565003  0.15756520  0.50162586  1  -0.050453  0  0.01695  0.112067  0  3.997521  0
C  C42  1  0.61238705  0.79931917  0.45798475  1  -0.041712  0  -0.066889  -0.183238  0  3.891096  0
C  C43  1  0.38769566  0.20067160  0.54203867  1  -0.039809  0  -0.06692  -0.183034  0  3.890223  0
C  C44  1  0.61083746  0.72369892  0.45599441  1  0.484049  0  0.121122  0.177142  0  3.935703  0
C  C45  1  0.38926019  0.27629029  0.54403032  1  0.483118  0  0.121022  0.176871  0  3.936214  0
C  C46  1  0.63686314  0.95492102  0.49387235  1  -0.038868  0  -0.082064  -0.116284  0  3.975433  0
C  C47  1  0.36314241  0.04507493  0.50609939  1  -0.038162  0  -0.082138  -0.116463  0  3.975752  0
C  C48  1  0.63501004  0.03072801  0.49407117  1  -0.137098  0  -0.082625  -0.117643  0  3.98074  0
C  C49  1  0.36500157  0.96926634  0.50589948  1  -0.137888  0  -0.08269  -0.117516  0  3.980915  0
C  C50  1  0.79464777  0.47795849  0.49972752  1  1.520537  0  0.212601  0.635797  0  4.163273  0
C  C51  1  0.20541175  0.52204751  0.50029347  1  1.519173  0  0.212496  0.635971  0  4.163504  0
C  C52  1  0.49812011  0.07716650  0.50024553  1  0.075399  0  -0.003543  0.062804  0  3.995631  0
C  C53  1  0.50188953  0.92282558  0.49973790  1  0.076103  0  -0.003564  0.062749  0  3.995514  0
C  C54  1  0.96188543  0.47093632  0.49831163  1  -0.070702  0  -0.079378  -0.166561  0  3.880534  0
C  C55  1  0.03816667  0.52906797  0.50171154  1  0.043781  0  -0.079262  -0.166004  0  3.880128  0
C  C56  1  0.50343399  0.43760495  0.74590853  1  -0.033145  0  -0.084316  -0.082253  0  3.9852  0
C  C57  1  0.49653737  0.56238895  0.25410545  1  -0.03359  0  -0.084422  -0.08228  0  3.985289  0
C  C58  1  0.50566313  0.43650357  0.81652236  1  -0.03844  0  -0.092471  -0.136683  0  3.988898  0
C  C59  1  0.49427896  0.56349892  0.18349296  1  -0.038791  0  -0.092321  -0.136755  0  3.988878  0
C  C60  1  0.49712820  0.50207417  0.85282217  1  -0.024408  0  -0.004745  0.074928  0  4.003348  0
C  C61  1  0.50278336  0.49792978  0.14719006  1  -0.023727  0  -0.004592  0.075388  0  4.002534  0
C  C62  1  0.48679991  0.56882519  0.81572812  1  -0.039492  0  -0.095124  -0.141898  0  3.999109  0
C  C63  1  0.51313389  0.43117620  0.18427466  1  -0.04055  0  -0.09526  -0.142147  0  3.998973  0
C  C64  1  0.48515248  0.56997883  0.74511267  1  -0.092613  0  -0.086402  -0.085956  0  3.999115  0
C  C65  1  0.51482230  0.43001183  0.25489115  1  -0.092369  0  -0.086448  -0.085775  0  3.998788  0
C  C66  1  0.49303803  0.50438763  0.70943275  1  -0.052735  0  -0.021421  -0.039892  0  3.973071  0
C  C67  1  0.50696229  0.49560376  0.29057065  1  -0.053141  0  -0.021443  -0.040049  0  3.9729  0
C  C68  1  0.72476423  0.67901063  0.41037183  1  0.955535  0  0.10994  0.246535  0  3.885941  0
C  C69  1  0.27544185  0.32097973  0.58968365  1  0.957214  0  0.110438  0.247331  0  3.884805  0
N  N70  1  0.50805170  0.68923645  0.49278895  1  -1.227334  0  -0.302899  -0.219455  0  3.45465  0
N  N71  1  0.49200859  0.31075701  0.50720990  1  -1.228112  0  -0.302737  -0.219141  0  3.45469  0
O  O72  1  0.50188462  0.55622964  0.39555918  1  -1.168509  0  -0.321551  -0.565041  0  2.353276  0
O  O73  1  0.49819653  0.44375680  0.60444301  1  -1.167592  0  -0.321528  -0.564987  0  2.353256  0
O  O74  1  0.51704676  0.43205120  0.39696965  1  -1.164841  0  -0.320995  -0.550962  0  2.318887  0
O  O75  1  0.48296048  0.56793969  0.60303162  1  -1.164469  0  -0.320993  -0.550961  0  2.318995  0
O  O76  1  0.72331981  0.54248909  0.50158815  1  -1.173857  0  -0.318777  -0.566141  0  2.35131  0
O  O77  1  0.27672847  0.45751683  0.49843557  1  -1.172849  0  -0.31876  -0.566163  0  2.351615  0
O  O78  1  0.73530221  0.41831666  0.49896733  1  -1.149226  0  -0.319781  -0.54441  0  2.272527  0
O  O79  1  0.26477124  0.58168682  0.50102097  1  -1.149193  0  -0.319694  -0.54465  0  2.272754  0
O  O80  1  0.82540942  0.70693591  0.37908578  1  -1.066414  0  -0.260435  -0.341369  0  2.084653  0
O  O81  1  0.17488771  0.29304101  0.62104671  1  -1.065772  0  -0.261015  -0.342192  0  2.083475  0
