# generated using pymatgen
data_Cu2H3C3Br2N3
_symmetry_space_group_name_H-M   'P 1'
_cell_length_a   6.35646332
_cell_length_b   14.15194936
_cell_length_c   14.15211101
_cell_angle_alpha   120.00045539
_cell_angle_beta   90.00061024
_cell_angle_gamma   89.99904311
_symmetry_Int_Tables_number   1
_chemical_formula_structural   Cu2H3C3Br2N3
_chemical_formula_sum   'Cu12 H18 C18 Br12 N18'
_cell_volume   1102.50781371
_cell_formula_units_Z   6
loop_
 _symmetry_equiv_pos_site_id
 _symmetry_equiv_pos_as_xyz
  1  'x, y, z'
loop_
 _atom_site_type_symbol
 _atom_site_label
 _atom_site_symmetry_multiplicity
 _atom_site_fract_x
 _atom_site_fract_y
 _atom_site_fract_z
 _atom_site_occupancy
 _atom_site_hle17_bader_spin_density
 _atom_site_hle17_ddec_charge
 _atom_site_hle17_ddec_spin_density
 _atom_site_hle17_ddec_sum_bond_order
 _atom_site_hle17_magmom
 _atom_site_hse06_10hf_bader_spin_density
 _atom_site_hse06_10hf_ddec_charge
 _atom_site_hse06_10hf_ddec_spin_density
 _atom_site_hse06_10hf_ddec_sum_bond_order
 _atom_site_hse06_10hf_magmom
 _atom_site_hse06_bader_spin_density
 _atom_site_hse06_ddec_charge
 _atom_site_hse06_ddec_spin_density
 _atom_site_hse06_ddec_sum_bond_order
 _atom_site_hse06_magmom
 _atom_site_pbe_bader_spin_density
 _atom_site_pbe_cm5_charge
 _atom_site_pbe_ddec_charge
 _atom_site_pbe_ddec_spin_density
 _atom_site_pbe_ddec_sum_bond_order
 _atom_site_pbe_magmom
Cu  Cu0  1  0.12331980  0.90196538  0.80392738  1  0  0.433  0  1.970489  0  0  0.346559  0  2.462477  0  0  0.34509  0  2.419395  0  0  0.318736  0.350781  0  2.489175  0
Cu  Cu1  1  0.12333739  0.19608009  0.09804899  1  0  0.433177  0  1.970335  0  0  0.346768  0  2.462297  0  0  0.345254  0  2.419201  0  0  0.318817  0.350979  0  2.488992  0
Cu  Cu2  1  0.12331775  0.90195096  0.09803043  1  0  0.433031  0  1.970511  0  0  0.346529  0  2.462488  0  0  0.345039  0  2.419387  0  0  0.31872  0.350776  0  2.48918  0
Cu  Cu3  1  0.62331969  0.09804941  0.19607739  1  0  0.433057  0  1.970565  0  0  0.346613  0  2.462556  0  0  0.345086  0  2.419447  0  0  0.318765  0.350842  0  2.489248  0
Cu  Cu4  1  0.62333041  0.80390777  0.90195362  1  0  0.433143  0  1.97031  0  0  0.34666  0  2.462323  0  0  0.345199  0  2.419233  0  0  0.318783  0.350893  0  2.489024  0
Cu  Cu5  1  0.62333118  0.09804752  0.90197325  1  0  0.432967  0  1.970462  0  0  0.3465  0  2.462455  0  0  0.344996  0  2.419344  0  0  0.318697  0.350726  0  2.489153  0
Cu  Cu6  1  0.14068359  0.46496240  0.53503462  1  0  0.392914  0  2.047791  0  0  0.296166  0  2.53224  0  0  0.28713  0  2.495066  0  0  0.411679  0.307684  0  2.552976  0
Cu  Cu7  1  0.14068581  0.46496679  0.92992419  1  0  0.392914  0  2.047772  0  0  0.29622  0  2.532213  0  0  0.287181  0  2.495052  0  0  0.411672  0.30774  0  2.552943  0
Cu  Cu8  1  0.14073600  0.07006839  0.53503284  1  0  0.392735  0  2.047869  0  0  0.295964  0  2.532285  0  0  0.286946  0  2.495145  0  0  0.411595  0.307499  0  2.553023  0
Cu  Cu9  1  0.64069534  0.53504088  0.46496592  1  0  0.392934  0  2.047928  0  0  0.296235  0  2.5324  0  0  0.287198  0  2.49524  0  0  0.41172  0.307762  0  2.55314  0
Cu  Cu10  1  0.64070728  0.53502833  0.07007368  1  0  0.392799  0  2.047837  0  0  0.296048  0  2.532346  0  0  0.287027  0  2.495154  0  0  0.411629  0.307568  0  2.553081  0
Cu  Cu11  1  0.64072632  0.92993081  0.46495859  1  0  0.392681  0  2.047814  0  0  0.295951  0  2.532255  0  0  0.286906  0  2.495143  0  0  0.41152  0.30747  0  2.552983  0
H  H12  1  0.95413570  0.67748436  0.65041611  1  0  0.072214  0  0.945878  0  0  0.071465  0  1.026908  0  0  0.077438  0  1.016795  0  0  0.116435  0.066631  0  1.03494  0
H  H13  1  0.95415554  0.34958864  0.02708430  1  0  0.072353  0  0.945878  0  0  0.071636  0  1.026847  0  0  0.077612  0  1.016728  0  0  0.116442  0.066805  0  1.034876  0
H  H14  1  0.95416406  0.97291823  0.32251725  1  0  0.072228  0  0.945761  0  0  0.071518  0  1.026795  0  0  0.077494  0  1.016673  0  0  0.116423  0.066688  0  1.034824  0
H  H15  1  0.45412170  0.32252802  0.34959358  1  0  0.072273  0  0.945832  0  0  0.071565  0  1.026815  0  0  0.077538  0  1.016703  0  0  0.116455  0.066736  0  1.034835  0
H  H16  1  0.45413491  0.65039845  0.97292123  1  0  0.072283  0  0.945908  0  0  0.071564  0  1.026875  0  0  0.077539  0  1.016756  0  0  0.116436  0.066737  0  1.034897  0
H  H17  1  0.45415627  0.02707375  0.67748577  1  0  0.072279  0  0.945863  0  0  0.071577  0  1.026848  0  0  0.077554  0  1.016729  0  0  0.116458  0.066749  0  1.034869  0
H  H18  1  0.95413792  0.34960763  0.32253735  1  0  0.07212  0  0.946065  0  0  0.071391  0  1.027062  0  0  0.077364  0  1.016944  0  0  0.116402  0.066563  0  1.035083  0
H  H19  1  0.95415934  0.97292257  0.65038923  1  0  0.072208  0  0.945888  0  0  0.071496  0  1.026884  0  0  0.07747  0  1.016767  0  0  0.116405  0.06667  0  1.034902  0
H  H20  1  0.95412972  0.67746592  0.02706526  1  0  0.072149  0  0.945999  0  0  0.071436  0  1.026967  0  0  0.07741  0  1.016851  0  0  0.116435  0.06661  0  1.034981  0
H  H21  1  0.45414309  0.65038516  0.67747174  1  0  0.072224  0  0.946053  0  0  0.071487  0  1.027072  0  0  0.077461  0  1.016952  0  0  0.116396  0.066658  0  1.0351  0
H  H22  1  0.45416886  0.02708002  0.34960072  1  0  0.072201  0  0.945928  0  0  0.071486  0  1.026939  0  0  0.077464  0  1.016814  0  0  0.116414  0.066656  0  1.034965  0
H  H23  1  0.45413240  0.32253585  0.97292712  1  0  0.072166  0  0.946021  0  0  0.071414  0  1.027029  0  0  0.077386  0  1.016916  0  0  0.116406  0.066585  0  1.035053  0
H  H24  1  0.01275269  0.46627163  0.73313220  1  0  0.073926  0  0.956627  0  0  0.078175  0  1.029303  0  0  0.082499  0  1.022122  0  0  0.112019  0.07461  0  1.034971  0
H  H25  1  0.01276792  0.26686312  0.73312744  1  0  0.073926  0  0.956438  0  0  0.078154  0  1.029161  0  0  0.082483  0  1.021974  0  0  0.11199  0.07459  0  1.034828  0
H  H26  1  0.01277387  0.26686785  0.53373270  1  0  0.073849  0  0.956628  0  0  0.078087  0  1.02931  0  0  0.082413  0  1.022121  0  0  0.111941  0.074522  0  1.03498  0
H  H27  1  0.51277800  0.53373962  0.26686946  1  0  0.073881  0  0.956662  0  0  0.078101  0  1.029356  0  0  0.082429  0  1.022165  0  0  0.111915  0.074536  0  1.035025  0
H  H28  1  0.51277535  0.73313018  0.26686383  1  0  0.073882  0  0.956553  0  0  0.078119  0  1.029256  0  0  0.082449  0  1.02206  0  0  0.11195  0.074553  0  1.034921  0
H  H29  1  0.51277884  0.73313278  0.46626648  1  0  0.073925  0  0.956565  0  0  0.078161  0  1.029259  0  0  0.082491  0  1.022062  0  0  0.111964  0.074597  0  1.034926  0
C  C30  1  0.38932982  0.62214928  0.89186226  1  0  0.34225  0  3.609927  0  0  0.281645  0  3.88306  0  0  0.307571  0  3.880442  0  0  0.176849  0.263506  0  3.886785  0
C  C31  1  0.38933128  0.10813371  0.73028375  1  0  0.342255  0  3.609865  0  0  0.281565  0  3.883122  0  0  0.307487  0  3.880495  0  0  0.176932  0.263428  0  3.886851  0
C  C32  1  0.38933235  0.26970546  0.37784177  1  0  0.342369  0  3.610088  0  0  0.281731  0  3.883259  0  0  0.307636  0  3.880649  0  0  0.176925  0.263606  0  3.886974  0
C  C33  1  0.88934452  0.37784627  0.10814289  1  0  0.342174  0  3.609647  0  0  0.281573  0  3.882843  0  0  0.307496  0  3.880219  0  0  0.176895  0.26342  0  3.886559  0
C  C34  1  0.88934778  0.89185532  0.26970401  1  0  0.342561  0  3.609636  0  0  0.281868  0  3.882916  0  0  0.30779  0  3.880287  0  0  0.177072  0.263732  0  3.886649  0
C  C35  1  0.88934671  0.73030479  0.62216366  1  0  0.34249  0  3.61013  0  0  0.281991  0  3.883199  0  0  0.307895  0  3.880588  0  0  0.177049  0.263848  0  3.886905  0
C  C36  1  0.38935464  0.10813914  0.37784647  1  0  0.342588  0  3.609467  0  0  0.281958  0  3.88271  0  0  0.307884  0  3.880077  0  0  0.177074  0.263819  0  3.886434  0
C  C37  1  0.38935773  0.26969852  0.89186197  1  0  0.34259  0  3.609945  0  0  0.282104  0  3.882956  0  0  0.308017  0  3.880339  0  0  0.177156  0.263974  0  3.886667  0
C  C38  1  0.38934872  0.62215079  0.73029206  1  0  0.342556  0  3.609865  0  0  0.281922  0  3.882983  0  0  0.307847  0  3.880361  0  0  0.177032  0.263778  0  3.886711  0
C  C39  1  0.88935431  0.89186376  0.62214610  1  0  0.342421  0  3.60955  0  0  0.281765  0  3.882799  0  0  0.307689  0  3.880169  0  0  0.176976  0.263611  0  3.886523  0
C  C40  1  0.88934493  0.73029133  0.10813114  1  0  0.342787  0  3.60994  0  0  0.282172  0  3.883033  0  0  0.308086  0  3.880411  0  0  0.17713  0.264046  0  3.886767  0
C  C41  1  0.88935393  0.37784477  0.26971309  1  0  0.342612  0  3.609532  0  0  0.28203  0  3.882676  0  0  0.307948  0  3.88005  0  0  0.176962  0.263882  0  3.886392  0
C  C42  1  0.15238452  0.51804884  0.75901911  1  0  0.330222  0  3.60772  0  0  0.271741  0  3.871295  0  0  0.297006  0  3.87034  0  0  0.172741  0.254326  0  3.873768  0
C  C43  1  0.15240297  0.24098627  0.75903025  1  0  0.330262  0  3.60772  0  0  0.27183  0  3.87131  0  0  0.297082  0  3.870368  0  0  0.172856  0.254417  0  3.873789  0
C  C44  1  0.15240346  0.24097708  0.48195180  1  0  0.33023  0  3.607826  0  0  0.27181  0  3.871329  0  0  0.297076  0  3.870376  0  0  0.172757  0.254387  0  3.873808  0
C  C45  1  0.65240208  0.48195847  0.24098703  1  0  0.330116  0  3.607547  0  0  0.271721  0  3.871012  0  0  0.296985  0  3.870066  0  0  0.172782  0.254303  0  3.873498  0
C  C46  1  0.65241510  0.75901532  0.24096809  1  0  0.330392  0  3.608207  0  0  0.272  0  3.871795  0  0  0.297257  0  3.87085  0  0  0.17295  0.254578  0  3.874265  0
C  C47  1  0.65241618  0.75902207  0.51804744  1  0  0.330259  0  3.608031  0  0  0.271857  0  3.871607  0  0  0.297118  0  3.87066  0  0  0.172839  0.254441  0  3.874084  0
Br  Br48  1  0.00055004  0.80967793  0.90483128  1  0  -0.483113  0  1.703425  0  0  -0.414012  0  2.18855  0  0  -0.431429  0  2.144485  0  0  -0.241384  -0.401795  0  2.217248  0
Br  Br49  1  0.00055256  0.09515409  0.90486051  1  0  -0.483176  0  1.703603  0  0  -0.41406  0  2.188682  0  0  -0.431454  0  2.144589  0  0  -0.241401  -0.401845  0  2.217384  0
Br  Br50  1  0.00052526  0.09514292  0.19029864  1  0  -0.483187  0  1.703553  0  0  -0.414061  0  2.188604  0  0  -0.431443  0  2.144498  0  0  -0.241415  -0.401844  0  2.2173  0
Br  Br51  1  0.50055039  0.19033093  0.09517054  1  0  -0.48315  0  1.703439  0  0  -0.414084  0  2.188584  0  0  -0.431465  0  2.144481  0  0  -0.241416  -0.401861  0  2.217277  0
Br  Br52  1  0.50052270  0.90486293  0.09513619  1  0  -0.483149  0  1.703541  0  0  -0.414026  0  2.188638  0  0  -0.431418  0  2.144542  0  0  -0.241399  -0.401812  0  2.217333  0
Br  Br53  1  0.50054056  0.90486512  0.80971054  1  0  -0.483196  0  1.703507  0  0  -0.414089  0  2.188597  0  0  -0.431497  0  2.144522  0  0  -0.241414  -0.401875  0  2.217302  0
Br  Br54  1  0.75204633  0.44039971  0.55960038  1  0  -0.517675  0  1.277252  0  0  -0.456947  0  1.655298  0  0  -0.476827  0  1.626048  0  0  -0.276104  -0.441951  0  1.672782  0
Br  Br55  1  0.75204312  0.44039670  0.88079760  1  0  -0.517627  0  1.277199  0  0  -0.456901  0  1.65527  0  0  -0.47679  0  1.626026  0  0  -0.276088  -0.441906  0  1.67275  0
Br  Br56  1  0.75207987  0.11920084  0.55959942  1  0  -0.517597  0  1.277294  0  0  -0.456821  0  1.655303  0  0  -0.476707  0  1.626067  0  0  -0.276067  -0.441833  0  1.672788  0
Br  Br57  1  0.25205394  0.55960141  0.44040182  1  0  -0.517684  0  1.277279  0  0  -0.456942  0  1.655308  0  0  -0.476827  0  1.626066  0  0  -0.276098  -0.441945  0  1.672789  0
Br  Br58  1  0.25205558  0.55959463  0.11919547  1  0  -0.51766  0  1.277255  0  0  -0.456923  0  1.655308  0  0  -0.476814  0  1.626066  0  0  -0.2761  -0.441932  0  1.672788  0
Br  Br59  1  0.25208333  0.88079701  0.44039691  1  0  -0.517618  0  1.277384  0  0  -0.456828  0  1.655387  0  0  -0.476715  0  1.626146  0  0  -0.276066  -0.44184  0  1.672871  0
N  N60  1  0.23334967  0.54821705  0.85773552  1  0  -0.352485  0  3.328359  0  0  -0.274981  0  3.625581  0  0  -0.29034  0  3.624432  0  0  -0.360853  -0.267019  0  3.627732  0
N  N61  1  0.23339126  0.14226456  0.69048939  1  0  -0.352383  0  3.328477  0  0  -0.274835  0  3.625681  0  0  -0.290203  0  3.624548  0  0  -0.360835  -0.266892  0  3.627864  0
N  N62  1  0.23335397  0.30951693  0.45178355  1  0  -0.352489  0  3.328433  0  0  -0.274938  0  3.62558  0  0  -0.290294  0  3.624438  0  0  -0.360803  -0.266975  0  3.627731  0
N  N63  1  0.73337133  0.45178497  0.14226491  1  0  -0.352381  0  3.328128  0  0  -0.274867  0  3.62528  0  0  -0.29023  0  3.624142  0  0  -0.360833  -0.266911  0  3.627448  0
N  N64  1  0.73338323  0.85772114  0.30950146  1  0  -0.352541  0  3.328474  0  0  -0.275148  0  3.625855  0  0  -0.29051  0  3.624704  0  0  -0.360904  -0.267157  0  3.627978  0
N  N65  1  0.73335601  0.69049243  0.54822126  1  0  -0.352583  0  3.32845  0  0  -0.275253  0  3.625795  0  0  -0.290611  0  3.624652  0  0  -0.360948  -0.267288  0  3.627946  0
N  N66  1  0.23338110  0.14227661  0.45178969  1  0  -0.352534  0  3.328481  0  0  -0.275081  0  3.625764  0  0  -0.290443  0  3.624608  0  0  -0.360859  -0.267112  0  3.627917  0
N  N67  1  0.23332797  0.30950991  0.85771241  1  0  -0.352661  0  3.328318  0  0  -0.275276  0  3.625609  0  0  -0.290625  0  3.62445  0  0  -0.360983  -0.267308  0  3.627747  0
N  N68  1  0.23334334  0.54820305  0.69047856  1  0  -0.352584  0  3.328533  0  0  -0.27503  0  3.625689  0  0  -0.290385  0  3.624541  0  0  -0.360884  -0.267062  0  3.627835  0
N  N69  1  0.73338237  0.85772296  0.54820810  1  0  -0.352462  0  3.328543  0  0  -0.274939  0  3.625748  0  0  -0.290299  0  3.624593  0  0  -0.360805  -0.26698  0  3.627913  0
N  N70  1  0.73335212  0.69048967  0.14227619  1  0  -0.352622  0  3.328552  0  0  -0.275183  0  3.625822  0  0  -0.290542  0  3.624675  0  0  -0.360925  -0.267216  0  3.62797  0
N  N71  1  0.73334619  0.45180223  0.30953340  1  0  -0.352534  0  3.328141  0  0  -0.275033  0  3.625306  0  0  -0.290385  0  3.624156  0  0  -0.360877  -0.267085  0  3.627483  0
N  N72  1  0.46389496  0.66554042  0.83276517  1  0  -0.353614  0  3.315796  0  0  -0.278354  0  3.617281  0  0  -0.293226  0  3.615873  0  0  -0.362728  -0.270326  0  3.619398  0
N  N73  1  0.46388190  0.16724964  0.83279363  1  0  -0.353413  0  3.315899  0  0  -0.278192  0  3.617396  0  0  -0.293034  0  3.615942  0  0  -0.362797  -0.270162  0  3.619506  0
N  N74  1  0.46389443  0.16723538  0.33445377  1  0  -0.353575  0  3.315687  0  0  -0.278365  0  3.617266  0  0  -0.293205  0  3.615812  0  0  -0.362805  -0.270347  0  3.619385  0
N  N75  1  0.96391105  0.33444744  0.16724362  1  0  -0.353593  0  3.315578  0  0  -0.278448  0  3.617183  0  0  -0.293287  0  3.615727  0  0  -0.362785  -0.270373  0  3.619247  0
N  N76  1  0.96387849  0.83275535  0.16721525  1  0  -0.353833  0  3.316249  0  0  -0.278468  0  3.61769  0  0  -0.293318  0  3.616244  0  0  -0.362887  -0.270488  0  3.619854  0
N  N77  1  0.96388956  0.83276716  0.66554470  1  0  -0.353454  0  3.315755  0  0  -0.278243  0  3.61727  0  0  -0.293092  0  3.615837  0  0  -0.362732  -0.270179  0  3.61935  0
