# generated using pymatgen
data_NiH6(CO3)2
_symmetry_space_group_name_H-M   'P 1'
_cell_length_a   6.95418907
_cell_length_b   8.60365801
_cell_length_c   9.28488560
_cell_angle_alpha   98.05836126
_cell_angle_beta   89.99977981
_cell_angle_gamma   89.99995597
_symmetry_Int_Tables_number   1
_chemical_formula_structural   NiH6(CO3)2
_chemical_formula_sum   'Ni4 H24 C8 O24'
_cell_volume   550.04290190
_cell_formula_units_Z   4
loop_
 _symmetry_equiv_pos_site_id
 _symmetry_equiv_pos_as_xyz
  1  'x, y, z'
loop_
 _atom_site_type_symbol
 _atom_site_label
 _atom_site_symmetry_multiplicity
 _atom_site_fract_x
 _atom_site_fract_y
 _atom_site_fract_z
 _atom_site_occupancy
 _atom_site_hle17_ddec_charge
 _atom_site_hle17_ddec_spin_density
 _atom_site_hle17_ddec_sum_bond_order
 _atom_site_hle17_magmom
 _atom_site_hse06_10hf_ddec_charge
 _atom_site_hse06_10hf_ddec_spin_density
 _atom_site_hse06_10hf_ddec_sum_bond_order
 _atom_site_hse06_10hf_magmom
 _atom_site_hse06_ddec_charge
 _atom_site_hse06_ddec_spin_density
 _atom_site_hse06_ddec_sum_bond_order
 _atom_site_hse06_magmom
 _atom_site_pbe_cm5_charge
 _atom_site_pbe_ddec_charge
 _atom_site_pbe_ddec_spin_density
 _atom_site_pbe_ddec_sum_bond_order
 _atom_site_pbe_magmom
Ni  Ni0  1  0.00000143  0.49999804  0.49999917  1  0.957743  1.813604  1.843141  1.542  0.959081  1.863321  2.228636  1.67  1.043525  1.916782  2.169049  1.75  0.620603  0.881873  1.812534  2.292657  1.6
Ni  Ni1  1  0.50000246  0.50000153  0.99999925  1  0.957714  1.813609  1.843168  1.542  0.959046  1.863321  2.228666  1.67  1.043516  1.916791  2.169077  1.75  0.62063  0.881872  1.812542  2.292634  1.6
Ni  Ni2  1  0.49999908  0.99999911  0.49999969  1  1.048799  -1.832111  1.768294  -1.568  1.058357  -1.873467  2.149361  -1.685  1.135338  -1.92163  2.08666  -1.757  0.616388  0.99262  -1.826112  2.204469  -1.62
Ni  Ni3  1  0.00000141  0.99999842  0.99999972  1  1.048699  -1.832088  1.768297  -1.568  1.058208  -1.873448  2.149366  -1.685  1.135225  -1.921632  2.086656  -1.757  0.61634  0.992555  -1.826105  2.204373  -1.62
H  H4  1  0.39608604  0.19972614  0.72908431  1  0.419828  -6.1e-05  0.882667  0.0  0.392558  -0.00028  0.941571  -0.001  0.404358  -0.000203  0.92446  0.0  0.295405  0.383656  -0.000298  0.954451  -0.001
H  H5  1  0.89610079  0.80027884  0.77090818  1  0.419774  -6e-05  0.882714  0.0  0.392513  -0.00028  0.941593  -0.001  0.404307  -0.000203  0.924497  0.0  0.295392  0.38361  -0.000298  0.954473  -0.001
H  H6  1  0.60391263  0.80027293  0.27091394  1  0.419815  -6e-05  0.882682  0.0  0.392542  -0.00028  0.941583  -0.001  0.40434  -0.000202  0.924478  0.0  0.295413  0.38364  -0.000298  0.954462  -0.001
H  H7  1  0.10389932  0.19972142  0.22909453  1  0.419791  -6.1e-05  0.8827  0.0  0.392512  -0.00028  0.941604  -0.001  0.404306  -0.000203  0.924508  0.0  0.295394  0.383612  -0.000298  0.954481  -0.001
H  H8  1  0.33737035  0.03076749  0.76728623  1  0.427136  -0.000513  0.872516  -0.001  0.402633  -0.000573  0.925796  -0.001  0.413985  -0.00039  0.909687  -0.001  0.294859  0.394107  -0.000688  0.93782  -0.001
H  H9  1  0.83738080  0.96922700  0.73270728  1  0.427142  -0.000513  0.87252  -0.001  0.402634  -0.000573  0.925809  -0.001  0.413985  -0.00039  0.909703  -0.001  0.294893  0.394107  -0.000688  0.937835  -0.001
H  H10  1  0.66262833  0.96923159  0.23271418  1  0.427114  -0.000512  0.872548  -0.001  0.402605  -0.000573  0.925837  -0.001  0.413955  -0.00039  0.909732  -0.001  0.294854  0.394082  -0.000688  0.937858  -0.001
H  H11  1  0.16261931  0.03077325  0.26729219  1  0.427126  -0.000513  0.872537  -0.001  0.402615  -0.000573  0.92583  -0.001  0.413966  -0.00039  0.909725  -0.001  0.294889  0.394089  -0.000688  0.937856  -0.001
H  H12  1  0.61211330  0.25902311  0.44828448  1  0.405385  0.000424  0.904749  0.001  0.376495  -3.1e-05  0.968759  0.0  0.388454  3.4e-05  0.951639  0.0  0.288041  0.367897  -7.9e-05  0.980899  0.0
H  H13  1  0.11211321  0.74097582  0.05170407  1  0.405434  0.000425  0.904639  0.001  0.3765  -3.1e-05  0.968771  0.0  0.388461  3.4e-05  0.95165  0.0  0.288019  0.367903  -7.9e-05  0.980911  0.0
H  H14  1  0.38788825  0.74097714  0.55171500  1  0.405402  0.000425  0.904753  0.001  0.376513  -3.1e-05  0.968741  0.0  0.388472  3.4e-05  0.951622  0.0  0.288046  0.367915  -7.9e-05  0.980882  0.0
H  H15  1  0.88788690  0.25902209  0.94829619  1  0.405422  0.000425  0.904652  0.001  0.376499  -3.1e-05  0.968769  0.0  0.388459  3.4e-05  0.951649  0.0  0.288012  0.367901  -7.9e-05  0.980909  0.0
H  H16  1  0.38858607  0.28356653  0.48253317  1  0.42106  0.000213  0.879626  0.001  0.395063  -0.000198  0.935726  0.0  0.406645  -0.000115  0.919259  0.0  0.294743  0.386797  -0.000255  0.947391  0.0
H  H17  1  0.88859493  0.71643095  0.01745650  1  0.421058  0.000214  0.879612  0.001  0.39515  -0.000197  0.93556  0.0  0.406727  -0.000114  0.919103  0.0  0.29483  0.386885  -0.000254  0.947225  0.0
H  H18  1  0.61141548  0.71643253  0.51746400  1  0.421026  0.000214  0.879666  0.001  0.395044  -0.000198  0.935729  0.0  0.406621  -0.000115  0.919272  0.0  0.294745  0.386777  -0.000255  0.947395  0.0
H  H19  1  0.11140231  0.28357165  0.98254219  1  0.421093  0.000214  0.87956  0.001  0.395112  -0.000197  0.935635  0.0  0.406693  -0.000114  0.91917  0.0  0.294792  0.386848  -0.000254  0.947299  0.0
H  H20  1  0.03587465  0.17229473  0.61892712  1  0.041709  -0.003144  0.941752  -0.005  0.043809  -0.001947  1.01628  -0.003  0.043466  -0.001363  1.012199  -0.002  0.119034  0.044239  -0.00257  1.019435  -0.003
H  H21  1  0.53588598  0.82771072  0.88108163  1  0.041766  -0.003143  0.941895  -0.005  0.043844  -0.001947  1.016427  -0.003  0.043503  -0.001363  1.012343  -0.002  0.119022  0.044272  -0.00257  1.01958  -0.003
H  H22  1  0.96412833  0.82770319  0.38107530  1  0.041745  -0.003139  0.941738  -0.005  0.043856  -0.001947  1.016249  -0.003  0.043514  -0.001363  1.012169  -0.002  0.119053  0.044288  -0.00257  1.019404  -0.003
H  H23  1  0.46411413  0.17228250  0.11891912  1  0.041839  -0.003139  0.941803  -0.005  0.043885  -0.001947  1.016346  -0.003  0.043542  -0.001363  1.01227  -0.002  0.119033  0.044316  -0.00257  1.0195  -0.003
H  H24  1  0.72298385  0.41965212  0.73133155  1  0.03069  0.000543  0.956638  0.002  0.035423  9.8e-05  1.027552  0.001  0.03545  -7.4e-05  1.023439  0.0  0.121146  0.035349  0.000271  1.030452  0.001
H  H25  1  0.22299583  0.58034484  0.76866155  1  0.03058  0.000545  0.956787  0.002  0.035436  9.8e-05  1.027554  0.001  0.035461  -7.4e-05  1.023444  0.0  0.121152  0.035362  0.000271  1.030452  0.001
H  H26  1  0.27701626  0.58035168  0.26867376  1  0.030674  0.000539  0.956633  0.002  0.03539  9.8e-05  1.027571  0.001  0.035418  -7.4e-05  1.023458  0.0  0.121132  0.035317  0.000271  1.030471  0.001
H  H27  1  0.77700428  0.41965187  0.23133426  1  0.030593  0.000543  0.956754  0.002  0.035424  9.8e-05  1.02755  0.001  0.035451  -7.4e-05  1.023437  0.0  0.121155  0.035352  0.000271  1.030451  0.001
C  C28  1  0.88977735  0.17406125  0.57232435  1  0.589038  0.000134  3.801373  0.0  0.523565  -0.000144  4.114072  0.0  0.56093  -3.1e-05  4.105658  0.0  0.161025  0.496275  -0.000303  4.118272  0.0
C  C29  1  0.38978832  0.82594731  0.92767722  1  0.588646  0.000133  3.80191  0.0  0.52318  -0.000143  4.114628  0.0  0.560542  -3e-05  4.106222  0.0  0.160826  0.495892  -0.000303  4.11882  0.0
C  C30  1  0.11022420  0.82593784  0.42767821  1  0.589034  0.000117  3.801452  0.0  0.523539  -0.000144  4.11418  0.0  0.560901  -3e-05  4.105771  0.0  0.161038  0.496248  -0.000303  4.118381  0.0
C  C31  1  0.61020892  0.17405645  0.07232054  1  0.588666  0.000121  3.80194  0.0  0.523246  -0.000143  4.114638  0.0  0.560608  -3.1e-05  4.106232  0.0  0.160875  0.495958  -0.000303  4.118834  0.0
C  C32  1  0.78801354  0.53104251  0.78047928  1  0.584303  -0.006781  3.812177  -0.011  0.514835  -0.001872  4.123249  -0.004  0.552855  -0.001528  4.114411  -0.003  0.156955  0.487243  -0.002227  4.128151  -0.005
C  C33  1  0.28801581  0.46894972  0.71952165  1  0.584416  -0.006794  3.812355  -0.011  0.514862  -0.001871  4.123438  -0.004  0.552881  -0.001528  4.114602  -0.003  0.156931  0.48727  -0.002227  4.128337  -0.005
C  C34  1  0.21198513  0.46896244  0.21952295  1  0.584412  -0.006774  3.812124  -0.011  0.514939  -0.001871  4.123194  -0.004  0.552958  -0.001528  4.114357  -0.003  0.156996  0.487351  -0.002227  4.128098  -0.005
C  C35  1  0.71198430  0.53104818  0.28047754  1  0.584438  -0.006787  3.81224  -0.011  0.514909  -0.001871  4.123314  -0.004  0.552928  -0.001528  4.114479  -0.003  0.156965  0.487317  -0.002227  4.128221  -0.005
O  O36  1  0.90669898  0.59914399  0.70624882  1  -0.567164  0.046428  2.167164  0.075  -0.52205  0.030987  2.431542  0.051  -0.558329  0.023869  2.42123  0.04  -0.294256  -0.493782  0.036478  2.438987  0.059
O  O37  1  0.40669521  0.40085163  0.79375108  1  -0.567176  0.046433  2.167329  0.075  -0.522029  0.030986  2.431721  0.051  -0.558313  0.023867  2.421405  0.04  -0.294206  -0.493773  0.036475  2.439183  0.059
O  O38  1  0.09330401  0.40085508  0.29374943  1  -0.567199  0.046429  2.167147  0.075  -0.52208  0.030987  2.431528  0.051  -0.558359  0.023869  2.421213  0.04  -0.294266  -0.493813  0.036475  2.438984  0.059
O  O39  1  0.59330634  0.59914627  0.20624810  1  -0.567222  0.046431  2.167276  0.075  -0.522067  0.030986  2.431658  0.051  -0.558355  0.023868  2.421345  0.04  -0.294259  -0.493806  0.036474  2.439115  0.059
O  O40  1  0.73935620  0.58698073  0.90951978  1  -0.572395  0.046519  2.166029  0.075  -0.526654  0.030242  2.430168  0.05  -0.563501  0.023327  2.419807  0.039  -0.299939  -0.498169  0.03606  2.437397  0.058
O  O41  1  0.23935914  0.41301388  0.59047728  1  -0.572478  0.046523  2.165985  0.075  -0.526697  0.030242  2.430162  0.05  -0.563539  0.023328  2.419797  0.039  -0.299946  -0.498206  0.036061  2.437397  0.058
O  O42  1  0.26063672  0.41302890  0.09047872  1  -0.572502  0.046518  2.165915  0.075  -0.526712  0.03024  2.430046  0.05  -0.56356  0.023326  2.419685  0.039  -0.299948  -0.498229  0.036056  2.437293  0.058
O  O43  1  0.76064097  0.58698402  0.40952190  1  -0.572456  0.04652  2.165959  0.075  -0.526701  0.030241  2.430128  0.05  -0.563538  0.023327  2.419764  0.039  -0.299925  -0.49821  0.036058  2.437371  0.058
O  O44  1  0.84344567  0.28692836  0.50303088  1  -0.589779  0.042118  2.121979  0.068  -0.550415  0.028132  2.389849  0.046  -0.587066  0.021624  2.379399  0.036  -0.305747  -0.520111  0.034178  2.395509  0.055
O  O45  1  0.34346218  0.71308018  0.99695791  1  -0.58945  0.042108  2.122153  0.068  -0.550082  0.028129  2.390051  0.046  -0.58673  0.021622  2.379601  0.036  -0.305589  -0.519794  0.034174  2.395728  0.055
O  O46  1  0.15655732  0.71307308  0.49697198  1  -0.58979  0.042114  2.122016  0.068  -0.550422  0.02813  2.389903  0.046  -0.587078  0.021623  2.379475  0.036  -0.305779  -0.520115  0.034176  2.395561  0.055
O  O47  1  0.65653793  0.28692360  0.00304309  1  -0.589493  0.042106  2.122204  0.068  -0.550158  0.028128  2.390113  0.046  -0.586805  0.021621  2.379663  0.036  -0.305647  -0.519867  0.034172  2.395793  0.055
O  O48  1  0.77715459  0.06279471  0.59241633  1  -0.575342  -0.035722  2.118568  -0.059  -0.530731  -0.023802  2.373878  -0.04  -0.566693  -0.018638  2.36322  -0.031  -0.293497  -0.502741  -0.028745  2.380952  -0.047
O  O49  1  0.27716842  0.93721750  0.90758821  1  -0.575289  -0.035723  2.11865  -0.059  -0.530637  -0.023804  2.373905  -0.04  -0.566607  -0.01864  2.363251  -0.031  -0.293439  -0.502657  -0.028747  2.380962  -0.047
O  O50  1  0.22284408  0.93720555  0.40758423  1  -0.575383  -0.035715  2.118627  -0.059  -0.530756  -0.023803  2.373942  -0.04  -0.566716  -0.018639  2.363287  -0.031  -0.293509  -0.502766  -0.028746  2.381019  -0.047
O  O51  1  0.72282594  0.06278392  0.09241034  1  -0.575337  -0.035717  2.118714  -0.059  -0.530689  -0.023804  2.373956  -0.04  -0.566658  -0.018639  2.363305  -0.031  -0.293435  -0.502705  -0.028746  2.381012  -0.047
O  O52  1  0.35919908  0.09230192  0.68517055  1  -0.823163  -0.037119  1.96974  -0.059  -0.795707  -0.025812  2.174362  -0.041  -0.823506  -0.020616  2.137905  -0.033  -0.580158  -0.773319  -0.030188  2.201273  -0.047
O  O53  1  0.85921064  0.90770079  0.81482823  1  -0.823103  -0.037116  1.969812  -0.059  -0.795614  -0.025809  2.174422  -0.041  -0.823416  -0.020613  2.137969  -0.033  -0.580167  -0.773244  -0.030184  2.201317  -0.047
O  O54  1  0.64080535  0.90769715  0.31482878  1  -0.823123  -0.037122  1.969723  -0.059  -0.79567  -0.025812  2.17439  -0.041  -0.823468  -0.020617  2.137934  -0.033  -0.580172  -0.773281  -0.030187  2.201299  -0.047
O  O55  1  0.14078803  0.09230064  0.18517247  1  -0.823106  -0.037115  1.969824  -0.059  -0.795589  -0.025808  2.174439  -0.041  -0.823391  -0.020613  2.137986  -0.033  -0.580159  -0.773214  -0.030181  2.201333  -0.047
O  O56  1  0.48158056  0.21480134  0.42208444  1  -0.794552  -0.043786  1.916402  -0.068  -0.767575  -0.029729  2.111534  -0.046  -0.796514  -0.023473  2.076757  -0.037  -0.576146  -0.744722  -0.034842  2.136419  -0.053
O  O57  1  0.98158043  0.78518557  0.07792194  1  -0.794526  -0.043788  1.916226  -0.068  -0.767615  -0.029732  2.11138  -0.046  -0.796556  -0.023473  2.076606  -0.037  -0.57615  -0.744776  -0.034846  2.136248  -0.053
O  O58  1  0.51842243  0.78519539  0.57791460  1  -0.794504  -0.043787  1.916351  -0.068  -0.767555  -0.029729  2.111525  -0.046  -0.796489  -0.023472  2.076752  -0.037  -0.576148  -0.744711  -0.034843  2.136422  -0.053
O  O59  1  0.01841968  0.21481233  0.92207833  1  -0.794575  -0.043789  1.916192  -0.068  -0.767614  -0.029731  2.111353  -0.046  -0.796557  -0.023473  2.076576  -0.037  -0.576139  -0.744782  -0.034845  2.136233  -0.053
