# generated using pymatgen
data_Zn2H24C15N3O8
_symmetry_space_group_name_H-M   'P 1'
_cell_length_a   15.50354689
_cell_length_b   15.53778071
_cell_length_c   17.42415731
_cell_angle_alpha   91.83695598
_cell_angle_beta   117.26251457
_cell_angle_gamma   116.36380716
_symmetry_Int_Tables_number   1
_chemical_formula_structural   Zn2H24C15N3O8
_chemical_formula_sum   'Zn8 H96 C60 N12 O32'
_cell_volume   3193.56990807
_cell_formula_units_Z   4
loop_
 _symmetry_equiv_pos_site_id
 _symmetry_equiv_pos_as_xyz
  1  'x, y, z'
loop_
 _atom_site_type_symbol
 _atom_site_label
 _atom_site_symmetry_multiplicity
 _atom_site_fract_x
 _atom_site_fract_y
 _atom_site_fract_z
 _atom_site_occupancy
 _atom_site_pbe_bader_charge
 _atom_site_pbe_bader_spin_density
 _atom_site_pbe_cm5_charge
 _atom_site_pbe_ddec_charge
 _atom_site_pbe_ddec_spin_density
 _atom_site_pbe_ddec_sum_bond_order
 _atom_site_pbe_magmom
Zn  Zn0  1  0.84008464  0.82720450  0.99985903  1  1.311954  0  0.665542  0.955513  0  2.370261  0
Zn  Zn1  1  0.86935483  0.78870756  0.83783625  1  1.311811  0  0.673949  0.953271  0  2.429288  0
Zn  Zn2  1  0.08455089  0.87147978  0.04098255  1  1.314278  0  0.668389  0.960143  0  2.357058  0
Zn  Zn3  1  0.99276444  0.01364860  0.95370114  1  1.312269  0  0.666705  0.956362  0  2.411896  0
Zn  Zn4  1  0.05646178  0.41957834  0.42158290  1  1.312301  0  0.681445  0.952459  0  2.429057  0
Zn  Zn5  1  0.04552416  0.41402697  0.59496532  1  1.316876  0  0.682838  0.966424  0  2.371447  0
Zn  Zn6  1  0.84677100  0.22885307  0.41074168  1  1.315449  0  0.681427  0.971703  0  2.309038  0
Zn  Zn7  1  0.86990825  0.45065283  0.43031376  1  1.319057  0  0.681998  0.973365  0  2.318488  0
H  H8  1  0.56772870  0.50980573  0.74478405  1  0.078273  0  0.112418  0.138203  0  0.961431  0
H  H9  1  0.54088997  0.51771386  0.83340645  1  0.06188  0  0.101891  0.115599  0  1.000454  0
H  H10  1  0.42024207  0.58145696  0.75810710  1  0.050896  0  0.09807  0.09786  0  0.982912  0
H  H11  1  0.48697533  0.63359879  0.69775163  1  0.04287  0  0.098565  0.100139  0  0.973244  0
H  H12  1  0.35399600  0.40540927  0.66004247  1  0.1331  0  0.127512  0.103847  0  1.003969  0
H  H13  1  0.37922162  0.50772318  0.52654487  1  0.458923  0  0.29958  0.249598  0  1.013246  0
H  H14  1  0.33673522  0.29705847  0.41617656  1  0.067815  0  0.102761  0.057834  0  0.959748  0
H  H15  1  0.31980423  0.42905194  0.33819965  1  0.386635  0  0.278955  0.263959  0  0.998539  0
H  H16  1  0.24324296  0.39077645  0.38384919  1  0.396696  0  0.280909  0.268545  0  0.985285  0
H  H17  1  0.55542825  0.50046990  0.49658310  1  0.013499  0  0.093722  0.05882  0  0.947921  0
H  H18  1  0.46155153  0.47246406  0.33206021  1  -0.00112  0  0.084634  0.10941  0  1.0148  0
H  H19  1  0.56354284  0.43634541  0.36370203  1  0.04084  0  0.090484  0.128859  0  0.998186  0
H  H20  1  0.41818690  0.34268481  0.31243045  1  0.018932  0  0.083744  0.108554  0  1.019931  0
H  H21  1  0.56891823  0.36165809  0.56478518  1  0.0594  0  0.091171  0.133037  0  1.013499  0
H  H22  1  0.64104380  0.39595488  0.50496198  1  0.012132  0  0.082093  0.113184  0  1.011849  0
H  H23  1  0.50619863  0.28387629  0.45585495  1  -0.026603  0  0.083306  0.110829  0  1.00661  0
H  H24  1  0.12969225  0.83409880  0.29443241  1  0.071847  0  0.10609  0.123687  0  0.971165  0
H  H25  1  0.00141710  0.81533411  0.28325912  1  0.052151  0  0.101198  0.114903  0  0.98001  0
H  H26  1  0.90719114  0.63471744  0.22395290  1  0.010194  0  0.107488  0.114437  0  0.954166  0
H  H27  1  0.01132102  0.64361460  0.20233542  1  0.050938  0  0.10216  0.103508  0  0.97333  0
H  H28  1  0.07091056  0.72419205  0.39275428  1  0.090973  0  0.120807  0.08259  0  0.992706  0
H  H29  1  0.19469135  0.68968862  0.31940275  1  0.46265  0  0.314979  0.269081  0  0.955527  0
H  H30  1  0.42245063  0.74499797  0.54256233  1  0.023569  0  0.101246  0.057793  0  0.964096  0
H  H31  1  0.42945140  0.67586994  0.41548149  1  0.384984  0  0.280015  0.26284  0  0.99048  0
H  H32  1  0.32272281  0.59299692  0.41990086  1  0.413398  0  0.275592  0.264954  0  0.999745  0
H  H33  1  0.38641104  0.83599649  0.38562383  1  0.038888  0  0.092267  0.054048  0  0.961175  0
H  H34  1  0.55404429  0.81559771  0.44104951  1  0.003428  0  0.085639  0.108828  0  1.017135  0
H  H35  1  0.59878107  0.94375801  0.47448411  1  0.047622  0  0.089867  0.122233  0  0.999276  0
H  H36  1  0.60521090  0.87471584  0.55445302  1  0.030371  0  0.087115  0.115487  0  1.001423  0
H  H37  1  0.35601394  0.91230664  0.49276314  1  0.036586  0  0.086986  0.118802  0  1.017885  0
H  H38  1  0.48556872  0.99940716  0.50236520  1  0.027581  0  0.088694  0.120434  0  0.997974  0
H  H39  1  0.48619459  0.93572526  0.58539812  1  0.00141  0  0.091994  0.126611  0  0.989893  0
H  H40  1  0.83556315  0.15114300  0.02253665  1  0.077928  0  0.107429  0.128875  0  0.985437  0
H  H41  1  0.72079690  0.04298554  0.01768599  1  0.069467  0  0.103509  0.117583  0  1.000404  0
H  H42  1  0.83212298  0.05583284  0.17269255  1  0.038725  0  0.097853  0.096375  0  0.989013  0
H  H43  1  0.96205629  0.12712387  0.17800385  1  0.031933  0  0.098852  0.099234  0  0.965248  0
H  H44  1  0.80744909  0.21125699  0.14402719  1  0.120264  0  0.12921  0.105398  0  0.961844  0
H  H45  1  0.05444998  0.32978687  0.22111677  1  0.446953  0  0.303268  0.256779  0  0.993915  0
H  H46  1  0.02015630  0.50472455  0.11315779  1  0.024556  0  0.098328  0.051292  0  0.972808  0
H  H47  1  0.21370530  0.54940095  0.24167634  1  0.390195  0  0.271088  0.254546  0  1.025888  0
H  H48  1  0.12016538  0.50889474  0.27139807  1  0.400918  0  0.27026  0.25918  0  1.025428  0
H  H49  1  0.11427448  0.37397760  0.09672512  1  0.019347  0  0.091702  0.055936  0  0.956409  0
H  H50  1  0.25551113  0.55801317  0.14325531  1  0.007986  0  0.082463  0.107545  0  1.017931  0
H  H51  1  0.20303792  0.50034468  0.02995123  1  0.013505  0  0.088205  0.118966  0  1.000794  0
H  H52  1  0.15147667  0.57334769  0.05295905  1  0.038501  0  0.086493  0.116062  0  1.000291  0
H  H53  1  0.91513311  0.29804257  0.96780078  1  0.039099  0  0.087763  0.123424  0  1.016017  0
H  H54  1  0.01084003  0.35418140  0.93049873  1  0.009117  0  0.086528  0.117582  0  1.002054  0
H  H55  1  0.94468984  0.41573896  0.94699129  1  0.015732  0  0.0884  0.120403  0  0.99665  0
H  H56  1  0.11894501  0.83568533  0.80468508  1  0.063229  0  0.112834  0.134363  0  0.95467  0
H  H57  1  0.19009347  0.77721059  0.86788974  1  0.061373  0  0.107551  0.124862  0  0.97814  0
H  H58  1  0.01995643  0.60799264  0.76854714  1  0.049464  0  0.099451  0.102566  0  0.96787  0
H  H59  1  0.93951370  0.66273055  0.71171687  1  0.069334  0  0.09947  0.105227  0  0.975801  0
H  H60  1  0.15754241  0.71346013  0.71678902  1  0.121857  0  0.126421  0.098146  0  0.964843  0
H  H61  1  0.96690912  0.72555337  0.57383018  1  0.484746  0  0.301022  0.259566  0  0.992206  0
H  H62  1  0.14372003  0.85761103  0.50567236  1  0.02945  0  0.09989  0.053058  0  0.984604  0
H  H63  1  0.93592540  0.81113246  0.41720511  1  0.393409  0  0.27823  0.265797  0  0.998353  0
H  H64  1  0.95537548  0.71674064  0.43897007  1  0.390813  0  0.276175  0.265366  0  1.000442  0
H  H65  1  0.08219393  0.96682824  0.60082257  1  0.005731  0  0.087601  0.046848  0  0.975588  0
H  H66  1  0.96523679  0.95099863  0.43928090  1  0.011039  0  0.080938  0.102606  0  1.022678  0
H  H67  1  0.08661282  0.07360764  0.49483991  1  0.063742  0  0.093002  0.135356  0  1.003384  0
H  H68  1  0.08237066  0.98402720  0.42546044  1  0.00354  0  0.082391  0.107802  0  1.011147  0
H  H69  1  0.28881998  0.02193023  0.67189127  1  0.065376  0  0.088074  0.131063  0  1.020261  0
H  H70  1  0.26082388  0.11564903  0.62842702  1  0.080273  0  0.088976  0.136241  0  1.026711  0
H  H71  1  0.27907362  0.03731058  0.56849958  1  0.008896  0  0.082595  0.112522  0  1.005568  0
H  H72  1  0.06343653  0.04074762  0.73804436  1  0.082124  0  0.111251  0.128225  0  0.971054  0
H  H73  1  0.93986132  0.93626371  0.64480433  1  0.042469  0  0.103334  0.120651  0  0.974938  0
H  H74  1  0.84232784  0.02813332  0.60519370  1  0.040812  0  0.099675  0.101054  0  0.978343  0
H  H75  1  0.92784264  0.11042916  0.71691642  1  0.059359  0  0.101772  0.107501  0  0.973824  0
H  H76  1  0.02383424  0.10732889  0.59793604  1  0.110373  0  0.127  0.099455  0  0.963508  0
H  H77  1  0.11995453  0.25119188  0.77232154  1  0.478412  0  0.312241  0.27193  0  0.954857  0
H  H78  1  0.37998871  0.38785508  0.78760388  1  0.025824  0  0.101345  0.051502  0  1.011745  0
H  H79  1  0.34910437  0.45171757  0.90326393  1  0.393436  0  0.279931  0.266809  0  0.991027  0
H  H80  1  0.26706466  0.44731650  0.79924770  1  0.395052  0  0.278293  0.271289  0  0.986682  0
H  H81  1  0.30790454  0.25741688  0.89797710  1  0.003898  0  0.091261  0.054645  0  0.956437  0
H  H82  1  0.47578085  0.43189868  0.99323688  1  -0.025417  0  0.07832  0.096122  0  1.02942  0
H  H83  1  0.51659033  0.34047555  0.00762191  1  0.075735  0  0.093285  0.140673  0  1.007208  0
H  H84  1  0.54360779  0.41712769  0.93870212  1  0.02629  0  0.086641  0.117203  0  1.005339  0
H  H85  1  0.30048509  0.15264734  0.78342219  1  0.01432  0  0.083506  0.113198  0  1.028522  0
H  H86  1  0.42973425  0.19357687  0.88770289  1  0.064582  0  0.091844  0.137735  0  1.025977  0
H  H87  1  0.42963215  0.25129542  0.80121583  1  0.040514  0  0.092221  0.130212  0  0.987274  0
H  H88  1  0.37096678  0.15481108  0.07501504  1  0.07754  0  0.115892  0.138558  0  0.969304  0
H  H89  1  0.35645773  0.24421672  0.12367139  1  0.061539  0  0.10508  0.123189  0  0.96362  0
H  H90  1  0.45856514  0.23418590  0.27266127  1  0.022286  0  0.092888  0.087802  0  1.011158  0
H  H91  1  0.41528969  0.10708062  0.23208615  1  0.057376  0  0.098784  0.106309  0  0.980317  0
H  H92  1  0.56455230  0.27100521  0.18317069  1  0.107334  0  0.126979  0.09842  0  0.959453  0
H  H93  1  0.55639435  0.07826529  0.20029485  1  0.490711  0  0.306728  0.270926  0  0.977772  0
H  H94  1  0.61183471  0.07692089  0.03340822  1  0.039641  0  0.100378  0.047931  0  0.995775  0
H  H95  1  0.60611392  0.94571815  0.11777141  1  0.39768  0  0.280289  0.269359  0  0.989014  0
H  H96  1  0.68652327  0.06197354  0.18566866  1  0.411099  0  0.27087  0.262158  0  1.032026  0
H  H97  1  0.38129895  0.92927395  0.00433023  1  0.00528  0  0.090491  0.057874  0  0.962703  0
H  H98  1  0.47120302  0.82992985  0.01055928  1  0.006002  0  0.08399  0.106863  0  1.019329  0
H  H99  1  0.37432086  0.80904557  0.89601128  1  0.048803  0  0.089877  0.122847  0  1.005369  0
H  H100  1  0.52094299  0.89079115  0.94186467  1  0.013721  0  0.086851  0.117321  0  1.003022  0
H  H101  1  0.37856922  0.04752716  0.91125411  1  0.039563  0  0.084968  0.119113  0  1.037658  0
H  H102  1  0.31963946  0.92636307  0.84044311  1  0.032183  0  0.082084  0.115568  0  1.047454  0
H  H103  1  0.45907506  0.02264112  0.87785842  1  0.014236  0  0.090048  0.126074  0  0.985388  0
C  C104  1  0.66670698  0.65528161  0.83664653  1  1.548507  0  0.231909  0.674806  0  4.092899  0
C  C105  1  0.55731489  0.55554093  0.78549408  1  -0.005  0  -0.159151  -0.295559  0  3.897501  0
C  C106  1  0.45767306  0.56822130  0.72203765  1  -0.016096  0  -0.151928  -0.154609  0  3.887716  0
C  C107  1  0.36738449  0.47440890  0.63922567  1  0.353328  0  0.016877  0.0096  0  3.861771  0
C  C108  1  0.40064329  0.39009504  0.54252788  1  1.399754  0  0.236822  0.468963  0  4.074111  0
C  C109  1  0.38553189  0.37935389  0.44821401  1  0.264017  0  0.002594  0.031039  0  3.852182  0
C  C110  1  0.50036616  0.42131346  0.45417892  1  0.047097  0  -0.085018  0.087431  0  3.849341  0
C  C111  1  0.48462486  0.41839164  0.36034779  1  -0.075341  0  -0.243348  -0.394377  0  3.939985  0
C  C112  1  0.55777943  0.36270584  0.49804551  1  -0.014727  0  -0.24632  -0.399335  0  3.942469  0
C  C113  1  0.25259311  0.46680636  0.59448145  1  1.556482  0  0.243781  0.622956  0  4.064685  0
C  C114  1  0.00085705  0.80357820  0.16016489  1  1.564416  0  0.229251  0.671432  0  4.104019  0
C  C115  1  0.03666247  0.78875048  0.25272193  1  -0.041213  0  -0.160518  -0.289883  0  3.910704  0
C  C116  1  0.99816722  0.67811130  0.24907206  1  0.045791  0  -0.14732  -0.155351  0  3.883337  0
C  C117  1  0.06577266  0.67251816  0.34400296  1  0.360809  0  0.015029  0.017193  0  3.90884  0
C  C118  1  0.25786997  0.71693515  0.45496488  1  1.396786  0  0.236173  0.479556  0  4.079558  0
C  C119  1  0.37279491  0.74061585  0.47085656  1  0.321691  0  0.000952  0.026386  0  3.873486  0
C  C120  1  0.43535137  0.84364950  0.45819389  1  0.018129  0  -0.087455  0.080256  0  3.87268  0
C  C121  1  0.55464590  0.87026907  0.48327244  1  -0.093504  0  -0.241237  -0.389555  0  3.942233  0
C  C122  1  0.44074852  0.92718669  0.51261288  1  -0.040871  0  -0.242057  -0.396964  0  3.940574  0
C  C123  1  0.00660768  0.56916371  0.35563641  1  1.564337  0  0.235171  0.605609  0  4.105947  0
C  C124  1  0.84310933  0.01828107  0.01158724  1  1.557741  0  0.229536  0.670118  0  4.114225  0
C  C125  1  0.81239482  0.08399903  0.04544855  1  -0.021461  0  -0.161002  -0.294567  0  3.896868  0
C  C126  1  0.87648150  0.11523542  0.14939377  1  -0.020579  0  -0.151897  -0.159375  0  3.896136  0
C  C127  1  0.88894689  0.21481591  0.18444553  1  0.360283  0  0.016529  0.015174  0  3.876792  0
C  C128  1  0.94358062  0.35838174  0.12415529  1  1.415105  0  0.2317  0.469666  0  4.101894  0
C  C129  1  0.04801843  0.45072139  0.13501222  1  0.318662  0  0.001025  0.033304  0  3.870249  0
C  C130  1  0.08268920  0.42457726  0.07129234  1  0.04264  0  -0.087054  0.083135  0  3.86138  0
C  C131  1  0.17875589  0.51951117  0.07520119  1  -0.07546  0  -0.242322  -0.386813  0  3.942508  0
C  C132  1  0.98244818  0.36984425  0.97372917  1  -0.045616  0  -0.24375  -0.395964  0  3.943248  0
C  C133  1  0.92029296  0.23493315  0.28267322  1  1.563621  0  0.234521  0.604046  0  4.094784  0
C  C134  1  0.06242891  0.77195295  0.88874345  1  1.566385  0  0.224262  0.656975  0  4.109196  0
C  C135  1  0.10583510  0.76795316  0.82771855  1  -0.038888  0  -0.156613  -0.288712  0  3.922467  0
C  C136  1  0.02531584  0.67461217  0.74620879  1  -0.003609  0  -0.158234  -0.164331  0  3.931613  0
C  C137  1  0.06560984  0.68331858  0.67945983  1  0.344728  0  0.017215  0.019701  0  3.87904  0
C  C138  1  0.13162356  0.81909447  0.61630534  1  1.409883  0  0.237997  0.470595  0  4.063424  0
C  C139  1  0.09003725  0.85475656  0.53224224  1  0.323962  0  0.003371  0.031825  0  3.861134  0
C  C140  1  0.11601698  0.96374222  0.55774691  1  0.046718  0  -0.085912  0.090596  0  3.848535  0
C  C141  1  0.05826384  0.99362973  0.47420945  1  -0.094944  0  -0.245456  -0.396395  0  3.943461  0
C  C142  1  0.24387069  0.03911768  0.61053710  1  -0.104058  0  -0.250549  -0.411864  0  3.920629  0
C  C143  1  0.01016852  0.57827607  0.61885551  1  1.571021  0  0.240428  0.621089  0  4.082813  0
C  C144  1  0.93908751  0.95619628  0.76664086  1  1.539803  0  0.227981  0.666032  0  4.113615  0
C  C145  1  0.96987029  0.99816593  0.70009325  1  -0.018551  0  -0.159103  -0.293185  0  3.91472  0
C  C146  1  0.92899855  0.07006497  0.66469168  1  -0.007531  0  -0.152092  -0.15796  0  3.902909  0
C  C147  1  0.00893746  0.14642876  0.63992399  1  0.366244  0  0.015895  0.016616  0  3.894282  0
C  C148  1  0.21273339  0.26444469  0.71699461  1  1.416317  0  0.239858  0.476717  0  4.083278  0
C  C149  1  0.31685593  0.34418240  0.80552332  1  0.316331  0  -0.000511  0.021253  0  3.888437  0
C  C150  1  0.36795920  0.29594910  0.87592223  1  0.046592  0  -0.087422  0.088414  0  3.861024  0
C  C151  1  0.48192514  0.37635956  0.95852096  1  -0.077269  0  -0.243791  -0.393909  0  3.924401  0
C  C152  1  0.38237362  0.21868299  0.83459438  1  -0.077917  0  -0.247034  -0.410071  0  3.91623  0
C  C153  1  0.95746825  0.20261245  0.58287109  1  1.570106  0  0.235772  0.612827  0  4.08924  0
C  C154  1  0.23184119  0.09025795  0.08878260  1  1.576215  0  0.226797  0.665409  0  4.113654  0
C  C155  1  0.35306181  0.17235884  0.12613878  1  -0.039365  0  -0.158839  -0.293857  0  3.910804  0
C  C156  1  0.44315593  0.18030599  0.21874709  1  -0.004187  0  -0.157539  -0.16068  0  3.897528  0
C  C157  1  0.55274904  0.21363995  0.21886343  1  0.372889  0  0.016453  0.020585  0  3.869914  0
C  C158  1  0.54510036  0.12842040  0.09214737  1  1.408173  0  0.236637  0.463194  0  4.092131  0
C  C159  1  0.55680360  0.04270996  0.06096143  1  0.305047  0  0.003561  0.043625  0  3.856212  0
C  C160  1  0.44192182  0.95516375  0.98150861  1  0.064161  0  -0.086905  0.080923  0  3.849413  0
C  C161  1  0.45358242  0.86673018  0.95708923  1  -0.079766  0  -0.242169  -0.391321  0  3.937792  0
C  C162  1  0.39669102  0.98993569  0.89829977  1  -0.060468  0  -0.250988  -0.406362  0  3.933952  0
C  C163  1  0.65939480  0.26202925  0.31326646  1  1.576354  0  0.237994  0.617463  0  4.081756  0
N  N164  1  0.39973583  0.47149949  0.57374246  1  -1.200549  0  -0.437877  -0.384594  0  3.537878  0
N  N165  1  0.32489222  0.42911111  0.39866436  1  -1.103436  0  -0.629228  -0.642661  0  3.270775  0
N  N166  1  0.18004976  0.70394397  0.36830373  1  -1.229478  0  -0.433707  -0.402153  0  3.566667  0
N  N167  1  0.35381519  0.66042736  0.40685987  1  -1.113186  0  -0.631595  -0.640225  0  3.240542  0
N  N168  1  0.97031053  0.29803564  0.17374664  1  -1.21204  0  -0.435689  -0.387179  0  3.573522  0
N  N169  1  0.14132779  0.48753263  0.22964055  1  -1.120003  0  -0.641183  -0.654335  0  3.286599  0
N  N170  1  0.04697749  0.75010873  0.62672174  1  -1.23575  0  -0.434641  -0.387797  0  3.525863  0
N  N171  1  0.96861392  0.78317483  0.46797211  1  -1.131176  0  -0.639257  -0.651514  0  3.250304  0
N  N172  1  0.11728039  0.21507173  0.72055194  1  -1.252891  0  -0.430525  -0.391672  0  3.564611  0
N  N173  1  0.28407619  0.40415842  0.84022608  1  -1.115882  0  -0.636453  -0.650826  0  3.227086  0
N  N174  1  0.54505886  0.13085701  0.17022896  1  -1.254863  0  -0.430235  -0.384467  0  3.568058  0
N  N175  1  0.60513789  0.00736463  0.13789797  1  -1.143169  0  -0.644213  -0.660942  0  3.257083  0
O  O176  1  0.94815154  0.87625673  0.95993168  1  -1.233911  0  -0.575319  -1.033648  0  2.555527  0
O  O177  1  0.71167731  0.69319229  0.79101276  1  -1.182773  0  -0.326277  -0.562049  0  2.317038  0
O  O178  1  0.70486596  0.69484333  0.91890732  1  -1.178637  0  -0.317789  -0.551318  0  2.280185  0
O  O179  1  0.41185814  0.32987048  0.58488206  1  -1.142896  0  -0.307731  -0.485589  0  2.078668  0
O  O180  1  0.20421655  0.45124880  0.63935013  1  -1.170525  0  -0.304132  -0.543162  0  2.339683  0
O  O181  1  0.21358937  0.47611061  0.51499674  1  -1.184673  0  -0.312613  -0.538932  0  2.380398  0
O  O182  1  0.05982445  0.80291487  0.12778236  1  -1.179006  0  -0.326911  -0.567363  0  2.298184  0
O  O183  1  0.91524878  0.81413852  0.12224990  1  -1.178874  0  -0.319464  -0.552328  0  2.282995  0
O  O184  1  0.23630121  0.71100865  0.51534154  1  -1.132344  0  -0.307127  -0.489461  0  2.072447  0
O  O185  1  0.93112635  0.55304166  0.37369499  1  -1.175468  0  -0.307923  -0.542054  0  2.317965  0
O  O186  1  0.03766984  0.50794364  0.34635259  1  -1.186114  0  -0.314381  -0.540962  0  2.372698  0
O  O187  1  0.91503623  0.06148942  0.98828320  1  -1.175173  0  -0.320539  -0.553619  0  2.316281  0
O  O188  1  0.79812667  0.92694863  0.01231820  1  -1.178516  0  -0.324025  -0.560964  0  2.293468  0
O  O189  1  0.84577903  0.33960826  0.07398635  1  -1.14977  0  -0.320537  -0.501658  0  2.058543  0
O  O190  1  0.84090318  0.18618631  0.29739639  1  -1.172178  0  -0.301715  -0.53491  0  2.320728  0
O  O191  1  0.02265901  0.29989713  0.34329694  1  -1.205474  0  -0.32446  -0.554096  0  2.325418  0
O  O192  1  0.95587642  0.72008689  0.85612666  1  -1.200046  0  -0.333386  -0.573902  0  2.297944  0
O  O193  1  0.13583083  0.83041171  0.96974473  1  -1.175067  0  -0.321078  -0.553442  0  2.2719  0
O  O194  1  0.23284020  0.84962646  0.66932303  1  -1.15071  0  -0.303521  -0.486732  0  2.111239  0
O  O195  1  0.05488550  0.52728762  0.65522270  1  -1.174814  0  -0.318488  -0.549482  0  2.338011  0
O  O196  1  0.92459920  0.54937707  0.53958570  1  -1.189326  0  -0.314256  -0.546811  0  2.329448  0
O  O197  1  0.95934735  0.01872695  0.83058013  1  -1.188316  0  -0.32064  -0.560125  0  2.316134  0
O  O198  1  0.89788163  0.86171043  0.75466369  1  -1.160831  0  -0.322297  -0.557416  0  2.306444  0
O  O199  1  0.21536868  0.24499571  0.64891328  1  -1.15224  0  -0.298878  -0.493971  0  2.127344  0
O  O200  1  0.89132414  0.15858371  0.49782415  1  -1.167059  0  -0.315093  -0.543939  0  2.302787  0
O  O201  1  0.98363347  0.28775764  0.62349595  1  -1.190407  0  -0.323593  -0.552432  0  2.331579  0
O  O202  1  0.21347828  0.01095259  0.11370668  1  -1.190954  0  -0.322788  -0.561361  0  2.301103  0
O  O203  1  0.15675609  0.10609640  0.03053475  1  -1.181776  0  -0.328102  -0.566442  0  2.309073  0
O  O204  1  0.53693164  0.18977446  0.04977366  1  -1.160794  0  -0.306451  -0.505953  0  2.132652  0
O  O205  1  0.70843667  0.35724138  0.34470442  1  -1.183382  0  -0.315992  -0.551251  0  2.318593  0
O  O206  1  0.69206195  0.20526079  0.35259069  1  -1.18548  0  -0.322058  -0.552171  0  2.316207  0
O  O207  1  0.95030035  0.37636138  0.46224129  1  -1.227768  0  -0.568717  -1.024446  0  2.511091  0
