# generated using pymatgen
data_ZnH10C13NO6
_symmetry_space_group_name_H-M   'P 1'
_cell_length_a   7.71946083
_cell_length_b   8.93374906
_cell_length_c   9.88334707
_cell_angle_alpha   105.45193297
_cell_angle_beta   95.99667285
_cell_angle_gamma   108.90962223
_symmetry_Int_Tables_number   1
_chemical_formula_structural   ZnH10C13NO6
_chemical_formula_sum   'Zn2 H20 C26 N2 O12'
_cell_volume   607.74001442
_cell_formula_units_Z   2
loop_
 _symmetry_equiv_pos_site_id
 _symmetry_equiv_pos_as_xyz
  1  'x, y, z'
loop_
 _atom_site_type_symbol
 _atom_site_label
 _atom_site_symmetry_multiplicity
 _atom_site_fract_x
 _atom_site_fract_y
 _atom_site_fract_z
 _atom_site_occupancy
 _atom_site_hle17_bader_spin_density
 _atom_site_hle17_ddec_charge
 _atom_site_hle17_ddec_spin_density
 _atom_site_hle17_ddec_sum_bond_order
 _atom_site_hle17_magmom
 _atom_site_hse06_10hf_bader_spin_density
 _atom_site_hse06_10hf_ddec_charge
 _atom_site_hse06_10hf_ddec_spin_density
 _atom_site_hse06_10hf_ddec_sum_bond_order
 _atom_site_hse06_10hf_magmom
 _atom_site_hse06_bader_spin_density
 _atom_site_hse06_ddec_charge
 _atom_site_hse06_ddec_spin_density
 _atom_site_hse06_ddec_sum_bond_order
 _atom_site_hse06_magmom
 _atom_site_pbe_bader_spin_density
 _atom_site_pbe_cm5_charge
 _atom_site_pbe_ddec_charge
 _atom_site_pbe_ddec_spin_density
 _atom_site_pbe_ddec_sum_bond_order
 _atom_site_pbe_magmom
Zn  Zn0  1  0.94740258  0.68685227  0.03963350  1  0  1.097932  0  1.75587  0  0  0.914432  0  2.227752  0  0  0.96385  0  2.168056  0  0  0.693205  0.879296  0  2.269634  0
Zn  Zn1  1  0.05259790  0.31315136  0.96036922  1  0  1.09793  0  1.75592  0  0  0.914405  0  2.22781  0  0  0.96383  0  2.168119  0  0  0.693229  0.879281  0  2.269686  0
H  H2  1  0.81505444  0.85167147  0.23662816  1  0  0.428967  0  0.81505  0  0  0.410945  0  0.86881  0  0  0.419396  0  0.859474  0  0  0.320703  0.404679  0  0.876032  0
H  H3  1  0.18493547  0.14834017  0.76337126  1  0  0.428927  0  0.815112  0  0  0.410916  0  0.868847  0  0  0.419367  0  0.859513  0  0  0.320725  0.404653  0  0.876071  0
H  H4  1  0.95348370  0.83280572  0.79970809  1  0  0.089239  0  0.959306  0  0  0.09683  0  1.024012  0  0  0.099873  0  1.021283  0  0  0.118985  0.094546  0  1.026088  0
H  H5  1  0.04650647  0.16718700  0.20029247  1  0  0.089187  0  0.959202  0  0  0.096752  0  1.023937  0  0  0.099793  0  1.02121  0  0  0.119009  0.094474  0  1.026002  0
H  H6  1  0.51299762  0.24671687  0.06313645  1  0  0.104944  0  0.953382  0  0  0.115381  0  1.018037  0  0  0.118604  0  1.016118  0  0  0.103536  0.113045  0  1.019582  0
H  H7  1  0.48700781  0.75330588  0.93687574  1  0  0.104944  0  0.953253  0  0  0.115359  0  1.01795  0  0  0.118577  0  1.016036  0  0  0.10352  0.113031  0  1.0195  0
H  H8  1  0.93518809  0.38968681  0.44380753  1  0  0.107895  0  0.99722  0  0  0.115752  0  1.064902  0  0  0.119546  0  1.062339  0  0  0.100377  0.11313  0  1.066618  0
H  H9  1  0.06480590  0.61032273  0.55620599  1  0  0.107939  0  0.997178  0  0  0.115818  0  1.064817  0  0  0.119615  0  1.06225  0  0  0.100377  0.11319  0  1.066549  0
H  H10  1  0.75317984  0.76147380  0.56102207  1  0  0.11699  0  0.940246  0  0  0.128492  0  0.995681  0  0  0.132359  0  0.993528  0  0  0.114348  0.125741  0  0.997406  0
H  H11  1  0.24682000  0.23851442  0.43897434  1  0  0.116983  0  0.940202  0  0  0.128486  0  0.995664  0  0  0.132358  0  0.993501  0  0  0.11434  0.12573  0  0.997392  0
H  H12  1  0.45589740  0.93543959  0.33563636  1  0  0.126536  0  0.963043  0  0  0.132024  0  1.031609  0  0  0.136294  0  1.028592  0  0  0.106155  0.129154  0  1.03345  0
H  H13  1  0.54410449  0.06455849  0.66435722  1  0  0.126532  0  0.963031  0  0  0.132041  0  1.031588  0  0  0.136313  0  1.028565  0  0  0.106147  0.129173  0  1.033429  0
H  H14  1  0.42365431  0.29745273  0.62090461  1  0  0.111256  0  0.950869  0  0  0.123565  0  1.007834  0  0  0.126691  0  1.00684  0  0  0.113437  0.121029  0  1.009091  0
H  H15  1  0.57635241  0.70252215  0.37908455  1  0  0.111444  0  0.9507  0  0  0.123673  0  1.007754  0  0  0.126853  0  1.006692  0  0  0.113475  0.121137  0  1.009015  0
H  H16  1  0.76548787  0.88897211  0.08862679  1  0  0.435201  0  0.87358  0  0  0.399985  0  0.94453  0  0  0.411758  0  0.927714  0  0  0.28946  0.391507  0  0.956696  0
H  H17  1  0.23451556  0.11103492  0.91137081  1  0  0.43528  0  0.873481  0  0  0.400076  0  0.944407  0  0  0.411849  0  0.927592  0  0  0.289519  0.391598  0  0.956572  0
H  H18  1  0.88817961  0.20862997  0.57661374  1  0  0.398075  0  0.886522  0  0  0.373014  0  0.960307  0  0  0.383728  0  0.946617  0  0  0.302051  0.365446  0  0.969185  0
H  H19  1  0.11181565  0.79137643  0.42338809  1  0  0.398076  0  0.886551  0  0  0.373033  0  0.96031  0  0  0.383747  0  0.946593  0  0  0.302024  0.36547  0  0.969177  0
H  H20  1  0.63937705  0.38851994  0.85492724  1  0  0.100613  0  0.939681  0  0  0.107924  0  1.003436  0  0  0.110942  0  1.000606  0  0  0.123886  0.105733  0  1.005405  0
H  H21  1  0.36062804  0.61146258  0.14506135  1  0  0.100686  0  0.93961  0  0  0.107933  0  1.003427  0  0  0.110954  0  1.000596  0  0  0.123874  0.105741  0  1.005397  0
C  C22  1  0.27692880  0.96073862  0.10164461  1  0  0.652771  0  3.888045  0  0  0.60014  0  4.179902  0  0  0.634452  0  4.172868  0  0  0.213683  0.576815  0  4.183866  0
C  C23  1  0.72307542  0.03927842  0.89835211  1  0  0.652719  0  3.888139  0  0  0.599959  0  4.180138  0  0  0.634275  0  4.173101  0  0  0.213526  0.576619  0  4.184118  0
C  C24  1  0.56604789  0.22109941  0.15748979  1  0  -0.095726  0  3.713272  0  0  -0.138732  0  3.969735  0  0  -0.138245  0  3.990533  0  0  -0.094572  -0.138711  0  3.955504  0
C  C25  1  0.43395431  0.77890786  0.84251181  1  0  -0.095514  0  3.71342  0  0  -0.138603  0  3.96989  0  0  -0.13807  0  3.990705  0  0  -0.094487  -0.138599  0  3.955646  0
C  C26  1  0.71986168  0.67385178  0.62119236  1  0  -0.13035  0  3.669332  0  0  -0.150784  0  3.920931  0  0  -0.158101  0  3.941206  0  0  -0.068675  -0.146396  0  3.907433  0
C  C27  1  0.28013769  0.32613263  0.37880322  1  0  -0.130349  0  3.669193  0  0  -0.150844  0  3.920849  0  0  -0.158159  0  3.941114  0  0  -0.068645  -0.146451  0  3.907347  0
C  C28  1  0.70968024  0.15440057  0.39917306  1  0  0.323949  0  3.851691  0  0  0.322637  0  4.112627  0  0  0.331911  0  4.129255  0  0  0.074884  0.315912  0  4.101419  0
C  C29  1  0.29032828  0.84559221  0.60082303  1  0  0.323972  0  3.851836  0  0  0.322721  0  4.112741  0  0  0.331994  0  4.129364  0  0  0.074855  0.315992  0  4.101543  0
C  C30  1  0.53780233  0.04441837  0.30953147  1  0  -0.179049  0  3.669703  0  0  -0.213916  0  3.921577  0  0  -0.215566  0  3.938719  0  0  -0.098148  -0.212406  0  3.910298  0
C  C31  1  0.46220334  0.95557933  0.69045831  1  0  -0.179061  0  3.66986  0  0  -0.21398  0  3.921706  0  0  -0.215635  0  3.938857  0  0  -0.098219  -0.212471  0  3.910433  0
C  C32  1  0.46565828  0.07806566  0.18977567  1  0  -0.058118  0  3.793794  0  0  -0.030732  0  4.029667  0  0  -0.038433  0  4.053612  0  0  -0.023548  -0.025893  0  4.013305  0
C  C33  1  0.53434263  0.92194164  0.81022481  1  0  -0.058226  0  3.793544  0  0  -0.030782  0  4.029461  0  0  -0.038486  0  4.053407  0  0  -0.023553  -0.025938  0  4.013103  0
C  C34  1  0.56506435  0.52290793  0.56896935  1  0  0.102588  0  3.721052  0  0  0.112052  0  3.956499  0  0  0.116118  0  3.978264  0  0  0.023069  0.109412  0  3.941396  0
C  C35  1  0.43493639  0.47707377  0.43102375  1  0  0.102709  0  3.720899  0  0  0.112191  0  3.956357  0  0  0.116254  0  3.97814  0  0  0.023196  0.10955  0  3.941255  0
C  C36  1  0.84096447  0.49314712  0.22404270  1  0  0.671359  0  3.872233  0  0  0.618995  0  4.165469  0  0  0.652885  0  4.157969  0  0  0.21539  0.595583  0  4.170355  0
C  C37  1  0.15903136  0.50686351  0.77596917  1  0  0.671345  0  3.87201  0  0  0.619005  0  4.165088  0  0  0.652925  0  4.157592  0  0  0.215481  0.595584  0  4.169993  0
C  C38  1  0.73381051  0.33451798  0.25072377  1  0  -0.047222  0  3.786967  0  0  -0.022357  0  4.027135  0  0  -0.028517  0  4.049238  0  0  -0.022999  -0.018226  0  4.012157  0
C  C39  1  0.26619929  0.66549174  0.74928507  1  0  -0.047378  0  3.787339  0  0  -0.02234  0  4.027254  0  0  -0.028602  0  4.049492  0  0  -0.02307  -0.0182  0  4.012277  0
C  C40  1  0.80405890  0.30238733  0.37171259  1  0  -0.21069  0  3.728161  0  0  -0.244027  0  3.978353  0  0  -0.247318  0  3.997839  0  0  -0.103766  -0.241418  0  3.964612  0
C  C41  1  0.19594484  0.69761496  0.62829215  1  0  -0.210669  0  3.728243  0  0  -0.244107  0  3.978378  0  0  -0.247365  0  3.997894  0  0  -0.103742  -0.241494  0  3.964636  0
C  C42  1  0.83387079  0.71576240  0.75412005  1  0  0.135415  0  3.6967  0  0  0.102983  0  3.948961  0  0  0.109901  0  3.967451  0  0  0.050973  0.098362  0  3.936615  0
C  C43  1  0.16612196  0.28422731  0.24587302  1  0  0.135627  0  3.696564  0  0  0.103246  0  3.948847  0  0  0.110169  0  3.967331  0  0  0.051016  0.098617  0  3.936503  0
C  C44  1  0.53836907  0.41772746  0.65449516  1  0  -0.133055  0  3.670456  0  0  -0.155219  0  3.923097  0  0  -0.162704  0  3.94443  0  0  -0.070728  -0.150297  0  3.908537  0
C  C45  1  0.46163361  0.58225277  0.34549578  1  0  -0.13326  0  3.670378  0  0  -0.155391  0  3.923044  0  0  -0.162914  0  3.944354  0  0  -0.070909  -0.150479  0  3.908494  0
C  C46  1  0.65787352  0.46719989  0.78620918  1  0  0.142666  0  3.656335  0  0  0.110255  0  3.904299  0  0  0.117959  0  3.921714  0  0  0.053276  0.105344  0  3.892165  0
C  C47  1  0.34213012  0.53278804  0.21378547  1  0  0.142545  0  3.656291  0  0  0.110228  0  3.904214  0  0  0.117931  0  3.921635  0  0  0.053338  0.105319  0  3.892084  0
N  N48  1  0.80270978  0.61548049  0.83652147  1  0  -0.341344  0  3.30951  0  0  -0.251245  0  3.583494  0  0  -0.272073  0  3.598969  0  0  -0.333363  -0.237227  0  3.573147  0
N  N49  1  0.19728500  0.38450808  0.16347660  1  0  -0.341451  0  3.309662  0  0  -0.251366  0  3.583618  0  0  -0.272196  0  3.599094  0  0  -0.333466  -0.237352  0  3.573273  0
O  O50  1  0.84967573  0.47985504  0.09135662  1  0  -0.677868  0  2.098038  0  0  -0.596794  0  2.380597  0  0  -0.626656  0  2.364498  0  0  -0.322546  -0.575452  0  2.391457  0
O  O51  1  0.15032498  0.52016048  0.90865771  1  0  -0.677929  0  2.097989  0  0  -0.5968  0  2.380386  0  0  -0.626662  0  2.364275  0  0  -0.322639  -0.575462  0  2.391262  0
O  O52  1  0.20156023  0.98105231  0.99172653  1  0  -0.636557  0  2.046055  0  0  -0.579568  0  2.286058  0  0  -0.605127  0  2.277086  0  0  -0.308564  -0.561476  0  2.291801  0
O  O53  1  0.79844201  0.01895208  0.00826738  1  0  -0.636651  0  2.046036  0  0  -0.579555  0  2.285995  0  0  -0.605119  0  2.277017  0  0  -0.308523  -0.561454  0  2.291742  0
O  O54  1  0.19461683  0.83893666  0.14748655  1  0  -0.639687  0  2.081847  0  0  -0.564696  0  2.362419  0  0  -0.593323  0  2.345925  0  0  -0.321863  -0.544965  0  2.373527  0
O  O55  1  0.80537834  0.16107239  0.85251785  1  0  -0.639544  0  2.082174  0  0  -0.564522  0  2.362821  0  0  -0.593126  0  2.346272  0  0  -0.321752  -0.544792  0  2.373936  0
O  O56  1  0.91394311  0.62652703  0.32785363  1  0  -0.630793  0  1.961255  0  0  -0.579368  0  2.189059  0  0  -0.602542  0  2.179529  0  0  -0.314784  -0.563158  0  2.195251  0
O  O57  1  0.08603861  0.37348696  0.67215975  1  0  -0.630749  0  1.961224  0  0  -0.579372  0  2.189039  0  0  -0.602544  0  2.179496  0  0  -0.314754  -0.563157  0  2.195236  0
O  O58  1  0.77733634  0.11312844  0.51104589  1  0  -0.536308  0  2.091304  0  0  -0.488298  0  2.29622  0  0  -0.506348  0  2.285566  0  0  -0.365583  -0.475004  0  2.302648  0
O  O59  1  0.22267194  0.88686941  0.48895022  1  0  -0.536373  0  2.091329  0  0  -0.488384  0  2.296205  0  0  -0.506438  0  2.285536  0  0  -0.365535  -0.475086  0  2.302624  0
O  O60  1  0.76862686  0.79912639  0.13353310  1  0  -0.829655  0  1.882934  0  0  -0.769724  0  2.097999  0  0  -0.79139  0  2.067085  0  0  -0.568287  -0.754148  0  2.120524  0
O  O61  1  0.23136270  0.20087893  0.86646599  1  0  -0.829663  0  1.882935  0  0  -0.769748  0  2.098027  0  0  -0.791411  0  2.06711  0  0  -0.56835  -0.754179  0  2.120555  0
