# generated using pymatgen
data_CdH14C20Br2N3O
_symmetry_space_group_name_H-M   'P 1'
_cell_length_a   8.02825276
_cell_length_b   9.29791527
_cell_length_c   13.66297203
_cell_angle_alpha   79.83686276
_cell_angle_beta   83.51715828
_cell_angle_gamma   77.34725801
_symmetry_Int_Tables_number   1
_chemical_formula_structural   CdH14C20Br2N3O
_chemical_formula_sum   'Cd2 H28 C40 Br4 N6 O2'
_cell_volume   976.57286639
_cell_formula_units_Z   2
loop_
 _symmetry_equiv_pos_site_id
 _symmetry_equiv_pos_as_xyz
  1  'x, y, z'
loop_
 _atom_site_type_symbol
 _atom_site_label
 _atom_site_symmetry_multiplicity
 _atom_site_fract_x
 _atom_site_fract_y
 _atom_site_fract_z
 _atom_site_occupancy
 _atom_site_hle17_bader_spin_density
 _atom_site_hle17_ddec_charge
 _atom_site_hle17_ddec_spin_density
 _atom_site_hle17_ddec_sum_bond_order
 _atom_site_hle17_magmom
 _atom_site_hse06_10hf_bader_spin_density
 _atom_site_hse06_10hf_ddec_charge
 _atom_site_hse06_10hf_ddec_spin_density
 _atom_site_hse06_10hf_ddec_sum_bond_order
 _atom_site_hse06_10hf_magmom
 _atom_site_hse06_bader_spin_density
 _atom_site_hse06_ddec_charge
 _atom_site_hse06_ddec_spin_density
 _atom_site_hse06_ddec_sum_bond_order
 _atom_site_hse06_magmom
 _atom_site_pbe_bader_spin_density
 _atom_site_pbe_cm5_charge
 _atom_site_pbe_ddec_charge
 _atom_site_pbe_ddec_spin_density
 _atom_site_pbe_ddec_sum_bond_order
 _atom_site_pbe_magmom
Cd  Cd0  1  0.46038164  0.52173025  0.14218480  1  0  0.953821  0  1.921852  0  0  0.794333  0  2.391548  0  0  0.845148  0  2.345256  0  0  0.572224  0.756311  0  2.42355  0
Cd  Cd1  1  0.53956975  0.47827497  0.85780841  1  0  0.953784  0  1.921847  0  0  0.794311  0  2.391519  0  0  0.845128  0  2.345224  0  0  0.572299  0.756291  0  2.423526  0
H  H2  1  0.54915276  0.93313913  0.75860338  1  0  0.302349  0  0.911435  0  0  0.28345  0  0.978877  0  0  0.291836  0  0.971605  0  0  0.294276  0.27668  0  0.985595  0
H  H3  1  0.45084382  0.06685167  0.24142138  1  0  0.302498  0  0.911451  0  0  0.283535  0  0.978988  0  0  0.291933  0  0.971712  0  0  0.294223  0.276749  0  0.985723  0
H  H4  1  0.75763139  0.84378100  0.85356203  1  0  0.095569  0  0.943544  0  0  0.108188  0  1.001354  0  0  0.111945  0  0.999086  0  0  0.104712  0.105413  0  1.003316  0
H  H5  1  0.24236752  0.15623422  0.14642816  1  0  0.095649  0  0.943842  0  0  0.10829  0  1.001613  0  0  0.112045  0  0.999345  0  0  0.104779  0.105518  0  1.003576  0
H  H6  1  0.56367649  0.23356919  0.99842492  1  0  0.074991  0  1.007675  0  0  0.081762  0  1.083018  0  0  0.08501  0  1.08043  0  0  0.087207  0.080742  0  1.082021  0
H  H7  1  0.43634139  0.76644218  0.00158741  1  0  0.075142  0  1.007676  0  0  0.081876  0  1.083089  0  0  0.085129  0  1.080494  0  0  0.087276  0.080861  0  1.082078  0
H  H8  1  0.74605896  0.12626666  0.13352999  1  0  0.09774  0  0.9914  0  0  0.103712  0  1.062709  0  0  0.107653  0  1.059854  0  0  0.089083  0.100985  0  1.064774  0
H  H9  1  0.25397104  0.87376172  0.86647305  1  0  0.09786  0  0.991632  0  0  0.103871  0  1.062838  0  0  0.107774  0  1.060021  0  0  0.089154  0.101158  0  1.064898  0
H  H10  1  0.19301914  0.93537224  0.51255791  1  0  0.083384  0  0.981639  0  0  0.09427  0  1.045856  0  0  0.096317  0  1.046782  0  0  0.095034  0.092686  0  1.045744  0
H  H11  1  0.80697688  0.06462393  0.48744353  1  0  0.083322  0  0.981605  0  0  0.094208  0  1.045825  0  0  0.096261  0  1.046746  0  0  0.094982  0.092634  0  1.045767  0
H  H12  1  0.22204040  0.50775614  0.71826860  1  0  0.112661  0  0.944554  0  0  0.123337  0  1.002784  0  0  0.126629  0  1.000564  0  0  0.103464  0.121395  0  1.003726  0
H  H13  1  0.77797037  0.49224354  0.28171478  1  0  0.112719  0  0.944505  0  0  0.123367  0  1.002764  0  0  0.126658  0  1.000544  0  0  0.103478  0.121427  0  1.003709  0
H  H14  1  0.93583003  0.73104635  0.99457765  1  0  0.121967  0  0.949951  0  0  0.127176  0  1.017439  0  0  0.132036  0  1.013141  0  0  0.099067  0.1244  0  1.019084  0
H  H15  1  0.06422369  0.26900024  0.00539775  1  0  0.121879  0  0.94991  0  0  0.127088  0  1.017386  0  0  0.131966  0  1.013072  0  0  0.09907  0.124313  0  1.019045  0
H  H16  1  0.38327522  0.02222579  0.57845200  1  0  0.109935  0  0.961449  0  0  0.120415  0  1.022717  0  0  0.123754  0  1.021354  0  0  0.100154  0.118083  0  1.023583  0
H  H17  1  0.61673181  0.97771687  0.42156631  1  0  0.110026  0  0.9615  0  0  0.120458  0  1.022788  0  0  0.123799  0  1.021422  0  0  0.100205  0.118124  0  1.023662  0
H  H18  1  0.18478883  0.24475639  0.49304303  1  0  0.09108  0  0.939679  0  0  0.105843  0  0.991916  0  0  0.108623  0  0.990697  0  0  0.103282  0.103997  0  0.992507  0
H  H19  1  0.81521936  0.75518737  0.50696995  1  0  0.091264  0  0.93947  0  0  0.105973  0  0.991763  0  0  0.108759  0  0.990537  0  0  0.103336  0.104121  0  0.99235  0
H  H20  1  0.02284696  0.03901820  0.36637196  1  0  0.087261  0  0.953077  0  0  0.097816  0  1.016213  0  0  0.101198  0  1.01381  0  0  0.098993  0.095365  0  1.017704  0
H  H21  1  0.97713810  0.96099120  0.63362846  1  0  0.087319  0  0.953243  0  0  0.09789  0  1.016338  0  0  0.101271  0  1.013934  0  0  0.09901  0.095453  0  1.017798  0
H  H22  1  0.36082343  0.51627891  0.40056378  1  0  0.110179  0  0.964648  0  0  0.117665  0  1.031512  0  0  0.121161  0  1.030965  0  0  0.094116  0.115073  0  1.032286  0
H  H23  1  0.63916317  0.48371136  0.59943009  1  0  0.110324  0  0.964813  0  0  0.117803  0  1.031644  0  0  0.121295  0  1.031098  0  0  0.094187  0.115226  0  1.032422  0
H  H24  1  0.35740471  0.67335406  0.53193273  1  0  0.089866  0  0.963038  0  0  0.098324  0  1.028305  0  0  0.100913  0  1.026639  0  0  0.092123  0.096207  0  1.029715  0
H  H25  1  0.64259229  0.32663979  0.46805868  1  0  0.089795  0  0.963093  0  0  0.098228  0  1.028406  0  0  0.100817  0  1.026742  0  0  0.092079  0.096121  0  1.029803  0
H  H26  1  0.92398314  0.02621737  0.22471679  1  0  0.045962  0  0.95265  0  0  0.054832  0  1.024369  0  0  0.058942  0  1.019421  0  0  0.099514  0.051725  0  1.028157  0
H  H27  1  0.07602725  0.97380044  0.77528272  1  0  0.045986  0  0.952644  0  0  0.054908  0  1.024311  0  0  0.059019  0  1.019361  0  0  0.099558  0.051808  0  1.028073  0
H  H28  1  0.10206650  0.47899807  0.56405624  1  0  0.088134  0  0.953475  0  0  0.102468  0  1.008337  0  0  0.104758  0  1.008489  0  0  0.101279  0.100742  0  1.008274  0
H  H29  1  0.89796420  0.52095831  0.43593424  1  0  0.088078  0  0.953572  0  0  0.102545  0  1.008258  0  0  0.10484  0  1.008402  0  0  0.101333  0.100819  0  1.008195  0
C  C30  1  0.54475655  0.11999717  0.83353484  1  0  0.354992  0  3.731485  0  0  0.318616  0  3.998581  0  0  0.333328  0  4.015361  0  0  0.229936  0.307775  0  3.988289  0
C  C31  1  0.45522677  0.88001232  0.16647811  1  0  0.354866  0  3.73098  0  0  0.318415  0  3.998152  0  0  0.333144  0  4.014933  0  0  0.229895  0.307594  0  3.987849  0
C  C32  1  0.85706796  0.91891314  0.07357657  1  0  0.228523  0  3.777123  0  0  0.23252  0  4.02405  0  0  0.239883  0  4.044204  0  0  0.112244  0.228768  0  4.010089  0
C  C33  1  0.14296717  0.08109382  0.92640682  1  0  0.22876  0  3.776483  0  0  0.232759  0  4.023444  0  0  0.240128  0  4.043589  0  0  0.112154  0.229011  0  4.009605  0
C  C34  1  0.75484664  0.90604275  0.91455987  1  0  -0.083931  0  3.718151  0  0  -0.105911  0  3.967932  0  0  -0.108779  0  3.988417  0  0  -0.081724  -0.104781  0  3.953661  0
C  C35  1  0.24516161  0.09397734  0.08544753  1  0  -0.083949  0  3.718795  0  0  -0.105986  0  3.968576  0  0  -0.108853  0  3.98906  0  0  -0.081813  -0.104846  0  3.954373  0
C  C36  1  0.37102097  0.28031352  0.73498016  1  0  0.165115  0  3.793325  0  0  0.162661  0  4.037793  0  0  0.167148  0  4.060252  0  0  0.100484  0.159648  0  4.022553  0
C  C37  1  0.62899240  0.71967057  0.26501083  1  0  0.165161  0  3.793198  0  0  0.162714  0  4.037642  0  0  0.167209  0  4.060084  0  0  0.100601  0.159701  0  4.022419  0
C  C38  1  0.08995893  0.83850428  0.29956799  1  0  -0.058691  0  3.708136  0  0  -0.040003  0  3.940958  0  0  -0.049779  0  3.96781  0  0  -0.012863  -0.035248  0  3.924272  0
C  C39  1  0.91002725  0.16150622  0.70042785  1  0  -0.058592  0  3.707938  0  0  -0.039849  0  3.940792  0  0  -0.049628  0  3.967646  0  0  -0.012783  -0.035154  0  3.924417  0
C  C40  1  0.64973101  0.12600146  0.99532788  1  0  -0.054543  0  3.721328  0  0  -0.077606  0  3.970639  0  0  -0.078728  0  3.991572  0  0  -0.081109  -0.075454  0  3.952408  0
C  C41  1  0.35027080  0.87401057  0.00467425  1  0  -0.054729  0  3.721266  0  0  -0.077767  0  3.970469  0  0  -0.078893  0  3.991406  0  0  -0.081203  -0.075594  0  3.952254  0
C  C42  1  0.75193815  0.06358821  0.07249127  1  0  -0.13308  0  3.69152  0  0  -0.151655  0  3.938098  0  0  -0.156774  0  3.959316  0  0  -0.088036  -0.149417  0  3.923259  0
C  C43  1  0.24808065  0.93642188  0.92750507  1  0  -0.133307  0  3.69221  0  0  -0.151912  0  3.938814  0  0  -0.157007  0  3.960051  0  0  -0.088053  -0.149695  0  3.924012  0
C  C44  1  0.19151821  0.86718053  0.45574299  1  0  -0.086348  0  3.761323  0  0  -0.105778  0  4.020602  0  0  -0.113369  0  4.046318  0  0  -0.10171  -0.102383  0  4.004177  0
C  C45  1  0.80846277  0.13281429  0.54426894  1  0  -0.086262  0  3.761345  0  0  -0.105636  0  4.020583  0  0  -0.113242  0  4.046309  0  0  -0.101609  -0.102317  0  4.004421  0
C  C46  1  0.25687578  0.40339577  0.68808980  1  0  -0.114283  0  3.688136  0  0  -0.133078  0  3.936463  0  0  -0.135145  0  3.955156  0  0  -0.081136  -0.132573  0  3.923834  0
C  C47  1  0.74314741  0.59658510  0.31189520  1  0  -0.114381  0  3.688405  0  0  -0.133174  0  3.936751  0  0  -0.135249  0  3.95546  0  0  -0.081288  -0.132673  0  3.924131  0
C  C48  1  0.85498027  0.84193418  0.99266249  1  0  -0.088989  0  3.640985  0  0  -0.11091  0  3.894182  0  0  -0.11233  0  3.910763  0  0  -0.069608  -0.109  0  3.879232  0
C  C49  1  0.14505831  0.15808194  0.00733132  1  0  -0.089199  0  3.640651  0  0  -0.111049  0  3.893825  0  0  -0.11249  0  3.910409  0  0  -0.06967  -0.109143  0  3.878931  0
C  C50  1  0.34769058  0.12707145  0.60803316  1  0  -0.170739  0  3.757478  0  0  -0.19036  0  4.013009  0  0  -0.196679  0  4.034152  0  0  -0.098492  -0.185627  0  3.99739  0
C  C51  1  0.65232844  0.87290284  0.39197628  1  0  -0.170963  0  3.758052  0  0  -0.190473  0  4.013476  0  0  -0.196792  0  4.034616  0  0  -0.098605  -0.18574  0  3.997859  0
C  C52  1  0.64992641  0.05031608  0.91406177  1  0  0.004433  0  3.765633  0  0  0.02479  0  3.997048  0  0  0.024301  0  4.019297  0  0  0.006317  0.025525  0  3.982628  0
C  C53  1  0.35005490  0.94970121  0.08594962  1  0  0.004575  0  3.765427  0  0  0.024972  0  3.996827  0  0  0.024479  0  4.019077  0  0  0.006431  0.025674  0  3.982479  0
C  C54  1  0.19562961  0.68665652  0.30609731  1  0  0.384773  0  3.792042  0  0  0.369939  0  4.046145  0  0  0.392303  0  4.055981  0  0  0.117799  0.354662  0  4.039947  0
C  C55  1  0.80435968  0.31334277  0.69389459  1  0  0.384669  0  3.791749  0  0  0.369789  0  4.045932  0  0  0.39214  0  4.055783  0  0  0.11768  0.354469  0  4.040137  0
C  C56  1  0.23742692  0.25118876  0.56189496  1  0  -0.041897  0  3.757545  0  0  -0.058658  0  4.013596  0  0  -0.057312  0  4.03425  0  0  -0.07978  -0.058797  0  3.998116  0
C  C57  1  0.76259109  0.74878094  0.43810704  1  0  -0.042098  0  3.757376  0  0  -0.058867  0  4.013451  0  0  -0.057519  0  4.034103  0  0  -0.079906  -0.058993  0  3.997951  0
C  C58  1  0.09683978  0.92452390  0.37447189  1  0  -0.100536  0  3.783363  0  0  -0.124585  0  4.041249  0  0  -0.125048  0  4.065908  0  0  -0.091876  -0.122608  0  4.023895  0
C  C59  1  0.90314360  0.07547204  0.62553464  1  0  -0.100624  0  3.783726  0  0  -0.124688  0  4.041606  0  0  -0.125151  0  4.066267  0  0  -0.091896  -0.122696  0  4.024467  0
C  C60  1  0.41073413  0.14332635  0.69564436  1  0  0.182072  0  3.776291  0  0  0.173246  0  4.017409  0  0  0.179465  0  4.039212  0  0  0.108551  0.169869  0  4.001612  0
C  C61  1  0.58928271  0.85666585  0.30436376  1  0  0.182252  0  3.776207  0  0  0.173323  0  4.017338  0  0  0.179558  0  4.039152  0  0  0.108568  0.169942  0  4.001549  0
C  C62  1  0.28697803  0.63055397  0.39460280  1  0  -0.208603  0  3.694754  0  0  -0.226361  0  3.946293  0  0  -0.239314  0  3.968765  0  0  -0.105822  -0.218575  0  3.931849  0
C  C63  1  0.71299740  0.36946311  0.60540014  1  0  -0.208836  0  3.694899  0  0  -0.226525  0  3.94646  0  0  -0.239475  0  3.968933  0  0  -0.105905  -0.218767  0  3.932199  0
C  C64  1  0.28527762  0.71769531  0.46627327  1  0  -0.018685  0  3.759375  0  0  -0.032711  0  4.009498  0  0  -0.028071  0  4.030003  0  0  -0.083131  -0.034442  0  3.995563  0
C  C65  1  0.71470388  0.28230286  0.53373457  1  0  -0.018651  0  3.75919  0  0  -0.032687  0  4.009317  0  0  -0.028052  0  4.029832  0  0  -0.083158  -0.034408  0  3.995555  0
C  C66  1  0.98511257  0.90863237  0.22022597  1  0  0.13522  0  3.717018  0  0  0.099466  0  3.983548  0  0  0.108342  0  3.998796  0  0  0.068676  0.094171  0  3.973688  0
C  C67  1  0.01490124  0.09138213  0.77977229  1  0  0.135111  0  3.716869  0  0  0.099325  0  3.983468  0  0  0.108203  0  3.998711  0  0  0.06862  0.094062  0  3.973711  0
C  C68  1  0.19112221  0.38600744  0.60225027  1  0  -0.060464  0  3.747222  0  0  -0.077106  0  4.001384  0  0  -0.079977  0  4.024234  0  0  -0.087083  -0.074049  0  3.985104  0
C  C69  1  0.80890423  0.61396115  0.39773457  1  0  -0.060266  0  3.747089  0  0  -0.076968  0  4.001187  0  0  -0.079836  0  4.024035  0  0  -0.086861  -0.073911  0  3.9849  0
Br  Br70  1  0.26311175  0.51054211  0.99879349  1  0  -0.481467  0  1.064884  0  0  -0.410176  0  1.365466  0  0  -0.435506  0  1.342582  0  0  -0.220299  -0.394201  0  1.378532  0
Br  Br71  1  0.73683149  0.48947076  0.00119631  1  0  -0.481557  0  1.065049  0  0  -0.410273  0  1.365657  0  0  -0.435602  0  1.342769  0  0  -0.220325  -0.394297  0  1.378725  0
Br  Br72  1  0.54314202  0.28012525  0.27673988  1  0  -0.575243  0  0.890613  0  0  -0.519403  0  1.159942  0  0  -0.536172  0  1.135312  0  0  -0.285875  -0.50656  0  1.177173  0
Br  Br73  1  0.45671557  0.71990059  0.72327417  1  0  -0.575168  0  0.890559  0  0  -0.519392  0  1.159898  0  0  -0.536164  0  1.135267  0  0  -0.285912  -0.506563  0  1.177124  0
N  N74  1  0.51893243  0.04634649  0.75945721  1  0  -0.37371  0  3.383635  0  0  -0.311193  0  3.607607  0  0  -0.32954  0  3.621758  0  0  -0.371796  -0.298173  0  3.598859  0
N  N75  1  0.48106983  0.95364771  0.24055877  1  0  -0.373964  0  3.383755  0  0  -0.311339  0  3.607684  0  0  -0.329736  0  3.621876  0  0  -0.371843  -0.298299  0  3.598923  0
N  N76  1  0.45803078  0.26353698  0.81883149  1  0  -0.448181  0  3.081319  0  0  -0.384165  0  3.349445  0  0  -0.404881  0  3.365967  0  0  -0.334745  -0.368315  0  3.337393  0
N  N77  1  0.54196681  0.73645704  0.18117671  1  0  -0.448072  0  3.081146  0  0  -0.384021  0  3.349236  0  0  -0.404734  0  3.365756  0  0  -0.334691  -0.368168  0  3.337166  0
N  N78  1  0.96098509  0.84289084  0.14706108  1  0  -0.287285  0  3.041611  0  0  -0.257911  0  3.314429  0  0  -0.267919  0  3.328993  0  0  -0.294341  -0.251781  0  3.304181  0
N  N79  1  0.03904482  0.15712613  0.85292431  1  0  -0.287168  0  3.041342  0  0  -0.25781  0  3.31421  0  0  -0.267829  0  3.328776  0  0  -0.294257  -0.251712  0  3.304044  0
O  O80  1  0.21082557  0.60997366  0.23593540  1  0  -0.533306  0  2.049398  0  0  -0.477296  0  2.294332  0  0  -0.505381  0  2.291206  0  0  -0.309162  -0.45822  0  2.295881  0
O  O81  1  0.78916511  0.39003916  0.76405771  1  0  -0.533296  0  2.048832  0  0  -0.477194  0  2.29372  0  0  -0.505289  0  2.290604  0  0  -0.309084  -0.458117  0  2.295378  0
