# generated using pymatgen
data_Zn8H72C90SO29
_symmetry_space_group_name_H-M   'P 1'
_cell_length_a   18.44543237
_cell_length_b   18.20994598
_cell_length_c   18.26348411
_cell_angle_alpha   59.66935666
_cell_angle_beta   59.90899010
_cell_angle_gamma   60.28741437
_symmetry_Int_Tables_number   1
_chemical_formula_structural   Zn8H72C90SO29
_chemical_formula_sum   'Zn8 H72 C90 S1 O29'
_cell_volume   4333.10709310
_cell_formula_units_Z   1
loop_
 _symmetry_equiv_pos_site_id
 _symmetry_equiv_pos_as_xyz
  1  'x, y, z'
loop_
 _atom_site_type_symbol
 _atom_site_label
 _atom_site_symmetry_multiplicity
 _atom_site_fract_x
 _atom_site_fract_y
 _atom_site_fract_z
 _atom_site_occupancy
 _atom_site_pbe_bader_charge
 _atom_site_pbe_bader_spin_density
 _atom_site_pbe_cm5_charge
 _atom_site_pbe_ddec_charge
 _atom_site_pbe_ddec_spin_density
 _atom_site_pbe_ddec_sum_bond_order
 _atom_site_pbe_magmom
Zn  Zn0  1  0.86888865  0.04832125  0.54164964  1  1.29941  0  0.671424  0.954231  0  2.406524  0
Zn  Zn1  1  0.04091153  0.86976424  0.54563347  1  1.316931  0  0.676802  0.969011  0  2.361147  0
Zn  Zn2  1  0.04154214  0.04463596  0.54168443  1  1.314996  0  0.672479  0.950055  0  2.427629  0
Zn  Zn3  1  0.04007831  0.04863134  0.36398867  1  1.307051  0  0.667301  0.963328  0  2.344377  0
Zn  Zn4  1  0.62993887  0.45012103  0.96158074  1  1.306333  0  0.67253  0.955483  0  2.405345  0
Zn  Zn5  1  0.46062511  0.44865597  0.95583950  1  1.310307  0  0.673976  0.964922  0  2.369683  0
Zn  Zn6  1  0.45676399  0.62795100  0.95355898  1  1.310772  0  0.676136  0.96778  0  2.365659  0
Zn  Zn7  1  0.45700481  0.45522603  0.13223013  1  1.307588  0  0.665195  0.953479  0  2.387963  0
H  H8  1  0.88095849  0.28334417  0.19667331  1  0.037242  0  0.092047  0.090773  0  0.986088  0
H  H9  1  0.61565172  0.21924121  0.86991527  1  0.039201  0  0.092722  0.092774  0  0.988592  0
H  H10  1  0.90471424  0.15647781  0.75446302  1  0.017851  0  0.089381  0.086933  0  0.98674  0
H  H11  1  0.79856014  0.33062028  0.28112964  1  0.016332  0  0.09149  0.086699  0  0.978092  0
H  H12  1  0.90558412  0.25176397  0.65633870  1  0.053914  0  0.091544  0.091174  0  0.982393  0
H  H13  1  0.81601783  0.25054944  0.84105213  1  0.005911  0  0.089867  0.08774  0  0.985619  0
H  H14  1  0.78691268  0.08254630  0.82527039  1  0.012055  0  0.090764  0.086086  0  0.97796  0
H  H15  1  0.70060289  0.17255384  0.91493533  1  0.051801  0  0.090567  0.085547  0  0.977302  0
H  H16  1  0.27871578  0.12577579  0.21057556  1  0.041345  0  0.095133  0.096797  0  0.982654  0
H  H17  1  0.31883537  0.09408374  0.29585831  1  0.012609  0  0.093989  0.092338  0  0.97245  0
H  H18  1  0.40768589  0.18514274  0.19092040  1  0.03283  0  0.095392  0.093256  0  0.971687  0
H  H19  1  0.59841963  0.23330730  0.32108716  1  0.031635  0  0.087073  0.083617  0  0.98645  0
H  H20  1  0.35521561  0.23033767  0.11193769  1  0.044836  0  0.095882  0.099065  0  0.98265  0
H  H21  1  0.14722585  0.26939673  0.18636774  1  0.054325  0  0.101594  0.11217  0  0.969859  0
H  H22  1  0.70318174  0.41353475  0.19798352  1  0.028086  0  0.09057  0.085541  0  0.977125  0
H  H23  1  0.23139314  0.36588116  0.10228045  1  0.10706  0  0.11331  0.110017  0  1.001491  0
H  H24  1  0.14015446  0.27504193  0.39098440  1  0.053208  0  0.094066  0.101601  0  0.974423  0
H  H25  1  0.22591329  0.17289739  0.41376093  1  0.049817  0  0.089279  0.089518  0  1.017523  0
H  H26  1  0.33433898  0.24366054  0.31702535  1  0.026046  0  0.089508  0.088372  0  0.978919  0
H  H27  1  0.24634942  0.34567275  0.31644920  1  0.051457  0  0.092094  0.101402  0  1.001182  0
H  H28  1  0.08523663  0.32369480  0.26692458  1  0.055059  0  0.102375  0.105387  0  0.979963  0
H  H29  1  0.02627810  0.53475273  0.67889797  1  0.071693  0  0.09437  0.089255  0  1.036948  0
H  H30  1  0.80833808  0.08625462  0.28734548  1  -0.028019  0  0.0903  0.085784  0  0.977257  0
H  H31  1  0.18931251  0.49917791  0.62888573  1  0.082782  0  0.100114  0.095446  0  0.995752  0
H  H32  1  0.26963147  0.58029183  0.47293116  1  0.053025  0  0.099489  0.098638  0  0.998884  0
H  H33  1  0.78637845  0.37010949  0.11094537  1  0.063383  0  0.091367  0.090678  0  1.006185  0
H  H34  1  0.02436715  0.73522614  0.41716668  1  0.024294  0  0.098646  0.097702  0  0.996834  0
H  H35  1  0.94427801  0.65295999  0.57247855  1  0.080216  0  0.095976  0.090487  0  1.008933  0
H  H36  1  0.27297581  0.58750254  0.31088927  1  0.110145  0  0.108097  0.118786  0  0.999468  0
H  H37  1  0.22447198  0.91357849  0.18748186  1  0.077463  0  0.107925  0.119601  0  1.001008  0
H  H38  1  0.47318398  0.76470560  0.08254127  1  0.054706  0  0.097636  0.09678  0  0.998121  0
H  H39  1  0.55425012  0.84741124  0.92813332  1  0.069458  0  0.095719  0.090691  0  1.008929  0
H  H40  1  0.47329807  0.96660355  0.82103292  1  0.076727  0  0.093556  0.088424  0  1.043034  0
H  H41  1  0.72089815  0.16955928  0.19589180  1  -0.009145  0  0.088503  0.082181  0  0.982231  0
H  H42  1  0.31036078  0.00248327  0.86945840  1  0.057818  0  0.100566  0.096491  0  0.994999  0
H  H43  1  0.22910785  0.92094818  0.02476187  1  0.037066  0  0.100515  0.100206  0  0.99762  0
H  H44  1  0.21952548  0.18730682  0.57644873  1  0.056114  0  0.10164  0.098008  0  0.991932  0
H  H45  1  0.88884050  0.13855452  0.20231202  1  0.059147  0  0.092749  0.093808  0  0.98704  0
H  H46  1  0.35193795  0.07552080  0.50908384  1  0.040869  0  0.097227  0.089886  0  1.000665  0
H  H47  1  0.35807967  0.91625721  0.57186701  1  0.058859  0  0.097917  0.097794  0  1.001422  0
H  H48  1  0.10070674  0.97912231  0.76973977  1  0.069854  0  0.100667  0.099207  0  0.994329  0
H  H49  1  0.09428037  0.13813555  0.70771314  1  0.039448  0  0.099393  0.093812  0  1.001111  0
H  H50  1  0.32348387  0.80595862  0.77890996  1  0.113756  0  0.109479  0.121253  0  0.999964  0
H  H51  1  0.17033395  0.68767189  0.72690395  1  0.120164  0  0.110464  0.123144  0  0.997991  0
H  H52  1  0.70449404  0.26794947  0.63723508  1  0.044186  0  0.092734  0.092569  0  0.986964  0
H  H53  1  0.38611294  0.51240958  0.73541544  1  0.066724  0  0.099774  0.098807  0  0.995213  0
H  H54  1  0.38761143  0.35448751  0.80224526  1  0.030229  0  0.096859  0.090037  0  1.002036  0
H  H55  1  0.26372052  0.30906491  0.93925301  1  0.046455  0  0.096994  0.091659  0  1.001413  0
H  H56  1  0.13829679  0.42369006  0.00884818  1  0.071912  0  0.099546  0.099691  0  1.002307  0
H  H57  1  0.79851062  0.22617031  0.11209468  1  0.055238  0  0.092967  0.094461  0  0.987369  0
H  H58  1  0.13820181  0.58004022  0.94288735  1  0.047576  0  0.102697  0.11052  0  0.992854  0
H  H59  1  0.51439349  0.19592065  0.61580356  1  0.053515  0  0.100467  0.094886  0  0.996229  0
H  H60  1  0.58204925  0.13296904  0.73279826  1  0.050059  0  0.098691  0.091523  0  1.003969  0
H  H61  1  0.67258739  0.97192765  0.77790242  1  0.069845  0  0.100668  0.098752  0  0.993171  0
H  H62  1  0.62499477  0.93382307  0.59348548  1  0.033998  0  0.099903  0.100333  0  0.9974  0
H  H63  1  0.78468637  0.32064606  0.58827796  1  0.016836  0  0.092462  0.088536  0  0.974129  0
H  H64  1  0.53545544  0.09555729  0.54694707  1  0.073746  0  0.1003  0.094351  0  0.995268  0
H  H65  1  0.58647411  0.81083512  0.78491937  1  0.093351  0  0.107811  0.117614  0  1.022643  0
H  H66  1  0.90968863  0.68862024  0.71905974  1  0.098287  0  0.109065  0.119561  0  1.020021  0
H  H67  1  0.86034622  0.56714321  0.92027236  1  0.040722  0  0.101433  0.102474  0  0.993746  0
H  H68  1  0.94925684  0.40587273  0.97048479  1  0.047012  0  0.10129  0.096077  0  0.994224  0
H  H69  1  0.68892454  0.15309062  0.41020259  1  0.060325  0  0.087337  0.08391  0  1.003624  0
H  H70  1  0.98030124  0.30420712  0.89745333  1  0.050412  0  0.099182  0.093298  0  0.999647  0
H  H71  1  0.92319430  0.36557341  0.77282962  1  0.057779  0  0.100324  0.095353  0  1.004374  0
H  H72  1  0.83355871  0.52642587  0.72347922  1  0.033166  0  0.100411  0.098453  0  0.994036  0
H  H73  1  0.68335862  0.25402970  0.40580436  1  0.017564  0  0.089304  0.087773  0  0.985865  0
H  H74  1  0.69164664  0.41054159  0.67789034  1  0.002378  0  0.09135  0.086805  0  0.976589  0
H  H75  1  0.59012539  0.33423131  0.31977288  1  0.009641  0  0.089858  0.088887  0  0.983606  0
H  H76  1  0.81366500  0.34560385  0.74291348  1  0.015911  0  0.089565  0.086444  0  0.992854  0
H  H77  1  0.23688732  0.51273843  0.15658008  1  0.630564  0  0.338126  0.392512  0  0.867021  0
H  H78  1  0.61229922  0.35599647  0.73028646  1  0.036087  0  0.092611  0.092729  0  0.987418  0
H  H79  1  0.70424161  0.13112508  0.77679497  1  0.024866  0  0.091434  0.090036  0  0.99846  0
C  C80  1  0.13169116  0.86337327  0.35990085  1  1.563296  0  0.229044  0.609169  0  4.163719  0
C  C81  1  0.86137815  0.21927780  0.72040856  1  -0.059945  0  -0.165377  -0.180232  0  3.89053  0
C  C82  1  0.80426752  0.19642331  0.70119237  1  0.061101  0  -0.016193  0.022395  0  3.811054  0
C  C83  1  0.86092923  0.13749016  0.64257556  1  1.529332  0  0.233783  0.599598  0  4.102163  0
C  C84  1  0.70360464  0.29765220  0.80151836  1  0.056288  0  -0.016424  0.02393  0  3.808594  0
C  C85  1  0.68631891  0.20645435  0.85159877  1  -0.058255  0  -0.157459  -0.170984  0  3.856341  0
C  C86  1  0.80167827  0.28070961  0.77837762  1  0.026403  0  -0.16545  -0.181568  0  3.893286  0
C  C87  1  0.28660760  0.15218269  0.24759335  1  -0.015747  0  -0.157254  -0.174693  0  3.859461  0
C  C88  1  0.34259072  0.21593182  0.18255698  1  -0.033103  0  -0.154661  -0.166788  0  3.844076  0
C  C89  1  0.15290367  0.28857427  0.23094009  1  -0.022591  0  -0.15043  -0.193166  0  3.840916  0
C  C90  1  0.20491825  0.23255906  0.35906081  1  -0.024174  0  -0.167813  -0.187557  0  3.878548  0
C  C91  1  0.69882776  0.21829467  0.36346460  1  -0.029881  0  -0.166039  -0.179388  0  3.885679  0
C  C92  1  0.19436353  0.20384400  0.29987125  1  0.054558  0  -0.015257  0.029063  0  3.802843  0
C  C93  1  0.29501480  0.30595493  0.20126427  1  0.056634  0  -0.013737  0.01527  0  3.793313  0
C  C94  1  0.21066097  0.35114859  0.17484494  1  -0.131545  0  -0.068246  -0.179261  0  3.752176  0
C  C95  1  0.85922806  0.86359814  0.63881872  1  1.565582  0  0.227833  0.60308  0  4.165217  0
C  C96  1  0.27220803  0.28420746  0.30175568  1  -0.037909  0  -0.169423  -0.185747  0  3.890928  0
C  C97  1  0.15301857  0.55043168  0.58239519  1  -0.033839  0  -0.095118  -0.080763  0  4.039975  0
C  C98  1  0.19825362  0.59582773  0.49476633  1  -0.07683  0  -0.093927  -0.135421  0  3.985898  0
C  C99  1  0.15243762  0.66333430  0.43471690  1  0.017955  0  -0.00902  0.076381  0  4.008404  0
C  C100  1  0.06056645  0.68329717  0.46360590  1  -0.003447  0  -0.095078  -0.1316  0  3.98544  0
C  C101  1  0.01565981  0.63706615  0.55077703  1  -0.021152  0  -0.096172  -0.079338  0  4.038831  0
C  C102  1  0.79651452  0.20274070  0.30277659  1  0.028298  0  -0.016396  0.022038  0  3.808656  0
C  C103  1  0.06155967  0.57073018  0.61070940  1  -0.141084  0  -0.097777  -0.092044  0  4.020344  0
C  C104  1  0.26263780  0.65930892  0.28457822  1  0.016688  0  -0.079743  -0.13985  0  3.942676  0
C  C105  1  0.30938411  0.69767872  0.19412991  1  -0.055702  0  -0.01177  -0.069962  0  3.936088  0
C  C106  1  0.29620196  0.79093676  0.15721957  1  0.039576  0  0.006205  0.063006  0  3.961179  0
C  C107  1  0.13591642  0.14401247  0.35630136  1  1.573516  0  0.236437  0.605929  0  4.094566  0
C  C108  1  0.23494976  0.84174560  0.21364365  1  -0.021645  0  -0.079739  -0.141168  0  3.948136  0
C  C109  1  0.18850230  0.80336537  0.30414369  1  0.010221  0  -0.009916  -0.068254  0  3.929514  0
C  C110  1  0.20147171  0.71009173  0.34106527  1  -0.029007  0  0.007094  0.064828  0  3.953697  0
C  C111  1  0.43751097  0.81716140  0.03575997  1  -0.063746  0  -0.09597  -0.134231  0  3.991705  0
C  C112  1  0.48289907  0.86365730  0.94910330  1  -0.097699  0  -0.098108  -0.08087  0  4.040453  0
C  C113  1  0.69357279  0.29570773  0.20514084  1  0.061678  0  -0.016586  0.020889  0  3.810959  0
C  C114  1  0.43751733  0.93054616  0.88885173  1  -0.044081  0  -0.098755  -0.094147  0  4.024097  0
C  C115  1  0.34616865  0.95095197  0.91627766  1  -0.027365  0  -0.095365  -0.082306  0  4.040479  0
C  C116  1  0.30041191  0.90534897  0.00345234  1  -0.022614  0  -0.092769  -0.132298  0  3.982702  0
C  C117  1  0.34568395  0.83752204  0.06383807  1  0.016345  0  -0.009797  0.075677  0  4.011766  0
C  C118  1  0.29662246  0.05470359  0.56634097  1  -0.085456  0  -0.098045  -0.086593  0  4.062381  0
C  C119  1  0.13674527  0.86152796  0.63976499  1  1.543399  0  0.228252  0.60306  0  4.166768  0
C  C120  1  0.30026091  0.96515055  0.60156946  1  -0.058983  0  -0.09638  -0.143433  0  3.994549  0
C  C121  1  0.22962522  0.93729089  0.67453179  1  -0.011222  0  -0.006461  0.081228  0  3.998944  0
C  C122  1  0.15592981  0.00033374  0.71286490  1  -0.081222  0  -0.089485  -0.119487  0  3.977691  0
C  C123  1  0.15240414  0.08963503  0.67778850  1  0.013136  0  -0.094644  -0.083257  0  4.039582  0
C  C124  1  0.75880993  0.20819467  0.18396383  1  -0.002771  0  -0.158161  -0.172362  0  3.860565  0
C  C125  1  0.22261679  0.11730650  0.60417380  1  -0.009653  0  -0.096077  -0.093053  0  4.039595  0
C  C126  1  0.28974321  0.78058001  0.76646153  1  -0.077397  0  -0.079858  -0.140991  0  3.943792  0
C  C127  1  0.30165496  0.68819735  0.80607724  1  -0.045015  0  -0.008593  -0.06592  0  3.925911  0
C  C128  1  0.25787195  0.65283134  0.79283199  1  -0.010313  0  0.009007  0.066236  0  3.947901  0
C  C129  1  0.20456042  0.71294601  0.73887883  1  0.02859  0  -0.078393  -0.13983  0  3.942102  0
C  C130  1  0.19330371  0.80520184  0.69853151  1  -0.057887  0  -0.01044  -0.068452  0  3.93123  0
C  C131  1  0.85808667  0.14857517  0.35817372  1  1.544589  0  0.234958  0.603119  0  4.095296  0
C  C132  1  0.23604431  0.84080399  0.71295930  1  0.090058  0  0.007081  0.062611  0  3.951397  0
C  C133  1  0.33169513  0.49262152  0.79510117  1  0.035966  0  -0.091752  -0.122388  0  3.984894  0
C  C134  1  0.33248698  0.40397794  0.83290473  1  -0.112127  0  -0.0981  -0.086089  0  4.051093  0
C  C135  1  0.63794941  0.27198678  0.30559335  1  -0.027269  0  -0.166006  -0.178231  0  3.892324  0
C  C136  1  0.26313621  0.37839795  0.91000097  1  -0.054787  0  -0.10149  -0.102306  0  4.053963  0
C  C137  1  0.19313838  0.44215758  0.94892676  1  -0.063052  0  -0.09863  -0.088276  0  4.049887  0
C  C138  1  0.19252281  0.53093423  0.91135864  1  0.033242  0  -0.091236  -0.129735  0  3.962189  0
C  C139  1  0.26187681  0.55683149  0.83431913  1  -0.052268  0  -0.007428  0.07607  0  3.996684  0
C  C140  1  0.59166136  0.08960926  0.70173241  1  -0.012821  0  -0.092296  -0.079887  0  4.038568  0
C  C141  1  0.64241971  0.99907195  0.72727513  1  -0.047468  0  -0.088991  -0.12193  0  3.974931  0
C  C142  1  0.65550993  0.94231285  0.68800946  1  0.021794  0  -0.005516  0.080399  0  4.000934  0
C  C143  1  0.81112213  0.29481108  0.24008172  1  -0.017323  0  -0.155556  -0.16847  0  3.852144  0
C  C144  1  0.61554981  0.97774975  0.62384221  1  -0.035719  0  -0.093125  -0.138705  0  3.986166  0
C  C145  1  0.56537213  0.06865551  0.59770733  1  -0.101602  0  -0.093661  -0.080659  0  4.050457  0
C  C146  1  0.74349765  0.28476489  0.65286962  1  -0.041188  0  -0.15604  -0.170226  0  3.848392  0
C  C147  1  0.55335481  0.12490788  0.63644927  1  -0.049829  0  -0.094984  -0.093015  0  4.035815  0
C  C148  1  0.65799464  0.78475136  0.76922106  1  -0.069756  0  -0.08044  -0.142587  0  3.953945  0
C  C149  1  0.69734429  0.69166855  0.80455178  1  0.009762  0  -0.010985  -0.070329  0  3.933479  0
C  C150  1  0.78979274  0.65494999  0.78739651  1  0.034014  0  0.007112  0.062516  0  3.950543  0
C  C151  1  0.83815252  0.71476012  0.73493174  1  -0.062013  0  -0.079912  -0.143051  0  3.949366  0
C  C152  1  0.79885879  0.80785342  0.69935537  1  -0.018087  0  -0.010428  -0.068261  0  3.928607  0
C  C153  1  0.70619564  0.84465395  0.71771889  1  0.005164  0  0.005954  0.059919  0  3.953166  0
C  C154  1  0.87409164  0.52279580  0.88804613  1  -0.06171  0  -0.092054  -0.134463  0  3.976432  0
C  C155  1  0.74864985  0.35087078  0.18336078  1  -0.054763  0  -0.156266  -0.170137  0  3.84346  0
C  C156  1  0.92387878  0.43202253  0.91637255  1  -0.049631  0  -0.093305  -0.080342  0  4.049379  0
C  C157  1  0.68249504  0.34415440  0.71319415  1  -0.004736  0  -0.156548  -0.172176  0  3.854246  0
C  C158  1  0.94139066  0.37507277  0.87538473  1  0.026707  0  -0.097085  -0.098153  0  4.044932  0
C  C159  1  0.90913809  0.40949907  0.80563041  1  -0.099859  0  -0.092373  -0.078722  0  4.0369  0
C  C160  1  0.85883183  0.49994534  0.77777519  1  -0.020858  0  -0.089968  -0.125829  0  3.977324  0
C  C161  1  0.84014486  0.55736551  0.81928475  1  0.041265  0  -0.006392  0.078901  0  4.000372  0
C  C162  1  0.35618565  0.36318710  0.14038347  1  1.543064  0  0.227577  0.581072  0  4.141837  0
C  C163  1  0.63732790  0.63562550  0.86350808  1  1.586429  0  0.228231  0.604921  0  4.164333  0
C  C164  1  0.64282982  0.35676813  0.85990104  1  1.56161  0  0.234583  0.60111  0  4.102242  0
C  C165  1  0.36712251  0.63768613  0.13853208  1  1.526931  0  0.226415  0.604744  0  4.165992  0
C  C166  1  0.36051862  0.63164484  0.86244977  1  1.524019  0  0.230677  0.611712  0  4.152965  0
C  C167  1  0.81840461  0.15198752  0.24356213  1  -0.001255  0  -0.157538  -0.171695  0  3.858845  0
C  C168  1  0.74484390  0.14709573  0.79125362  1  -0.001344  0  -0.157003  -0.171601  0  3.858888  0
C  C169  1  0.63610869  0.35040825  0.14555308  1  1.502456  0  0.234989  0.602526  0  4.09563  0
S  S170  1  0.13973232  0.46100834  0.18576794  1  2.991252  0  0.529923  1.152002  0  5.920964  0
O  O171  1  0.99879909  0.00190116  0.49635685  1  -1.215227  0  -0.573304  -1.029978  0  2.545099  0
O  O172  1  0.38288653  0.67445060  0.05390517  1  -1.158545  0  -0.303635  -0.536651  0  2.38708  0
O  O173  1  0.38893825  0.54678907  0.88103229  1  -1.15338  0  -0.303658  -0.538276  0  2.395977  0
O  O174  1  0.10540782  0.94782781  0.31756524  1  -1.17907  0  -0.316364  -0.546712  0  2.326029  0
O  O175  1  0.55206334  0.37180288  0.18377527  1  -1.160199  0  -0.315401  -0.548273  0  2.349939  0
O  O176  1  0.37835040  0.67380409  0.88655657  1  -1.163657  0  -0.312608  -0.539298  0  2.341322  0
O  O177  1  0.67701070  0.37100935  0.06091468  1  -1.167968  0  -0.312901  -0.543937  0  2.360067  0
O  O178  1  0.67922364  0.38554389  0.87931491  1  -1.179024  0  -0.3114  -0.545253  0  2.374836  0
O  O179  1  0.39383470  0.55325612  0.18131664  1  -1.179591  0  -0.319237  -0.548138  0  2.330858  0
O  O180  1  0.39233908  0.36914787  0.05822035  1  -1.178445  0  -0.306526  -0.529065  0  2.360554  0
O  O181  1  0.55560776  0.67587760  0.87013801  1  -1.168611  0  -0.312822  -0.541124  0  2.340578  0
O  O182  1  0.82438685  0.94711989  0.60099343  1  -1.183049  0  -0.305544  -0.536644  0  2.405131  0
O  O183  1  0.81981881  0.11226556  0.62483315  1  -1.176206  0  -0.315157  -0.552081  0  2.356072  0
O  O184  1  0.94156802  0.82228449  0.62856111  1  -1.167446  0  -0.31074  -0.539042  0  2.346515  0
O  O185  1  0.11096965  0.12164127  0.44118788  1  -1.176771  0  -0.307964  -0.530866  0  2.38018  0
O  O186  1  0.11387427  0.81969180  0.62027625  1  -1.163803  0  -0.311386  -0.536791  0  2.336413  0
O  O187  1  0.94134443  0.12544311  0.31557049  1  -1.17613  0  -0.318146  -0.555288  0  2.329712  0
O  O188  1  0.11575605  0.94662697  0.61364516  1  -1.155566  0  -0.30407  -0.536047  0  2.414995  0
O  O189  1  0.82166495  0.13072475  0.44301546  1  -1.169194  0  -0.312013  -0.539897  0  2.37248  0
O  O190  1  0.07690734  0.49720637  0.14175936  1  -1.290694  0  -0.315946  -0.523614  0  2.104829  0
O  O191  1  0.11036851  0.45698310  0.27691800  1  -1.290055  0  -0.320645  -0.541978  0  2.113316  0
O  O192  1  0.20486987  0.52142688  0.12154017  1  -1.180822  0  -0.363762  -0.53158  0  2.14594  0
O  O193  1  0.11728460  0.12069858  0.31410244  1  -1.187026  0  -0.317505  -0.55445  0  2.321134  0
O  O194  1  0.11676550  0.82545774  0.44440320  1  -1.183072  0  -0.304944  -0.538376  0  2.394664  0
O  O195  1  0.94458156  0.11780754  0.61572710  1  -1.174524  0  -0.310452  -0.540663  0  2.371609  0
O  O196  1  0.49992421  0.49562972  0.00078333  1  -1.210313  0  -0.574602  -1.031636  0  2.546059  0
O  O197  1  0.36596402  0.40063593  0.17673726  1  -1.188458  0  -0.316549  -0.560416  0  2.364376  0
O  O198  1  0.67176649  0.55276209  0.90368752  1  -1.181544  0  -0.304577  -0.535664  0  2.407581  0
O  O199  1  0.55976297  0.37310905  0.88474601  1  -1.186  0  -0.315851  -0.550598  0  2.347518  0
