# generated using pymatgen
data_Cu3H21(C5N2)4
_symmetry_space_group_name_H-M   'P 1'
_cell_length_a   11.35707312
_cell_length_b   11.36619308
_cell_length_c   12.93520000
_cell_angle_alpha   88.85401739
_cell_angle_beta   64.61393701
_cell_angle_gamma   69.05691607
_symmetry_Int_Tables_number   1
_chemical_formula_structural   Cu3H21(C5N2)4
_chemical_formula_sum   'Cu6 H42 C40 N16'
_cell_volume   1391.19248859
_cell_formula_units_Z   2
loop_
 _symmetry_equiv_pos_site_id
 _symmetry_equiv_pos_as_xyz
  1  'x, y, z'
loop_
 _atom_site_type_symbol
 _atom_site_label
 _atom_site_symmetry_multiplicity
 _atom_site_fract_x
 _atom_site_fract_y
 _atom_site_fract_z
 _atom_site_occupancy
 _atom_site_pbe_bader_charge
 _atom_site_pbe_bader_spin_density
 _atom_site_pbe_cm5_charge
 _atom_site_pbe_ddec_charge
 _atom_site_pbe_ddec_spin_density
 _atom_site_pbe_ddec_sum_bond_order
 _atom_site_pbe_magmom
Cu  Cu0  1  0.13479298  0.95038921  0.99889797  1  0.649088  0  0.481001  0.277651  0  2.847875  0
Cu  Cu1  1  0.86522719  0.04960645  0.00110502  1  0.648869  0  0.480995  0.277754  0  2.847759  0
Cu  Cu2  1  0.82298513  0.12355151  0.40869480  1  0.653713  0  0.49875  0.300998  0  2.767089  0
Cu  Cu3  1  0.17700717  0.87645463  0.59130691  1  0.653886  0  0.498777  0.301012  0  2.767001  0
Cu  Cu4  1  0.35366896  0.18282014  0.70659779  1  0.657386  0  0.508489  0.321236  0  2.783889  0
Cu  Cu5  1  0.64632220  0.81718410  0.29340592  1  0.657449  0  0.50852  0.321242  0  2.783827  0
H  H6  1  0.12005396  0.09299754  0.28584117  1  0.506306  0  0.342853  0.287102  0  0.906404  0
H  H7  1  0.87993949  0.90699907  0.71416414  1  0.506241  0  0.342905  0.287275  0  0.906152  0
H  H8  1  0.37553073  0.83289277  0.77940535  1  0.499896  0  0.334749  0.279226  0  0.936228  0
H  H9  1  0.62447417  0.16710669  0.22059328  1  0.500058  0  0.334737  0.279265  0  0.936308  0
H  H10  1  0.08360295  0.17005744  0.70095039  1  0.106493  0  0.108388  0.131261  0  0.97638  0
H  H11  1  0.91639569  0.82994299  0.29905058  1  0.106494  0  0.108384  0.131268  0  0.976405  0
H  H12  1  0.25426249  0.13237989  0.59060589  1  0.043095  0  0.097155  0.104345  0  1.024928  0
H  H13  1  0.74573527  0.86761576  0.40939550  1  0.043116  0  0.09718  0.104359  0  1.024959  0
H  H14  1  0.77719074  0.31618361  0.69192437  1  0.056674  0  0.092584  0.131197  0  0.989466  0
H  H15  1  0.22280400  0.68381681  0.30807652  1  0.056693  0  0.092564  0.131185  0  0.989462  0
H  H16  1  0.85817056  0.17180804  0.73392935  1  0.076196  0  0.093988  0.139608  0  1.012595  0
H  H17  1  0.14181988  0.82819334  0.26607546  1  0.076084  0  0.09395  0.139531  0  1.012699  0
H  H18  1  0.75863137  0.17570516  0.65672727  1  0.075555  0  0.094763  0.139221  0  1.016091  0
H  H19  1  0.24136743  0.82429717  0.34327128  1  0.075487  0  0.094787  0.139222  0  1.016077  0
H  H20  1  0.27757016  0.40904377  0.84708312  1  0.063032  0  0.104969  0.111196  0  0.975207  0
H  H21  1  0.72242465  0.59096333  0.15291917  1  0.062987  0  0.10496  0.11115  0  0.97521  0
H  H22  1  0.41235723  0.39547302  0.70860309  1  0.072718  0  0.105102  0.121413  0  0.981779  0
H  H23  1  0.58764141  0.60452740  0.29140097  1  0.072721  0  0.105088  0.121387  0  0.981728  0
H  H24  1  0.11908087  0.66249667  0.72049299  1  0.100585  0  0.102003  0.11172  0  1.044462  0
H  H25  1  0.88091956  0.33750185  0.27949729  1  0.10063  0  0.101981  0.111749  0  1.044435  0
H  H26  1  0.97803669  0.42648302  0.58151071  1  0.078003  0  0.100831  0.110138  0  1.031607  0
H  H27  1  0.02196993  0.57350787  0.41848046  1  0.077581  0  0.100822  0.110162  0  1.031632  0
H  H28  1  0.11009695  0.58003518  0.04877996  1  0.048729  0  0.091472  0.130578  0  0.987045  0
H  H29  1  0.88990104  0.41996906  0.95122274  1  0.048589  0  0.091492  0.130596  0  0.98701  0
H  H30  1  0.00267465  0.64940006  0.97911855  1  0.060219  0  0.095104  0.138228  0  0.98457  0
H  H31  1  0.99732739  0.35060608  0.02088258  1  0.060335  0  0.095137  0.138285  0  0.984498  0
H  H32  1  0.01911642  0.74938665  0.07111842  1  0.103864  0  0.094688  0.135502  0  1.028397  0
H  H33  1  0.98088270  0.25061949  0.92888304  1  0.103936  0  0.094685  0.135543  0  1.028424  0
H  H34  1  0.39517118  0.02563035  0.28605543  1  0.080429  0  0.096197  0.142261  0  1.014394  0
H  H35  1  0.60482350  0.97436340  0.71395256  1  0.080415  0  0.096192  0.142246  0  1.014438  0
H  H36  1  0.37867203  0.13244476  0.39283942  1  0.057089  0  0.100875  0.149348  0  0.992273  0
H  H37  1  0.62132127  0.86754993  0.60716675  1  0.057097  0  0.100895  0.149362  0  0.992262  0
H  H38  1  0.33860285  0.19178208  0.27829664  1  0.046924  0  0.095793  0.136041  0  0.981615  0
H  H39  1  0.66139947  0.80820976  0.72170773  1  0.046813  0  0.095763  0.136002  0  0.981566  0
H  H40  1  0.55093671  0.67627252  0.58776702  1  0.054969  0  0.09828  0.144928  0  0.999521  0
H  H41  1  0.44906454  0.32372408  0.41222994  1  0.054959  0  0.098284  0.144936  0  0.999482  0
H  H42  1  0.49585164  0.55904703  0.55970827  1  0.060235  0  0.096549  0.137124  0  1.018128  0
H  H43  1  0.50414797  0.44095339  0.44028846  1  0.060413  0  0.096539  0.1371  0  1.018156  0
H  H44  1  0.60838093  0.52232445  0.62742336  1  0.030631  0  0.095793  0.13543  0  0.99097  0
H  H45  1  0.39161520  0.47767502  0.37257548  1  0.030618  0  0.0958  0.13542  0  0.990917  0
H  H46  1  0.96799293  0.64339650  0.63104248  1  0.085753  0  0.100247  0.089129  0  1.050464  0
H  H47  1  0.03201914  0.35659534  0.36894044  1  0.085575  0  0.100228  0.089115  0  1.050472  0
C  C48  1  0.96233739  0.17862346  0.55256048  1  0.452627  0  0.095687  0.196352  0  4.012306  0
C  C49  1  0.03765914  0.82137505  0.44744208  1  0.452548  0  0.095648  0.196376  0  4.012318  0
C  C50  1  0.01214459  0.01688306  0.15032707  1  0.708451  0  -0.070787  -0.137344  0  3.993203  0
C  C51  1  0.98787559  0.98311259  0.84967438  1  0.708792  0  -0.070876  -0.137455  0  3.993355  0
C  C52  1  0.20017697  0.67347824  0.90664168  1  0.444713  0  0.097873  0.205396  0  3.987096  0
C  C53  1  0.79982280  0.32652409  0.09335960  1  0.44436  0  0.097849  0.20541  0  3.98715  0
C  C54  1  0.29925237  0.08854042  0.82160364  1  0.697749  0  -0.072076  -0.156696  0  3.944639  0
C  C55  1  0.70073707  0.91147241  0.17840444  1  0.697646  0  -0.072074  -0.156694  0  3.944645  0
C  C56  1  0.09712250  0.17428464  0.53139081  1  -0.01131  0  -0.036648  -0.121226  0  4.013754  0
C  C57  1  0.90287265  0.82571483  0.46861226  1  -0.011385  0  -0.036705  -0.121313  0  4.013936  0
C  C58  1  0.39158523  0.64354246  0.73781998  1  0.374251  0  0.100681  0.196056  0  4.002021  0
C  C59  1  0.60841480  0.35645701  0.26217662  1  0.374169  0  0.100649  0.195944  0  4.002221  0
C  C60  1  0.18116677  0.13865535  0.41154279  1  0.43087  0  0.102815  0.201078  0  3.988518  0
C  C61  1  0.81882782  0.86134316  0.58845896  1  0.430724  0  0.102879  0.201124  0  3.988684  0
C  C62  1  0.14338578  0.19751471  0.61825500  1  -0.024432  0  -0.152279  -0.248582  0  3.996681  0
C  C63  1  0.85661522  0.80248476  0.38174355  1  -0.024409  0  -0.152277  -0.24854  0  3.996621  0
C  C64  1  0.29994555  0.58541482  0.80377589  1  0.039498  0  -0.041687  -0.12399  0  4.008102  0
C  C65  1  0.70005438  0.41458941  0.19622298  1  0.039977  0  -0.041689  -0.124002  0  4.008175  0
C  C66  1  0.13119013  0.33171389  0.64299707  1  0.497422  0  0.118752  0.273231  0  3.926351  0
C  C67  1  0.86881235  0.66827985  0.35699871  1  0.497746  0  0.118688  0.273032  0  3.926626  0
C  C68  1  0.83219022  0.21208048  0.66486681  1  -0.097797  0  -0.235923  -0.421039  0  3.956862  0
C  C69  1  0.16780258  0.78791994  0.33513558  1  -0.097542  0  -0.235845  -0.420936  0  3.956999  0
C  C70  1  0.20739988  0.45968913  0.71866322  1  0.444064  0  0.120007  0.269874  0  3.912053  0
C  C71  1  0.79259867  0.54031606  0.28133383  1  0.4441  0  0.120051  0.269943  0  3.912259  0
C  C72  1  0.30417985  0.45849662  0.77097583  1  -0.009758  0  -0.150624  -0.238332  0  4.002821  0
C  C73  1  0.69582285  0.54150571  0.22902822  1  -0.009827  0  -0.150537  -0.238192  0  4.002984  0
C  C74  1  0.12010878  0.56998853  0.69827333  1  0.002974  0  -0.094269  -0.192739  0  3.955474  0
C  C75  1  0.87988978  0.43001666  0.30171908  1  0.003257  0  -0.094289  -0.192873  0  3.955433  0
C  C76  1  0.04169523  0.43857791  0.62070084  1  -0.027522  0  -0.099942  -0.200439  0  3.973073  0
C  C77  1  0.95831171  0.56141678  0.37929169  1  -0.027067  0  -0.099943  -0.200437  0  3.97318  0
C  C78  1  0.07694973  0.66224004  0.00681348  1  -0.096844  0  -0.233459  -0.41376  0  3.957649  0
C  C79  1  0.92304964  0.33776325  0.99318639  1  -0.096925  0  -0.233541  -0.413903  0  3.957626  0
C  C80  1  0.33072468  0.12124663  0.33790397  1  -0.05568  0  -0.232214  -0.425376  0  3.960783  0
C  C81  1  0.66927145  0.87875284  0.66210028  1  -0.055475  0  -0.23221  -0.425337  0  3.960798  0
C  C82  1  0.51845259  0.59820424  0.62269731  1  -0.012387  0  -0.229426  -0.419582  0  3.969256  0
C  C83  1  0.48154744  0.40179523  0.37730006  1  -0.012375  0  -0.22942  -0.419508  0  3.969177  0
C  C84  1  0.03647443  0.55877991  0.64847198  1  -0.08046  0  -0.079063  -0.024769  0  4.013144  0
C  C85  1  0.96353144  0.44121956  0.35151778  1  -0.080369  0  -0.078995  -0.024687  0  4.013  0
C  C86  1  0.64102835  0.15184545  0.51053682  1  0.707212  0  -0.073741  -0.138254  0  3.974833  0
C  C87  1  0.35896737  0.84815497  0.48945519  1  0.707139  0  -0.073685  -0.138197  0  3.974813  0
N  N88  1  0.22938426  0.77862314  0.90358950  1  -0.713811  0  -0.286333  -0.184878  0  3.566835  0
N  N89  1  0.77062121  0.22137728  0.09641199  1  -0.713817  0  -0.286314  -0.184934  0  3.566923  0
N  N90  1  0.21228094  0.34331843  0.69079647  1  -1.234263  0  -0.356174  -0.302511  0  3.553655  0
N  N91  1  0.78772103  0.65668104  0.30920094  1  -1.234957  0  -0.356181  -0.302412  0  3.553688  0
N  N92  1  0.09695986  0.12279308  0.36851178  1  -0.855234  0  -0.28928  -0.149711  0  3.692883  0
N  N93  1  0.90303083  0.87720544  0.63149299  1  -0.855402  0  -0.289303  -0.149875  0  3.692908  0
N  N94  1  0.96397785  0.14663466  0.45218511  1  -0.728535  0  -0.286676  -0.207083  0  3.559763  0
N  N95  1  0.03601868  0.85336385  0.54781978  1  -0.728154  0  -0.286699  -0.207125  0  3.559855  0
N  N96  1  0.25607727  0.02713482  0.89175534  1  -1.41065  0  -0.443353  -0.319209  0  3.632254  0
N  N97  1  0.74393046  0.97286942  0.10824832  1  -1.410576  0  -0.443382  -0.319272  0  3.632327  0
N  N98  1  0.34539841  0.75797080  0.80160711  1  -0.845455  0  -0.288919  -0.150274  0  3.708615  0
N  N99  1  0.65460624  0.24203153  0.19839002  1  -0.845648  0  -0.288914  -0.150282  0  3.708706  0
N  N100  1  0.94050178  0.06258189  0.24900317  1  -1.436233  0  -0.455898  -0.330376  0  3.683258  0
N  N101  1  0.05950621  0.93741948  0.75100200  1  -1.436528  0  -0.455784  -0.33026  0  3.683378  0
N  N102  1  0.52728517  0.16347288  0.58104187  1  -1.42696  0  -0.457673  -0.340695  0  3.712948  0
N  N103  1  0.47270731  0.83652372  0.41895143  1  -1.427137  0  -0.457758  -0.340767  0  3.713092  0
