# generated using pymatgen
data_CuH6C2(N5Cl)2
_symmetry_space_group_name_H-M   'P 1'
_cell_length_a   3.71197307
_cell_length_b   6.75518896
_cell_length_c   18.42385392
_cell_angle_alpha   91.87126855
_cell_angle_beta   90.00238749
_cell_angle_gamma   89.99946819
_symmetry_Int_Tables_number   1
_chemical_formula_structural   CuH6C2(N5Cl)2
_chemical_formula_sum   'Cu2 H12 C4 N20 Cl4'
_cell_volume   461.73323531
_cell_formula_units_Z   2
loop_
 _symmetry_equiv_pos_site_id
 _symmetry_equiv_pos_as_xyz
  1  'x, y, z'
loop_
 _atom_site_type_symbol
 _atom_site_label
 _atom_site_symmetry_multiplicity
 _atom_site_fract_x
 _atom_site_fract_y
 _atom_site_fract_z
 _atom_site_occupancy
 _atom_site_hle17_ddec_charge
 _atom_site_hle17_ddec_spin_density
 _atom_site_hle17_ddec_sum_bond_order
 _atom_site_hle17_magmom
 _atom_site_hse06_10hf_ddec_charge
 _atom_site_hse06_10hf_ddec_spin_density
 _atom_site_hse06_10hf_ddec_sum_bond_order
 _atom_site_hse06_10hf_magmom
 _atom_site_hse06_ddec_charge
 _atom_site_hse06_ddec_spin_density
 _atom_site_hse06_ddec_sum_bond_order
 _atom_site_hse06_magmom
 _atom_site_pbe_cm5_charge
 _atom_site_pbe_ddec_charge
 _atom_site_pbe_ddec_spin_density
 _atom_site_pbe_ddec_sum_bond_order
 _atom_site_pbe_magmom
Cu  Cu0  1  0.00000000  0.00000001  0.00000109  1  0.724448  0.63794  1.955937  0.469  0.725167  0.746623  2.338925  0.595  0.819044  0.81336  2.262412  0.682  0.582134  0.672956  0.703784  2.38624  0.544
Cu  Cu1  1  0.49999085  0.00000074  0.50000188  1  0.724394  0.637946  1.956004  0.469  0.725055  0.746631  2.339054  0.595  0.819016  0.813359  2.262473  0.682  0.582071  0.672854  0.70379  2.386374  0.544
H  H2  1  0.71932277  0.43422284  0.94155648  1  0.117421  0.000831  0.963171  0.0  0.125936  0.000873  1.02506  0.0  0.129797  0.00064  1.020433  0.0  0.123503  0.123242  0.001057  1.028145  0.0
H  H3  1  0.21931779  0.56575874  0.55845629  1  0.117519  0.000834  0.963099  0.0  0.125855  0.000873  1.025163  0.0  0.129737  0.00064  1.020479  0.0  0.123518  0.12316  0.001058  1.02825  0.0
H  H4  1  0.28066991  0.56577034  0.05843802  1  0.117408  0.000833  0.963119  0.0  0.125889  0.000873  1.025058  0.0  0.129751  0.00064  1.020427  0.0  0.123471  0.123195  0.001057  1.028141  0.0
H  H5  1  0.78064257  0.43425080  0.44154870  1  0.117407  0.000833  0.963181  0.0  0.125768  0.000874  1.025223  0.0  0.129637  0.00064  1.020571  0.0  0.123471  0.123077  0.001058  1.028303  0.0
H  H6  1  0.93854385  0.13830959  0.69817191  1  0.299113  -0.000175  0.936486  0.0  0.274143  -6.1e-05  1.02785  0.0  0.280825  -7.5e-05  1.020906  0.0  0.29411  0.269432  -3.8e-05  1.032572  0.0
H  H7  1  0.43852930  0.86170688  0.80184426  1  0.299496  -0.000175  0.936312  0.0  0.274171  -6.1e-05  1.02788  0.0  0.280852  -7.5e-05  1.020934  0.0  0.294083  0.269461  -3.8e-05  1.032601  0.0
H  H8  1  0.06146769  0.86168364  0.30182910  1  0.299548  -0.000175  0.936178  0.0  0.274212  -6.1e-05  1.02775  0.0  0.280895  -7.5e-05  1.020803  0.0  0.294155  0.269502  -3.8e-05  1.032472  0.0
H  H9  1  0.56147685  0.13829228  0.19815845  1  0.299584  -0.000175  0.936199  0.0  0.27419  -6.1e-05  1.027845  0.0  0.28087  -7.4e-05  1.020902  0.0  0.294113  0.26948  -3.8e-05  1.032567  0.0
H  H10  1  0.17973582  0.35281776  0.70760108  1  0.295344  0.000335  0.945524  0.0  0.274588  0.000379  1.027384  0.0  0.282148  0.000277  1.019618  0.0  0.296078  0.269239  0.000464  1.032791  0.0
H  H11  1  0.67975815  0.64722175  0.79241904  1  0.295653  0.000336  0.945475  0.0  0.274602  0.000379  1.027429  0.0  0.282161  0.000277  1.019666  0.0  0.296115  0.269252  0.000464  1.032836  0.0
H  H12  1  0.82027572  0.64718137  0.29239783  1  0.295759  0.000335  0.94531  0.0  0.274644  0.000379  1.027364  0.0  0.282205  0.000277  1.019597  0.0  0.296131  0.269293  0.000464  1.032775  0.0
H  H13  1  0.32025069  0.35278183  0.20758046  1  0.295821  0.000336  0.94526  0.0  0.274642  0.00038  1.027382  0.0  0.282203  0.000277  1.019619  0.0  0.29611  0.269286  0.000464  1.032799  0.0
C  C14  1  0.84235386  0.34253308  0.89904403  1  0.190116  -0.002581  3.65851  -0.001  0.138105  0.000607  3.945127  0.002  0.149422  -0.000742  3.9571  0.001  0.156633  0.130959  0.0016  3.937234  0.003
C  C15  1  0.34232566  0.65748068  0.60096584  1  0.190236  -0.002604  3.658707  -0.001  0.138081  0.00061  3.945205  0.002  0.149402  -0.000739  3.957196  0.001  0.15647  0.130938  0.0016  3.937306  0.003
C  C16  1  0.15765768  0.65745865  0.10095479  1  0.190688  -0.0026  3.658472  -0.001  0.138341  0.000608  3.945012  0.002  0.149662  -0.000742  3.956978  0.001  0.156799  0.131197  0.001601  3.937118  0.003
C  C17  1  0.65764816  0.34251997  0.39903851  1  0.190369  -0.002605  3.658661  -0.001  0.138216  0.00061  3.945147  0.002  0.149541  -0.000739  3.957128  0.001  0.156586  0.131073  0.0016  3.937246  0.003
N  N18  1  0.86064137  0.39059362  0.82956168  1  -0.259354  0.004863  2.85611  0.006  -0.249836  0.002852  3.11088  0.003  -0.256793  0.00233  3.119234  0.003  -0.188456  -0.245223  0.003406  3.105379  0.004
N  N19  1  0.36062516  0.60943931  0.67044584  1  -0.260359  0.004876  2.856573  0.006  -0.249759  0.002851  3.111055  0.003  -0.256712  0.00233  3.119399  0.003  -0.188409  -0.245145  0.003406  3.10555  0.004
N  N20  1  0.13934862  0.60940548  0.17043288  1  -0.260438  0.004877  2.856734  0.006  -0.249808  0.002852  3.111176  0.003  -0.256769  0.00233  3.119534  0.003  -0.188479  -0.245194  0.003406  3.105673  0.004
N  N21  1  0.63936482  0.39057021  0.32955698  1  -0.260381  0.004878  2.856161  0.006  -0.249794  0.002851  3.110755  0.003  -0.256745  0.002329  3.119092  0.003  -0.188466  -0.245179  0.003406  3.105251  0.004
N  N22  1  0.03555322  0.23503206  0.79917226  1  0.330216  -0.000291  3.712402  0.0  0.416883  0.000748  3.93525  0.002  0.418885  0.000188  3.954849  0.001  0.088643  0.415029  0.001162  3.922101  0.002
N  N23  1  0.53554157  0.76498858  0.70083933  1  0.332156  -0.000307  3.711983  0.0  0.416818  0.000749  3.935624  0.002  0.418819  0.000189  3.955221  0.001  0.088742  0.414962  0.001161  3.922478  0.002
N  N24  1  0.96445293  0.76496262  0.20082497  1  0.331875  -0.000291  3.711913  0.0  0.416687  0.000749  3.935407  0.002  0.418688  0.000188  3.955005  0.001  0.088548  0.414833  0.001161  3.922259  0.002
N  N25  1  0.46445111  0.23501353  0.29916232  1  0.332249  -0.00031  3.711599  0.0  0.416729  0.00075  3.93542  0.002  0.418729  0.000189  3.955019  0.001  0.088685  0.414874  0.001162  3.922272  0.002
N  N26  1  0.12398390  0.09828618  0.84553332  1  -0.061657  -0.003871  2.867979  -0.003  -0.065897  -0.00081  3.132114  -0.001  -0.05898  -0.00178  3.143324  -0.002  -0.05217  -0.070117  -0.000106  3.125366  0.0
N  N27  1  0.62398717  0.90172826  0.65447788  1  -0.062464  -0.003865  2.868157  -0.003  -0.065658  -0.000813  3.132037  -0.001  -0.058738  -0.001783  3.143255  -0.002  -0.05206  -0.069878  -0.000107  3.125291  0.0
N  N28  1  0.87601956  0.90171443  0.15446614  1  -0.062608  -0.003881  2.868223  -0.003  -0.065744  -0.000812  3.131974  -0.001  -0.058824  -0.001783  3.143181  -0.002  -0.052121  -0.069968  -0.000107  3.125231  0.0
N  N29  1  0.37600820  0.09827534  0.34552433  1  -0.062645  -0.003852  2.868422  -0.003  -0.065667  -0.000812  3.132223  -0.001  -0.058745  -0.001783  3.14344  -0.002  -0.052027  -0.069887  -0.000106  3.125475  0.0
N  N30  1  0.99453457  0.16323706  0.90910606  1  -0.227608  0.055995  3.265293  0.072  -0.193478  0.045514  3.585483  0.062  -0.223569  0.037856  3.608304  0.055  -0.228276  -0.176572  0.049617  3.572687  0.064
N  N31  1  0.49452216  0.83678065  0.59090193  1  -0.227433  0.056009  3.265221  0.072  -0.193622  0.045516  3.585242  0.062  -0.223725  0.037857  3.608072  0.055  -0.228322  -0.176721  0.04962  3.572456  0.064
N  N32  1  0.00546888  0.83676354  0.09089069  1  -0.227566  0.056012  3.265277  0.072  -0.193782  0.045519  3.585365  0.062  -0.223875  0.03786  3.608182  0.055  -0.228446  -0.176876  0.049621  3.572574  0.064
N  N33  1  0.50546244  0.16322294  0.40909919  1  -0.227411  0.056004  3.265558  0.072  -0.193625  0.045516  3.585529  0.062  -0.223729  0.037856  3.60836  0.055  -0.228353  -0.176724  0.04962  3.572739  0.064
N  N34  1  0.13280465  0.21474770  0.72773791  1  -0.54552  0.001591  2.963714  0.002  -0.56533  0.00115  3.216432  0.001  -0.577666  0.000667  3.21288  0.001  -0.485738  -0.556018  0.001699  3.218587  0.002
N  N35  1  0.63278777  0.78527710  0.77227620  1  -0.54717  0.001589  2.96401  0.002  -0.56543  0.00115  3.216547  0.001  -0.577768  0.000667  3.212998  0.001  -0.485814  -0.556115  0.001699  3.218702  0.002
N  N36  1  0.86720688  0.78524403  0.27226091  1  -0.546933  0.001589  2.963671  0.002  -0.565361  0.00115  3.216364  0.001  -0.577696  0.000667  3.21281  0.001  -0.485761  -0.556048  0.001699  3.218521  0.002
N  N37  1  0.36722107  0.21472649  0.22772547  1  -0.547153  0.001586  2.963597  0.002  -0.565407  0.00115  3.216435  0.001  -0.577748  0.000668  3.212887  0.001  -0.485777  -0.556088  0.001699  3.218593  0.002
Cl  Cl38  1  0.60570240  0.22244716  0.05401406  1  -0.500037  0.124335  1.028177  0.154  -0.517665  0.075434  1.331541  0.101  -0.553557  0.053958  1.308391  0.079  -0.295361  -0.496418  0.089245  1.348095  0.112
Cl  Cl39  1  0.10568836  0.77756426  0.44598675  1  -0.499968  0.124337  1.028129  0.154  -0.517579  0.075431  1.331455  0.101  -0.553529  0.05396  1.308336  0.079  -0.295377  -0.496336  0.089244  1.348013  0.112
Cl  Cl40  1  0.39432261  0.77756235  0.94598658  1  -0.50007  0.124332  1.028242  0.154  -0.517653  0.075434  1.331541  0.101  -0.553547  0.053959  1.308395  0.079  -0.295373  -0.496404  0.089245  1.348093  0.112
Cl  Cl41  1  0.89432588  0.22243043  0.55401157  1  -0.500047  0.124327  1.028243  0.154  -0.517628  0.075426  1.331561  0.101  -0.553572  0.053955  1.308426  0.079  -0.295383  -0.496384  0.089239  1.348121  0.112
