# generated using pymatgen
data_ErAgH12C20(N2O3)3
_symmetry_space_group_name_H-M   'P 1'
_cell_length_a   7.69122002
_cell_length_b   9.97324557
_cell_length_c   14.54066137
_cell_angle_alpha   92.58989089
_cell_angle_beta   92.21048634
_cell_angle_gamma   110.73760282
_symmetry_Int_Tables_number   1
_chemical_formula_structural   ErAgH12C20(N2O3)3
_chemical_formula_sum   'Er2 Ag2 H24 C40 N12 O18'
_cell_volume   1040.25529899
_cell_formula_units_Z   2
loop_
 _symmetry_equiv_pos_site_id
 _symmetry_equiv_pos_as_xyz
  1  'x, y, z'
loop_
 _atom_site_type_symbol
 _atom_site_label
 _atom_site_symmetry_multiplicity
 _atom_site_fract_x
 _atom_site_fract_y
 _atom_site_fract_z
 _atom_site_occupancy
 _atom_site_hle17_bader_spin_density
 _atom_site_hle17_ddec_charge
 _atom_site_hle17_ddec_spin_density
 _atom_site_hle17_ddec_sum_bond_order
 _atom_site_hle17_magmom
 _atom_site_hse06_10hf_bader_spin_density
 _atom_site_hse06_10hf_ddec_charge
 _atom_site_hse06_10hf_ddec_spin_density
 _atom_site_hse06_10hf_ddec_sum_bond_order
 _atom_site_hse06_10hf_magmom
 _atom_site_hse06_bader_spin_density
 _atom_site_hse06_ddec_charge
 _atom_site_hse06_ddec_spin_density
 _atom_site_hse06_ddec_sum_bond_order
 _atom_site_hse06_magmom
 _atom_site_pbe_bader_spin_density
 _atom_site_pbe_cm5_charge
 _atom_site_pbe_ddec_charge
 _atom_site_pbe_ddec_spin_density
 _atom_site_pbe_ddec_sum_bond_order
 _atom_site_pbe_magmom
Er  Er0  1  0.45347043  0.51022203  0.28261122  1  0  2.186635  0  1.634557  0  0  2.046921  0  2.113422  0  0  2.097203  0  2.071641  0  0  1.499435  2.007861  0  2.149171  0
Er  Er1  1  0.54653504  0.48977510  0.71738836  1  0  2.186714  0  1.634406  0  0  2.046963  0  2.113332  0  0  2.097241  0  2.07156  0  0  1.499454  2.007902  0  2.149096  0
Ag  Ag2  1  0.93441086  0.98582497  0.87190623  1  0  0.504508  0  1.441539  0  0  0.344173  0  1.88478  0  0  0.369615  0  1.848691  0  0  0.504842  0.327827  0  1.907925  0
Ag  Ag3  1  0.06558511  0.01418281  0.12809414  1  0  0.504515  0  1.441544  0  0  0.344196  0  1.884793  0  0  0.369641  0  1.848701  0  0  0.504851  0.327853  0  1.907939  0
H  H4  1  0.82943077  0.62383544  0.37030949  1  0  0.436395  0  0.857487  0  0  0.403188  0  0.923826  0  0  0.415977  0  0.904973  0  0  0.297172  0.394074  0  0.93723  0
H  H5  1  0.17057190  0.37616704  0.62969087  1  0  0.436426  0  0.857448  0  0  0.403219  0  0.923788  0  0  0.416011  0  0.904933  0  0  0.297172  0.394105  0  0.937193  0
H  H6  1  0.71383839  0.59094097  0.46491427  1  0  0.467525  0  0.798398  0  0  0.443434  0  0.846685  0  0  0.453567  0  0.831885  0  0  0.319916  0.436253  0  0.857206  0
H  H7  1  0.28616232  0.40906577  0.53508616  1  0  0.467546  0  0.798363  0  0  0.443455  0  0.84665  0  0  0.453586  0  0.831854  0  0  0.319943  0.436274  0  0.857172  0
H  H8  1  0.24300552  0.18021264  0.52391356  1  0  0.118013  0  0.964826  0  0  0.124444  0  1.034873  0  0  0.128711  0  1.03115  0  0  0.11374  0.121189  0  1.03772  0
H  H9  1  0.75699570  0.81978657  0.47607980  1  0  0.117964  0  0.964958  0  0  0.124442  0  1.034958  0  0  0.128675  0  1.031274  0  0  0.113714  0.121197  0  1.037794  0
H  H10  1  0.40852564  0.00633302  0.28061170  1  0  0.107783  0  0.950154  0  0  0.113787  0  1.023413  0  0  0.118001  0  1.019192  0  0  0.108255  0.110489  0  1.026874  0
H  H11  1  0.59147870  0.99365875  0.71938770  1  0  0.107693  0  0.950247  0  0  0.113743  0  1.023467  0  0  0.117966  0  1.019248  0  0  0.108248  0.110444  0  1.026923  0
H  H12  1  0.23583699  0.74355735  0.50934181  1  0  0.131671  0  0.927711  0  0  0.142647  0  0.982838  0  0  0.147057  0  0.979056  0  0  0.121919  0.139187  0  0.98601  0
H  H13  1  0.76416065  0.25643975  0.49066034  1  0  0.131701  0  0.927716  0  0  0.142675  0  0.982834  0  0  0.147086  0  0.979049  0  0  0.121921  0.139217  0  0.986003  0
H  H14  1  0.05437734  0.10492982  0.65040015  1  0  0.116975  0  0.957789  0  0  0.124332  0  1.02291  0  0  0.126749  0  1.020747  0  0  0.143489  0.122526  0  1.024484  0
H  H15  1  0.94561996  0.89506939  0.34959656  1  0  0.116982  0  0.957745  0  0  0.124323  0  1.022877  0  0  0.12674  0  1.020712  0  0  0.14349  0.122515  0  1.024461  0
H  H16  1  0.29094026  0.77881732  0.65970166  1  0  0.115662  0  0.941707  0  0  0.126542  0  0.997659  0  0  0.128795  0  0.995296  0  0  0.148646  0.124854  0  0.999394  0
H  H17  1  0.70906014  0.22118300  0.34029928  1  0  0.115667  0  0.941675  0  0  0.126539  0  0.997637  0  0  0.128792  0  0.995274  0  0  0.148659  0.124849  0  0.999373  0
H  H18  1  0.16433758  0.70036687  0.87253499  1  0  0.12507  0  0.964151  0  0  0.128669  0  1.034193  0  0  0.133101  0  1.029982  0  0  0.114921  0.125446  0  1.037207  0
H  H19  1  0.83566164  0.29964523  0.12746763  1  0  0.125043  0  0.964128  0  0  0.128639  0  1.034174  0  0  0.133063  0  1.029982  0  0  0.114901  0.125418  0  1.037177  0
H  H20  1  0.70168653  0.56824394  0.04558346  1  0  0.136609  0  0.929136  0  0  0.143327  0  0.991735  0  0  0.148182  0  0.987332  0  0  0.116374  0.139739  0  0.995192  0
H  H21  1  0.29831275  0.43175103  0.95441936  1  0  0.136558  0  0.929095  0  0  0.143248  0  0.991724  0  0  0.148103  0  0.987321  0  0  0.116343  0.139665  0  0.995178  0
H  H22  1  0.25478307  0.77054837  0.17050188  1  0  0.120149  0  0.986136  0  0  0.12562  0  1.055574  0  0  0.129416  0  1.05241  0  0  0.110522  0.122788  0  1.05792  0
H  H23  1  0.74521260  0.22945301  0.82950242  1  0  0.120195  0  0.986145  0  0  0.125585  0  1.055641  0  0  0.129376  0  1.052488  0  0  0.110567  0.122761  0  1.057983  0
H  H24  1  0.45308961  0.82263271  0.86217039  1  0  0.125849  0  0.936008  0  0  0.133175  0  1.002198  0  0  0.136222  0  0.99786  0  0  0.150476  0.130746  0  1.005638  0
H  H25  1  0.54690376  0.17737506  0.13783060  1  0  0.125902  0  0.935971  0  0  0.133221  0  1.002176  0  0  0.136272  0  0.997834  0  0  0.150519  0.130789  0  1.005617  0
H  H26  1  0.54497875  0.83032604  0.15290591  1  0  0.130702  0  0.971639  0  0  0.137792  0  1.035381  0  0  0.141065  0  1.031906  0  0  0.147541  0.135234  0  1.03804  0
H  H27  1  0.45501999  0.16968498  0.84709460  1  0  0.130686  0  0.971623  0  0  0.137806  0  1.035344  0  0  0.14107  0  1.031866  0  0  0.14752  0.135252  0  1.037994  0
C  C28  1  0.22939100  0.95953027  0.52696250  1  0  0.173315  0  3.812168  0  0  0.16764  0  4.066953  0  0  0.171361  0  4.090302  0  0  0.095881  0.164821  0  4.051205  0
C  C29  1  0.77061006  0.04046576  0.47303626  1  0  0.173387  0  3.812112  0  0  0.167714  0  4.066886  0  0  0.171435  0  4.090229  0  0  0.095883  0.164895  0  4.05114  0
C  C30  1  0.25965505  0.08909293  0.48630505  1  0  -0.136391  0  3.683729  0  0  -0.176151  0  3.944533  0  0  -0.176829  0  3.963574  0  0  -0.079408  -0.175039  0  3.931896  0
C  C31  1  0.74034602  0.91090310  0.51369234  1  0  -0.136345  0  3.683775  0  0  -0.176153  0  3.944567  0  0  -0.176803  0  3.963626  0  0  -0.079374  -0.175049  0  3.93193  0
C  C32  1  0.32241791  0.10476950  0.39695963  1  0  -0.055954  0  3.775532  0  0  -0.029506  0  4.010452  0  0  -0.038035  0  4.034071  0  0  -0.016362  -0.024493  0  3.995298  0
C  C33  1  0.67759017  0.89522763  0.60303725  1  0  -0.05607  0  3.775297  0  0  -0.029632  0  4.010271  0  0  -0.03816  0  4.03388  0  0  -0.016452  -0.024621  0  3.995125  0
C  C34  1  0.35754490  0.99250966  0.34957566  1  0  -0.078124  0  3.686758  0  0  -0.12025  0  3.945012  0  0  -0.118005  0  3.962312  0  0  -0.073874  -0.121713  0  3.934075  0
C  C35  1  0.64246075  0.00748212  0.65042445  1  0  -0.077969  0  3.686724  0  0  -0.120141  0  3.944945  0  0  -0.117902  0  3.96224  0  0  -0.073859  -0.121598  0  3.934  0
C  C36  1  0.32850641  0.86402706  0.39179523  1  0  -0.017452  0  3.744097  0  0  0.008637  0  3.975793  0  0  0.00273  0  3.995243  0  0  -0.005411  0.012021  0  3.963214  0
C  C37  1  0.67149842  0.13596580  0.60820627  1  0  -0.017484  0  3.744154  0  0  0.008625  0  3.975795  0  0  0.002715  0  3.995242  0  0  -0.005288  0.012008  0  3.963212  0
C  C38  1  0.26001933  0.84631886  0.47949894  1  0  -0.125139  0  3.662282  0  0  -0.160753  0  3.911483  0  0  -0.160716  0  3.928288  0  0  -0.070165  -0.160184  0  3.900391  0
C  C39  1  0.73998043  0.15367718  0.52050186  1  0  -0.125149  0  3.662239  0  0  -0.160759  0  3.911409  0  0  -0.160721  0  3.928212  0  0  -0.070162  -0.160194  0  3.900318  0
C  C40  1  0.10336479  0.02160372  0.67301938  1  0  0.165153  0  3.620184  0  0  0.101543  0  3.884777  0  0  0.114459  0  3.898594  0  0  0.164673  0.093051  0  3.875506  0
C  C41  1  0.89663169  0.97839656  0.32697871  1  0  0.165315  0  3.620088  0  0  0.10172  0  3.884688  0  0  0.114637  0  3.898503  0  0  0.164747  0.093223  0  3.87542  0
C  C42  1  0.22396843  0.85400623  0.67897370  1  0  0.16266  0  3.631248  0  0  0.10985  0  3.897723  0  0  0.120546  0  3.909533  0  0  0.166835  0.1029  0  3.889617  0
C  C43  1  0.77602854  0.14599514  0.32102719  1  0  0.162682  0  3.630993  0  0  0.109881  0  3.897454  0  0  0.120576  0  3.909265  0  0  0.166876  0.10293  0  3.889348  0
C  C44  1  0.36245683  0.24669739  0.35627156  1  0  0.631903  0  3.947947  0  0  0.587224  0  4.23676  0  0  0.621193  0  4.229081  0  0  0.191609  0.564344  0  4.240688  0
C  C45  1  0.63755680  0.75329763  0.64372469  1  0  0.632085  0  3.947545  0  0  0.587395  0  4.236369  0  0  0.621365  0  4.228686  0  0  0.191757  0.564517  0  4.240293  0
C  C46  1  0.37612526  0.74276770  0.35002940  1  0  0.646814  0  3.929239  0  0  0.598112  0  4.22409  0  0  0.632311  0  4.215257  0  0  0.195493  0.575143  0  4.228688  0
C  C47  1  0.62387353  0.25722618  0.64997062  1  0  0.646856  0  3.929295  0  0  0.598161  0  4.224105  0  0  0.632371  0  4.215255  0  0  0.195503  0.5752  0  4.228691  0
C  C48  1  0.23331220  0.74348389  0.02044529  1  0  0.177985  0  3.749468  0  0  0.169654  0  4.002503  0  0  0.172796  0  4.025033  0  0  0.094466  0.167088  0  3.987829  0
C  C49  1  0.76668477  0.25651749  0.97955697  1  0  0.178053  0  3.749125  0  0  0.169542  0  4.002411  0  0  0.172682  0  4.024934  0  0  0.09441  0.166976  0  3.987738  0
C  C50  1  0.11422112  0.69284795  0.94167845  1  0  -0.123065  0  3.674053  0  0  -0.158347  0  3.932122  0  0  -0.157539  0  3.94919  0  0  -0.07203  -0.158481  0  3.91974  0
C  C51  1  0.88577470  0.30715663  0.05832320  1  0  -0.123019  0  3.673937  0  0  -0.158246  0  3.932074  0  0  -0.15744  0  3.949145  0  0  -0.072009  -0.158379  0  3.919698  0
C  C52  1  0.92238121  0.63181232  0.95098692  1  0  -0.046494  0  3.750693  0  0  -0.019655  0  3.983375  0  0  -0.028566  0  4.006847  0  0  -0.013951  -0.013232  0  3.966057  0
C  C53  1  0.07761789  0.36818801  0.04901742  1  0  -0.046634  0  3.750833  0  0  -0.0198  0  3.983487  0  0  -0.028711  0  4.00696  0  0  -0.013992  -0.01338  0  3.966174  0
C  C54  1  0.85097185  0.61860207  0.03847086  1  0  -0.051257  0  3.647605  0  0  -0.090583  0  3.896292  0  0  -0.08752  0  3.914219  0  0  -0.069254  -0.092901  0  3.884449  0
C  C55  1  0.14902563  0.38139182  0.96153189  1  0  -0.051143  0  3.647469  0  0  -0.090388  0  3.896084  0  0  -0.087322  0  3.914007  0  0  -0.069215  -0.09271  0  3.884245  0
C  C56  1  0.97101188  0.66882856  0.11746508  1  0  -0.06632  0  3.745705  0  0  -0.039087  0  3.980479  0  0  -0.048069  0  4.002523  0  0  -0.017899  -0.033332  0  3.965011  0
C  C57  1  0.02898968  0.33116855  0.88253578  1  0  -0.066365  0  3.745802  0  0  -0.039183  0  3.980557  0  0  -0.04817  0  4.002599  0  0  -0.017911  -0.033432  0  3.965091  0
C  C58  1  0.16308438  0.73391991  0.10834823  1  0  -0.157967  0  3.71223  0  0  -0.189169  0  3.969909  0  0  -0.188365  0  3.98595  0  0  -0.084821  -0.18925  0  3.958396  0
C  C59  1  0.83691472  0.26608042  0.89165474  1  0  -0.158009  0  3.712084  0  0  -0.189078  0  3.96987  0  0  -0.188273  0  3.98592  0  0  -0.084819  -0.189168  0  3.958365  0
C  C60  1  0.51958876  0.84186844  0.93105757  1  0  0.175439  0  3.575664  0  0  0.112317  0  3.837044  0  0  0.126362  0  3.84879  0  0  0.170319  0.103016  0  3.829534  0
C  C61  1  0.48040673  0.15813827  0.06894275  1  0  0.17538  0  3.575743  0  0  0.112279  0  3.8371  0  0  0.12632  0  3.848847  0  0  0.170281  0.102982  0  3.829586  0
C  C62  1  0.56872027  0.84696029  0.08039897  1  0  0.171226  0  3.575559  0  0  0.111239  0  3.844789  0  0  0.122431  0  3.856981  0  0  0.166238  0.104045  0  3.836679  0
C  C63  1  0.43127976  0.15305074  0.91960226  1  0  0.171223  0  3.575385  0  0  0.111197  0  3.844666  0  0  0.122404  0  3.856846  0  0  0.166348  0.103997  0  3.836566  0
C  C64  1  0.89076468  0.64696875  0.21137383  1  0  0.691251  0  3.870502  0  0  0.642526  0  4.162665  0  0  0.677845  0  4.153538  0  0  0.222249  0.618654  0  4.167641  0
C  C65  1  0.10923493  0.35302408  0.78862894  1  0  0.691308  0  3.870418  0  0  0.642648  0  4.162486  0  0  0.677968  0  4.153359  0  0  0.222277  0.618782  0  4.167457  0
C  C66  1  0.79308748  0.57498424  0.86718786  1  0  0.616476  0  3.966405  0  0  0.573896  0  4.258438  0  0  0.607279  0  4.25216  0  0  0.181143  0.552033  0  4.25997  0
C  C67  1  0.20691453  0.42502252  0.13281260  1  0  0.616408  0  3.966636  0  0  0.573827  0  4.258674  0  0  0.607212  0  4.252401  0  0  0.181099  0.551967  0  4.260205  0
N  N68  1  0.70054417  0.90277203  0.95159286  1  0  -0.23324  0  3.326758  0  0  -0.155698  0  3.639549  0  0  -0.172357  0  3.654883  0  0  -0.267987  -0.144994  0  3.629656  0
N  N69  1  0.29945049  0.09723575  0.04840747  1  0  -0.233272  0  3.326819  0  0  -0.155761  0  3.639647  0  0  -0.172423  0  3.654983  0  0  -0.267987  -0.145059  0  3.629752  0
N  N70  1  0.73222102  0.90611031  0.04577418  1  0  -0.243936  0  3.06424  0  0  -0.20267  0  3.360164  0  0  -0.213508  0  3.375161  0  0  -0.231993  -0.195792  0  3.350567  0
N  N71  1  0.26777756  0.09389749  0.95422487  1  0  -0.243943  0  3.06424  0  0  -0.202658  0  3.360186  0  0  -0.213498  0  3.375179  0  0  -0.232027  -0.195776  0  3.350591  0
N  N72  1  0.42996545  0.80602616  0.01092190  1  0  -0.099246  0  3.515113  0  0  -0.007288  0  3.726403  0  0  -0.023882  0  3.750685  0  0  -0.204105  0.0036  0  3.710153  0
N  N73  1  0.57002955  0.19397948  0.98907975  1  0  -0.099205  0  3.514897  0  0  -0.007188  0  3.726243  0  0  -0.023779  0  3.750521  0  0  -0.204141  0.003701  0  3.709994  0
N  N74  1  0.09863618  0.98007544  0.75794568  1  0  -0.220784  0  3.264064  0  0  -0.144557  0  3.57413  0  0  -0.160241  0  3.587791  0  0  -0.262779  -0.134337  0  3.564891  0
N  N75  1  0.90135770  0.01992483  0.24205305  1  0  -0.221004  0  3.264082  0  0  -0.144799  0  3.574186  0  0  -0.160484  0  3.587845  0  0  -0.262845  -0.134583  0  3.56495  0
N  N76  1  0.17767647  0.87557596  0.76241639  1  0  -0.209614  0  2.942263  0  0  -0.187975  0  3.221307  0  0  -0.195397  0  3.235406  0  0  -0.216323  -0.183083  0  3.211896  0
N  N77  1  0.82231707  0.12442645  0.23758308  1  0  -0.209536  0  2.94204  0  0  -0.187888  0  3.22106  0  0  -0.195308  0  3.235162  0  0  -0.216363  -0.182995  0  3.211647  0
N  N78  1  0.18134808  0.94384119  0.61997815  1  0  -0.119751  0  3.574798  0  0  -0.030421  0  3.788322  0  0  -0.047538  0  3.81302  0  0  -0.216577  -0.019085  0  3.771434  0
N  N79  1  0.81864922  0.05615802  0.38002063  1  0  -0.119841  0  3.574841  0  0  -0.03051  0  3.788354  0  0  -0.047626  0  3.81305  0  0  -0.216627  -0.019173  0  3.771464  0
O  O80  1  0.31986403  0.34446154  0.39873928  1  0  -0.670095  0  1.95597  0  0  -0.619292  0  2.182043  0  0  -0.64328  0  2.172347  0  0  -0.361605  -0.602377  0  2.189615  0
O  O81  1  0.68013722  0.65552911  0.60125314  1  0  -0.670152  0  1.955673  0  0  -0.619345  0  2.181764  0  0  -0.643333  0  2.172067  0  0  -0.36165  -0.602437  0  2.18936  0
O  O82  1  0.44424145  0.26988161  0.28009393  1  0  -0.713044  0  1.956618  0  0  -0.667574  0  2.20527  0  0  -0.691771  0  2.194943  0  0  -0.382549  -0.64971  0  2.210984  0
O  O83  1  0.55578587  0.73011780  0.71990342  1  0  -0.713142  0  1.956483  0  0  -0.667672  0  2.20516  0  0  -0.691874  0  2.194831  0  0  -0.382657  -0.64981  0  2.210876  0
O  O84  1  0.46339782  0.75629051  0.27548997  1  0  -0.706966  0  1.980493  0  0  -0.658352  0  2.228892  0  0  -0.682738  0  2.219618  0  0  -0.371753  -0.640472  0  2.233898  0
O  O85  1  0.53660097  0.24370337  0.72451006  1  0  -0.706998  0  1.980492  0  0  -0.658384  0  2.228883  0  0  -0.682772  0  2.219608  0  0  -0.37182  -0.640506  0  2.233888  0
O  O86  1  0.33588229  0.62796440  0.39254529  1  0  -0.671883  0  1.970314  0  0  -0.625731  0  2.203796  0  0  -0.649758  0  2.194519  0  0  -0.382627  -0.608931  0  2.211168  0
O  O87  1  0.66411471  0.37202840  0.60745398  1  0  -0.671877  0  1.970406  0  0  -0.625721  0  2.20389  0  0  -0.649756  0  2.194605  0  0  -0.382627  -0.608928  0  2.211265  0
O  O88  1  0.71706057  0.57137937  0.21018158  1  0  -0.755958  0  2.079601  0  0  -0.698927  0  2.339087  0  0  -0.725979  0  2.328271  0  0  -0.433545  -0.679531  0  2.34554  0
O  O89  1  0.28293646  0.42860486  0.78981883  1  0  -0.755987  0  2.079682  0  0  -0.698983  0  2.339168  0  0  -0.726033  0  2.328343  0  0  -0.433516  -0.679603  0  2.345662  0
O  O90  1  0.99149696  0.70121631  0.28401034  1  0  -0.626128  0  1.939899  0  0  -0.570422  0  2.157052  0  0  -0.596946  0  2.149518  0  0  -0.307744  -0.551955  0  2.161598  0
O  O91  1  0.00850198  0.29878078  0.71598840  1  0  -0.626183  0  1.939695  0  0  -0.570508  0  2.156833  0  0  -0.597037  0  2.149295  0  0  -0.307793  -0.552039  0  2.161378  0
O  O92  1  0.61867176  0.51517276  0.87784013  1  0  -0.68538  0  1.973043  0  0  -0.643674  0  2.218794  0  0  -0.667571  0  2.210288  0  0  -0.388933  -0.626886  0  2.223854  0
O  O93  1  0.38132485  0.48483931  0.12216106  1  0  -0.68523  0  1.973099  0  0  -0.643532  0  2.218846  0  0  -0.667431  0  2.210342  0  0  -0.388819  -0.626752  0  2.223905  0
O  O94  1  0.85438728  0.58582333  0.78616826  1  0  -0.689533  0  1.936145  0  0  -0.646795  0  2.17113  0  0  -0.671631  0  2.164796  0  0  -0.384957  -0.629171  0  2.174188  0
O  O95  1  0.14560726  0.41417266  0.21383173  1  0  -0.689514  0  1.936109  0  0  -0.646789  0  2.171101  0  0  -0.671629  0  2.164773  0  0  -0.384964  -0.629168  0  2.174158  0
O  O96  1  0.70511495  0.58135800  0.39728736  1  0  -0.932115  0  1.842895  0  0  -0.877857  0  2.026209  0  0  -0.89677  0  1.991163  0  0  -0.629532  -0.864007  0  2.051146  0
O  O97  1  0.29488788  0.41864769  0.60271309  1  0  -0.932145  0  1.842815  0  0  -0.877877  0  2.026128  0  0  -0.896785  0  1.991069  0  0  -0.629535  -0.864025  0  2.051071  0
