# generated using pymatgen
data_ZnH8C14(N4O3)2
_symmetry_space_group_name_H-M   'P 1'
_cell_length_a   9.56063765
_cell_length_b   14.59412959
_cell_length_c   18.45115919
_cell_angle_alpha   89.99942715
_cell_angle_beta   93.57890881
_cell_angle_gamma   90.00138462
_symmetry_Int_Tables_number   1
_chemical_formula_structural   ZnH8C14(N4O3)2
_chemical_formula_sum   'Zn4 H32 C56 N32 O24'
_cell_volume   2569.45439301
_cell_formula_units_Z   4
loop_
 _symmetry_equiv_pos_site_id
 _symmetry_equiv_pos_as_xyz
  1  'x, y, z'
loop_
 _atom_site_type_symbol
 _atom_site_label
 _atom_site_symmetry_multiplicity
 _atom_site_fract_x
 _atom_site_fract_y
 _atom_site_fract_z
 _atom_site_occupancy
 _atom_site_pbe_bader_charge
 _atom_site_pbe_bader_spin_density
 _atom_site_pbe_cm5_charge
 _atom_site_pbe_ddec_charge
 _atom_site_pbe_ddec_spin_density
 _atom_site_pbe_ddec_sum_bond_order
 _atom_site_pbe_magmom
Zn  Zn0  1  0.81442426  0.00530524  0.76024839  1  1.276661  0  0.707463  0.779017  0  2.399022  0
Zn  Zn1  1  0.68557236  0.50530855  0.23975318  1  1.276577  0  0.707451  0.778961  0  2.399004  0
Zn  Zn2  1  0.18557510  0.99469856  0.23975426  1  1.276711  0  0.707408  0.778923  0  2.399061  0
Zn  Zn3  1  0.31442914  0.49469388  0.76024412  1  1.276557  0  0.707417  0.778854  0  2.399043  0
H  H4  1  0.33345709  0.21751228  0.07334035  1  0.50671  0  0.333569  0.286314  0  0.947888  0
H  H5  1  0.16654370  0.71751410  0.92665306  1  0.506734  0  0.333577  0.286339  0  0.947926  0
H  H6  1  0.66654230  0.78249083  0.92665904  1  0.506718  0  0.333569  0.286321  0  0.947909  0
H  H7  1  0.83345255  0.28248902  0.07334569  1  0.506691  0  0.333555  0.286327  0  0.947839  0
H  H8  1  0.64321737  0.12312743  0.94948271  1  0.131095  0  0.114951  0.129496  0  0.986135  0
H  H9  1  0.85678240  0.62312632  0.05051479  1  0.131129  0  0.114926  0.129499  0  0.986137  0
H  H10  1  0.35677886  0.87686883  0.05051821  1  0.131044  0  0.114924  0.129447  0  0.98612  0
H  H11  1  0.14321491  0.37687611  0.94948291  1  0.131016  0  0.114955  0.129532  0  0.986134  0
H  H12  1  0.59077496  0.39899546  0.08788640  1  0.166123  0  0.155767  0.132848  0  0.960843  0
H  H13  1  0.90922616  0.89899109  0.91211112  1  0.166068  0  0.1558  0.132887  0  0.960738  0
H  H14  1  0.40921503  0.60101177  0.91210888  1  0.166197  0  0.155774  0.132859  0  0.960832  0
H  H15  1  0.09077633  0.10101545  0.08789218  1  0.166344  0  0.155824  0.132945  0  0.960783  0
H  H16  1  0.40832132  0.39530218  0.61251124  1  0.166197  0  0.159004  0.138619  0  0.954665  0
H  H17  1  0.09167210  0.89530347  0.38748431  1  0.166077  0  0.159056  0.138672  0  0.954653  0
H  H18  1  0.59167808  0.60469613  0.38748654  1  0.166155  0  0.159026  0.138649  0  0.954744  0
H  H19  1  0.90832622  0.10469485  0.61251777  1  0.166126  0  0.159028  0.138637  0  0.954518  0
H  H20  1  0.34614367  0.23728172  0.22229073  1  0.19807  0  0.156502  0.148383  0  0.959297  0
H  H21  1  0.15385151  0.73728727  0.77770504  1  0.198174  0  0.156532  0.148392  0  0.959364  0
H  H22  1  0.65386305  0.76272003  0.77770946  1  0.197992  0  0.156463  0.14837  0  0.959193  0
H  H23  1  0.84614054  0.26271584  0.22229464  1  0.198052  0  0.156506  0.148376  0  0.9593  0
H  H24  1  0.63513184  0.21080664  0.59722416  1  0.520251  0  0.331863  0.281434  0  0.946091  0
H  H25  1  0.86485841  0.71080049  0.40277719  1  0.520165  0  0.33184  0.281366  0  0.946016  0
H  H26  1  0.36486021  0.78919510  0.40277553  1  0.520169  0  0.331823  0.281426  0  0.946072  0
H  H27  1  0.13515353  0.28919646  0.59722481  1  0.520039  0  0.331811  0.281333  0  0.94594  0
H  H28  1  0.33546989  0.11818162  0.44886727  1  0.144012  0  0.11635  0.131195  0  0.979569  0
H  H29  1  0.16455151  0.61818954  0.55112603  1  0.144115  0  0.116345  0.131163  0  0.979449  0
H  H30  1  0.66453997  0.88181190  0.55113358  1  0.143834  0  0.116353  0.131179  0  0.979554  0
H  H31  1  0.83545732  0.38181015  0.44887262  1  0.143942  0  0.116337  0.13118  0  0.979477  0
H  H32  1  0.58350661  0.19138783  0.75449002  1  0.229689  0  0.15233  0.148706  0  0.984994  0
H  H33  1  0.91647355  0.69138999  0.24550788  1  0.229646  0  0.152276  0.148645  0  0.985017  0
H  H34  1  0.41648330  0.80861186  0.24551393  1  0.229699  0  0.152296  0.148701  0  0.98503  0
H  H35  1  0.08352690  0.30861244  0.75448993  1  0.229624  0  0.152288  0.148589  0  0.985103  0
C  C36  1  0.57969676  0.06961759  0.97226071  1  -0.023732  0  -0.070117  -0.101442  0  3.922123  0
C  C37  1  0.92030215  0.56961642  0.02773881  1  -0.023728  0  -0.070089  -0.101562  0  3.922184  0
C  C38  1  0.42030260  0.93038073  0.02774140  1  -0.023689  0  -0.070159  -0.101511  0  3.922183  0
C  C39  1  0.07969307  0.43038533  0.97225773  1  -0.023488  0  -0.070162  -0.101606  0  3.922196  0
C  C40  1  0.56764509  0.98618010  0.93518346  1  0.013268  0  -0.005552  -0.037342  0  3.931819  0
C  C41  1  0.93234965  0.48617999  0.06481640  1  0.013073  0  -0.00553  -0.037167  0  3.931821  0
C  C42  1  0.43235322  0.01381617  0.06481915  1  0.013133  0  -0.005485  -0.037142  0  3.931954  0
C  C43  1  0.06764138  0.51382038  0.93517892  1  0.011135  0  -0.005569  -0.037307  0  3.931936  0
C  C44  1  0.53984375  0.37445748  0.13495125  1  1.002495  0  0.171703  0.063151  0  3.897204  0
C  C45  1  0.96015757  0.87445591  0.86504430  1  1.002392  0  0.171691  0.063108  0  3.897275  0
C  C46  1  0.46015147  0.62554700  0.86504583  1  1.002315  0  0.171688  0.063137  0  3.897146  0
C  C47  1  0.03984390  0.12554995  0.13495626  1  1.00234  0  0.171677  0.063095  0  3.897188  0
C  C48  1  0.54382417  0.17379982  0.07443478  1  1.389279  0  0.259885  0.499225  0  4.097064  0
C  C49  1  0.95617528  0.67380084  0.92556392  1  1.389253  0  0.259826  0.49902  0  4.097065  0
C  C50  1  0.45617730  0.82619987  0.92556577  1  1.388927  0  0.259789  0.499056  0  4.09691  0
C  C51  1  0.04381785  0.32620227  0.07443255  1  1.389082  0  0.259825  0.499118  0  4.096661  0
C  C52  1  0.46969290  0.07718001  0.54213746  1  0.021542  0  0.000403  -0.030598  0  3.935065  0
C  C53  1  0.03031440  0.57718421  0.45786272  1  0.022028  0  0.000303  -0.030737  0  3.935208  0
C  C54  1  0.53031588  0.92281214  0.45786606  1  0.021299  0  0.000246  -0.030856  0  3.935256  0
C  C55  1  0.96969338  0.42281548  0.54213643  1  0.022053  0  0.000351  -0.030621  0  3.935218  0
C  C56  1  0.63758907  0.97552682  0.86490693  1  1.563386  0  0.194064  0.55114  0  4.255267  0
C  C57  1  0.86241157  0.47552401  0.13509538  1  1.563571  0  0.193927  0.550813  0  4.255713  0
C  C58  1  0.36240821  0.02446944  0.13509402  1  1.563508  0  0.194022  0.551046  0  4.255379  0
C  C59  1  0.13758470  0.52447705  0.86490066  1  1.565534  0  0.193902  0.550787  0  4.255821  0
C  C60  1  0.51250588  0.08471536  0.03626500  1  -0.025558  0  -0.000784  -0.032937  0  3.944938  0
C  C61  1  0.98748833  0.58471777  0.96373315  1  -0.025725  0  -0.000773  -0.03271  0  3.944728  0
C  C62  1  0.48748929  0.91528227  0.96373696  1  -0.025691  0  -0.000667  -0.032723  0  3.944817  0
C  C63  1  0.01250584  0.41528397  0.03626282  1  -0.025757  0  -0.000698  -0.032725  0  3.944594  0
C  C64  1  0.44114721  0.35841539  0.66164652  1  1.017045  0  0.174872  0.066236  0  3.885421  0
C  C65  1  0.05884385  0.85841814  0.33834977  1  1.017256  0  0.174923  0.066197  0  3.8853  0
C  C66  1  0.55885217  0.64158293  0.33835396  1  1.017061  0  0.174833  0.066195  0  3.885344  0
C  C67  1  0.94115342  0.14158361  0.66165172  1  1.017401  0  0.174945  0.06629  0  3.885291  0
C  C68  1  0.41310151  0.29214484  0.20539101  1  0.985433  0  0.171156  0.080979  0  3.85621  0
C  C69  1  0.08689771  0.79214910  0.79460446  1  0.985119  0  0.171061  0.080848  0  3.856259  0
C  C70  1  0.58689998  0.70785691  0.79460792  1  0.9854  0  0.171205  0.080978  0  3.856085  0
C  C71  1  0.91309957  0.20785607  0.20539649  1  0.985018  0  0.171103  0.080874  0  3.856212  0
C  C72  1  0.40788670  0.06677029  0.47197693  1  -0.057609  0  -0.06931  -0.102836  0  3.916584  0
C  C73  1  0.09212236  0.56677528  0.52801959  1  -0.058277  0  -0.069291  -0.102921  0  3.916486  0
C  C74  1  0.59211999  0.93322392  0.52802597  1  -0.057609  0  -0.069259  -0.102796  0  3.916585  0
C  C75  1  0.90788436  0.43322441  0.47197952  1  -0.058011  0  -0.069253  -0.102868  0  3.916538  0
C  C76  1  0.56223160  0.00910457  0.57075473  1  -0.035534  0  -0.005152  -0.037133  0  3.931927  0
C  C77  1  0.93776725  0.50910612  0.42924743  1  -0.035296  0  -0.005114  -0.036975  0  3.931681  0
C  C78  1  0.43777406  0.99088895  0.42924760  1  -0.035412  0  -0.005036  -0.037006  0  3.932055  0
C  C79  1  0.06223843  0.49089426  0.57075218  1  -0.03532  0  -0.005119  -0.036892  0  3.931575  0
C  C80  1  0.53316857  0.25471574  0.73626091  1  0.960202  0  0.168497  0.069484  0  3.851434  0
C  C81  1  0.96681802  0.75471986  0.26373670  1  0.960363  0  0.1686  0.069483  0  3.851614  0
C  C82  1  0.46682660  0.74528189  0.26374105  1  0.960205  0  0.168553  0.069426  0  3.851674  0
C  C83  1  0.03318031  0.24528189  0.73626320  1  0.960178  0  0.168591  0.069555  0  3.851643  0
C  C84  1  0.42716428  0.15882934  0.58542638  1  1.409937  0  0.255666  0.495584  0  4.10845  0
C  C85  1  0.07281552  0.65883615  0.41457273  1  1.408716  0  0.255568  0.49558  0  4.107673  0
C  C86  1  0.57283295  0.84115870  0.41457999  1  1.410141  0  0.25565  0.495777  0  4.107763  0
C  C87  1  0.92720173  0.34116011  0.58542241  1  1.40904  0  0.255486  0.495347  0  4.107766  0
C  C88  1  0.62482120  0.01511043  0.64744292  1  1.581272  0  0.192974  0.547299  0  4.257965  0
C  C89  1  0.87516632  0.51511262  0.35255989  1  1.581914  0  0.193104  0.5473  0  4.258017  0
C  C90  1  0.37518759  0.98488446  0.35256006  1  1.580655  0  0.193016  0.547288  0  4.257738  0
C  C91  1  0.12483832  0.48488707  0.64743861  1  1.581855  0  0.193042  0.547102  0  4.258155  0
N  N92  1  0.54713154  0.41062509  0.20063789  1  -0.782517  0  -0.243833  -0.182026  0  3.568925  0
N  N93  1  0.95286475  0.91062424  0.79935883  1  -0.782321  0  -0.243847  -0.182095  0  3.569134  0
N  N94  1  0.45286368  0.58938008  0.79935812  1  -0.782186  0  -0.243779  -0.182004  0  3.569063  0
N  N95  1  0.04713565  0.08938162  0.20064440  1  -0.782198  0  -0.243867  -0.182097  0  3.569048  0
N  N96  1  0.43603516  0.23660294  0.08017392  1  -0.757451  0  -0.306343  -0.330862  0  3.455264  0
N  N97  1  0.06396524  0.73660455  0.91982150  1  -0.757326  0  -0.306317  -0.330783  0  3.455271  0
N  N98  1  0.56396213  0.76339675  0.91982595  1  -0.757468  0  -0.306339  -0.330829  0  3.455359  0
N  N99  1  0.93603415  0.26339788  0.08017736  1  -0.757432  0  -0.306299  -0.330803  0  3.455102  0
N  N100  1  0.45616080  0.29963494  0.13572478  1  -0.865152  0  -0.127422  0.176045  0  3.768642  0
N  N101  1  0.04383971  0.79963762  0.86427176  1  -0.865169  0  -0.127439  0.176071  0  3.7685  0
N  N102  1  0.54384069  0.70036818  0.86427415  1  -0.865154  0  -0.127435  0.176031  0  3.768441  0
N  N103  1  0.95615861  0.20036892  0.13572922  1  -0.865162  0  -0.127322  0.17615  0  3.768461  0
N  N104  1  0.46600423  0.35967559  0.24521530  1  -0.674243  0  -0.226635  -0.19024  0  3.129321  0
N  N105  1  0.03399003  0.85967950  0.75478002  1  -0.67424  0  -0.226589  -0.19014  0  3.129371  0
N  N106  1  0.53399517  0.64032958  0.75478248  1  -0.674347  0  -0.226662  -0.190212  0  3.129413  0
N  N107  1  0.96600620  0.14032704  0.24522090  1  -0.674253  0  -0.226635  -0.190194  0  3.129401  0
N  N108  1  0.42405349  0.38421903  0.72898319  1  -0.776598  0  -0.239505  -0.177449  0  3.560968  0
N  N109  1  0.07593849  0.88422429  0.27101184  1  -0.776682  0  -0.239664  -0.177531  0  3.561237  0
N  N110  1  0.57594696  0.61578203  0.27101462  1  -0.776627  0  -0.239641  -0.177607  0  3.561114  0
N  N111  1  0.92405459  0.11578020  0.72898950  1  -0.776682  0  -0.23964  -0.177587  0  3.561213  0
N  N112  1  0.51002624  0.27706199  0.66375283  1  -0.883335  0  -0.125858  0.17331  0  3.770529  0
N  N113  1  0.98995905  0.77706350  0.33624402  1  -0.883384  0  -0.125895  0.173317  0  3.770507  0
N  N114  1  0.48996579  0.72293565  0.33624848  1  -0.883307  0  -0.125853  0.173339  0  3.770582  0
N  N115  1  0.01004348  0.22293550  0.66375549  1  -0.883282  0  -0.125892  0.173281  0  3.770549  0
N  N116  1  0.53187749  0.22228092  0.60456843  1  -0.806333  0  -0.306314  -0.336699  0  3.483052  0
N  N117  1  0.96811845  0.72228133  0.39542869  1  -0.806446  0  -0.306216  -0.33658  0  3.48313  0
N  N118  1  0.46811663  0.77771397  0.39543404  1  -0.806448  0  -0.306308  -0.336764  0  3.482947  0
N  N119  1  0.03189038  0.27771562  0.60457050  1  -0.806524  0  -0.306146  -0.336401  0  3.482964  0
N  N120  1  0.48308404  0.31960898  0.77649498  1  -0.677802  0  -0.228877  -0.19341  0  3.133111  0
N  N121  1  0.01690356  0.81961320  0.22350096  1  -0.677889  0  -0.228835  -0.193297  0  3.133263  0
N  N122  1  0.51691324  0.68039413  0.22350543  1  -0.677723  0  -0.228764  -0.193249  0  3.13324  0
N  N123  1  0.98309058  0.18039265  0.77649934  1  -0.677908  0  -0.22884  -0.193298  0  3.133197  0
O  O124  1  0.61101121  0.90700890  0.82558398  1  -1.16468  0  -0.316638  -0.555469  0  2.172914  0
O  O125  1  0.88899119  0.40701218  0.17441894  1  -1.164562  0  -0.316547  -0.555292  0  2.17313  0
O  O126  1  0.38899025  0.09299010  0.17441712  1  -1.164601  0  -0.316603  -0.555408  0  2.172851  0
O  O127  1  0.11101030  0.59299162  0.82557944  1  -1.16474  0  -0.316514  -0.555244  0  2.173238  0
O  O128  1  0.66547796  0.19438841  0.09385684  1  -1.141868  0  -0.277123  -0.482941  0  2.185363  0
O  O129  1  0.83451695  0.69439251  0.90614426  1  -1.14182  0  -0.277052  -0.482848  0  2.18524  0
O  O130  1  0.33451620  0.80560854  0.90614076  1  -1.14157  0  -0.277065  -0.482887  0  2.185114  0
O  O131  1  0.16548243  0.30561266  0.09385514  1  -1.141647  0  -0.277123  -0.482962  0  2.18489  0
O  O132  1  0.72575036  0.03936902  0.85074823  1  -1.156723  0  -0.332135  -0.541163  0  2.286635  0
O  O133  1  0.77424957  0.53936600  0.14925210  1  -1.156815  0  -0.332069  -0.541045  0  2.28664  0
O  O134  1  0.27424481  0.96063135  0.14925373  1  -1.156851  0  -0.332095  -0.541111  0  2.286658  0
O  O135  1  0.22574565  0.46063506  0.85074444  1  -1.156713  0  -0.332043  -0.540985  0  2.286608  0
O  O136  1  0.56778700  0.06546418  0.69188125  1  -1.165832  0  -0.312854  -0.54468  0  2.178378  0
O  O137  1  0.93219184  0.56546786  0.30811869  1  -1.166316  0  -0.31293  -0.544673  0  2.178351  0
O  O138  1  0.43221761  0.93453208  0.30812050  1  -1.165203  0  -0.312854  -0.544695  0  2.178436  0
O  O139  1  0.06781384  0.43453389  0.69187984  1  -1.166123  0  -0.312912  -0.54459  0  2.178443  0
O  O140  1  0.30436884  0.17358146  0.59834771  1  -1.129406  0  -0.288603  -0.477329  0  2.108223  0
O  O141  1  0.19563984  0.67360206  0.40164416  1  -1.128258  0  -0.288556  -0.477377  0  2.107202  0
O  O142  1  0.69563257  0.82639424  0.40166043  1  -1.12939  0  -0.288522  -0.477329  0  2.107639  0
O  O143  1  0.80436380  0.32638666  0.59834779  1  -1.128418  0  -0.288556  -0.477362  0  2.107056  0
O  O144  1  0.73813909  0.96821366  0.66178318  1  -1.158132  0  -0.334017  -0.543949  0  2.268773  0
O  O145  1  0.76184657  0.46821418  0.33822409  1  -1.158139  0  -0.33406  -0.543949  0  2.268866  0
O  O146  1  0.26187075  0.03178603  0.33821983  1  -1.158097  0  -0.334085  -0.543939  0  2.268497  0
O  O147  1  0.23816017  0.53178688  0.66177339  1  -1.158297  0  -0.33402  -0.543851  0  2.268858  0
