# generated using pymatgen
data_Cd2H7C6N13O
_symmetry_space_group_name_H-M   'P 1'
_cell_length_a   6.81758371
_cell_length_b   9.95077927
_cell_length_c   17.90440000
_cell_angle_alpha   101.86524122
_cell_angle_beta   90.00000000
_cell_angle_gamma   90.00000000
_symmetry_Int_Tables_number   1
_chemical_formula_structural   Cd2H7C6N13O
_chemical_formula_sum   'Cd8 H28 C24 N52 O4'
_cell_volume   1188.68723747
_cell_formula_units_Z   4
loop_
 _symmetry_equiv_pos_site_id
 _symmetry_equiv_pos_as_xyz
  1  'x, y, z'
loop_
 _atom_site_type_symbol
 _atom_site_label
 _atom_site_symmetry_multiplicity
 _atom_site_fract_x
 _atom_site_fract_y
 _atom_site_fract_z
 _atom_site_occupancy
 _atom_site_hle17_bader_spin_density
 _atom_site_hle17_ddec_charge
 _atom_site_hle17_ddec_spin_density
 _atom_site_hle17_ddec_sum_bond_order
 _atom_site_hle17_magmom
 _atom_site_hse06_10hf_bader_spin_density
 _atom_site_hse06_10hf_ddec_charge
 _atom_site_hse06_10hf_ddec_spin_density
 _atom_site_hse06_10hf_ddec_sum_bond_order
 _atom_site_hse06_10hf_magmom
 _atom_site_hse06_bader_spin_density
 _atom_site_hse06_ddec_charge
 _atom_site_hse06_ddec_spin_density
 _atom_site_hse06_ddec_sum_bond_order
 _atom_site_hse06_magmom
 _atom_site_pbe_bader_charge
 _atom_site_pbe_bader_spin_density
 _atom_site_pbe_cm5_charge
 _atom_site_pbe_ddec_charge
 _atom_site_pbe_ddec_spin_density
 _atom_site_pbe_ddec_sum_bond_order
 _atom_site_pbe_magmom
Cd  Cd0  1  0.70484063  0.02269831  0.94966770  1  0  1.046881  0  1.805421  0  0  0.837601  0  2.269083  0  0  0.889779  0  2.22346  0  1.255062  0  0.764594  0.801196  0  2.29937  0
Cd  Cd1  1  0.20483944  0.47730015  0.55033170  1  0  1.046908  0  1.805403  0  0  0.837626  0  2.269072  0  0  0.889805  0  2.223447  0  1.255085  0  0.764603  0.80122  0  2.299358  0
Cd  Cd2  1  0.29515883  0.97730067  0.05033190  1  0  1.046891  0  1.805405  0  0  0.837615  0  2.269067  0  0  0.889791  0  2.223445  0  1.255141  0  0.764602  0.801208  0  2.299353  0
Cd  Cd3  1  0.79516002  0.52269883  0.44966846  1  0  1.04688  0  1.805427  0  0  0.837585  0  2.269104  0  0  0.889763  0  2.22348  0  1.255086  0  0.764591  0.801179  0  2.29939  0
Cd  Cd4  1  0.57203845  0.34853469  0.08500965  1  0  1.01774  0  1.829722  0  0  0.797819  0  2.292738  0  0  0.850323  0  2.250264  0  1.259729  0  0.786534  0.760101  0  2.320957  0
Cd  Cd5  1  0.07204019  0.15146583  0.41498999  1  0  1.017753  0  1.829691  0  0  0.797815  0  2.29272  0  0  0.85032  0  2.250247  0  1.259737  0  0.78653  0.760098  0  2.32094  0
Cd  Cd6  1  0.42795954  0.65146635  0.91499075  1  0  1.017716  0  1.829758  0  0  0.797784  0  2.292783  0  0  0.850288  0  2.250311  0  1.259747  0  0.786518  0.760066  0  2.321002  0
Cd  Cd7  1  0.92796220  0.84853418  0.58500973  1  0  1.017744  0  1.82972  0  0  0.797814  0  2.292737  0  0  0.850319  0  2.250262  0  1.25973  0  0.78651  0.760097  0  2.320956  0
H  H8  1  0.19225727  0.53167587  0.16769793  1  0  0.08915  0  0.921443  0  0  0.097009  0  0.991449  0  0  0.09899  0  0.989723  0  0.070167  0  0.105979  0.095458  0  0.992992  0
H  H9  1  0.69225553  0.96832671  0.33229887  1  0  0.089145  0  0.921406  0  0  0.09699  0  0.99141  0  0  0.09897  0  0.989683  0  0.070104  0  0.105976  0.095438  0  0.992954  0
H  H10  1  0.80774219  0.46832516  0.83229911  1  0  0.089152  0  0.921369  0  0  0.096999  0  0.991385  0  0  0.09898  0  0.989658  0  0.070122  0  0.10597  0.095449  0  0.992929  0
H  H11  1  0.30774393  0.03167433  0.66770041  1  0  0.089154  0  0.921398  0  0  0.09701  0  0.991401  0  0  0.098991  0  0.989674  0  0.070148  0  0.105986  0.095458  0  0.992946  0
H  H12  1  0.04575228  0.59394630  0.10006843  1  0  0.102276  0  0.906201  0  0  0.113435  0  0.968856  0  0  0.114304  0  0.968955  0  0.076961  0  0.115698  0.112884  0  0.968691  0
H  H13  1  0.54575641  0.90605320  0.39992914  1  0  0.102314  0  0.906154  0  0  0.113459  0  0.968808  0  0  0.114326  0  0.968909  0  0.077055  0  0.115696  0.112908  0  0.968643  0
H  H14  1  0.95424424  0.40605268  0.89992950  1  0  0.102314  0  0.906175  0  0  0.113468  0  0.968834  0  0  0.114336  0  0.968936  0  0.077025  0  0.1157  0.112917  0  0.968668  0
H  H15  1  0.45424745  0.09394476  0.60007035  1  0  0.102321  0  0.9062  0  0  0.113474  0  0.968852  0  0  0.114342  0  0.968954  0  0.077007  0  0.115727  0.112923  0  0.968688  0
H  H16  1  0.98382657  0.48061597  0.28785344  1  0  0.089061  0  0.97966  0  0  0.092576  0  1.059533  0  0  0.095699  0  1.055923  0  0.11052  0  0.102877  0.090382  0  1.062061  0
H  H17  1  0.48382538  0.01938455  0.21214565  1  0  0.089052  0  0.979642  0  0  0.092565  0  1.059523  0  0  0.095689  0  1.055912  0  0.110588  0  0.102871  0.090369  0  1.062054  0
H  H18  1  0.01617289  0.51938506  0.71214640  1  0  0.089064  0  0.979591  0  0  0.092571  0  1.059475  0  0  0.095697  0  1.055862  0  0.110532  0  0.10289  0.090375  0  1.062005  0
H  H19  1  0.51617555  0.98061546  0.78785463  1  0  0.089087  0  0.979574  0  0  0.092602  0  1.059445  0  0  0.095726  0  1.055836  0  0.110596  0  0.102896  0.090409  0  1.061974  0
H  H20  1  0.94551828  0.33615454  0.21328652  1  0  0.10035  0  0.947385  0  0  0.108044  0  1.017467  0  0  0.108878  0  1.018263  0  0.082694  0  0.11409  0.107331  0  1.017263  0
H  H21  1  0.44551561  0.16384598  0.28671256  1  0  0.100383  0  0.947371  0  0  0.108069  0  1.01745  0  0  0.108904  0  1.018245  0  0.082651  0  0.11412  0.107356  0  1.017247  0
H  H22  1  0.05448118  0.66384752  0.78671344  1  0  0.100373  0  0.947356  0  0  0.108049  0  1.017453  0  0  0.108885  0  1.018248  0  0.082638  0  0.114112  0.107336  0  1.017249  0
H  H23  1  0.55448384  0.83615300  0.71328760  1  0  0.100354  0  0.947348  0  0  0.108039  0  1.01745  0  0  0.108872  0  1.018246  0  0.08266  0  0.114102  0.107326  0  1.017246  0
H  H24  1  0.91022865  0.73937301  0.21442361  1  0  0.086617  0  0.914599  0  0  0.101757  0  0.973293  0  0  0.103053  0  0.972478  0  0.049004  0  0.108542  0.100258  0  0.974883  0
H  H25  1  0.41022745  0.76062854  0.28557531  1  0  0.086657  0  0.91461  0  0  0.101772  0  0.973308  0  0  0.103068  0  0.972494  0  0.049027  0  0.108549  0.100274  0  0.974898  0
H  H26  1  0.08977374  0.26062803  0.78557567  1  0  0.086671  0  0.914597  0  0  0.101793  0  0.973287  0  0  0.10309  0  0.972472  0  0.04903  0  0.108557  0.100293  0  0.97488  0
H  H27  1  0.58977054  0.23937146  0.71442497  1  0  0.086662  0  0.914591  0  0  0.101772  0  0.973291  0  0  0.103068  0  0.972477  0  0.049194  0  0.108548  0.100274  0  0.974881  0
H  H28  1  0.72651693  0.66466801  0.26090742  1  0  0.09248  0  0.927798  0  0  0.106285  0  0.989925  0  0  0.107073  0  0.989794  0  0.068529  0  0.115837  0.10567  0  0.990114  0
H  H29  1  0.22651427  0.83533354  0.23909150  1  0  0.0925  0  0.927798  0  0  0.106284  0  0.989921  0  0  0.107074  0  0.989788  0  0.068493  0  0.115838  0.10567  0  0.990111  0
H  H30  1  0.27348692  0.33533508  0.73909266  1  0  0.092514  0  0.927815  0  0  0.106301  0  0.989941  0  0  0.10709  0  0.98981  0  0.068503  0  0.115849  0.105688  0  0.990131  0
H  H31  1  0.77348372  0.16466749  0.76090889  1  0  0.092518  0  0.927766  0  0  0.106298  0  0.989889  0  0  0.107087  0  0.989757  0  0.068491  0  0.115842  0.105684  0  0.990079  0
H  H32  1  0.32316141  0.91517709  0.89764631  1  0  0.374154  0  0.950053  0  0  0.330967  0  1.03705  0  0  0.341666  0  1.021878  0  0.608002  0  0.262042  0.323501  0  1.047501  0
H  H33  1  0.82316114  0.58482138  0.60235393  1  0  0.374241  0  0.949958  0  0  0.331044  0  1.036968  0  0  0.341743  0  1.021794  0  0.607995  0  0.262086  0.323578  0  1.047418  0
H  H34  1  0.67683804  0.08482189  0.10235329  1  0  0.374244  0  0.949955  0  0  0.331053  0  1.036957  0  0  0.341752  0  1.021784  0  0.608011  0  0.262085  0.323586  0  1.04741  0
H  H35  1  0.17683831  0.41517862  0.39764635  1  0  0.374202  0  0.949995  0  0  0.331008  0  1.037001  0  0  0.341706  0  1.02183  0  0.608001  0  0.262068  0.323542  0  1.047453  0
C  C36  1  0.06597645  0.37678332  0.08099534  1  0  0.323333  0  3.72601  0  0  0.297515  0  4.001057  0  0  0.309347  0  4.016406  0  1.01162  0  0.227556  0.289516  0  3.990654  0
C  C37  1  0.56597765  0.12321514  0.41900295  1  0  0.32328  0  3.726054  0  0  0.297418  0  4.001106  0  0  0.309246  0  4.016461  0  1.011964  0  0.227493  0.289419  0  3.990703  0
C  C38  1  0.93402007  0.62321566  0.91900426  1  0  0.32336  0  3.726035  0  0  0.297497  0  4.001116  0  0  0.309326  0  4.016472  0  1.012079  0  0.227539  0.289498  0  3.990713  0
C  C39  1  0.43402474  0.87678384  0.58099666  1  0  0.323272  0  3.72609  0  0  0.297489  0  4.001066  0  0  0.309324  0  4.016409  0  1.011503  0  0.227504  0.289489  0  3.990663  0
C  C40  1  0.05546540  0.51366941  0.13404470  1  0  -0.080968  0  3.68518  0  0  -0.134784  0  3.93714  0  0  -0.132202  0  3.945351  0  0.342841  0  -0.049297  -0.136425  0  3.931199  0
C  C41  1  0.55546659  0.98633009  0.36595343  1  0  -0.080961  0  3.685142  0  0  -0.134708  0  3.937036  0  0  -0.132123  0  3.945243  0  0.342777  0  -0.049242  -0.13635  0  3.931097  0
C  C42  1  0.94453259  0.48633060  0.86595391  1  0  -0.080991  0  3.685115  0  0  -0.134784  0  3.937086  0  0  -0.1322  0  3.945295  0  0.342648  0  -0.049271  -0.136425  0  3.931145  0
C  C43  1  0.44453580  0.01366889  0.63404618  1  0  -0.080968  0  3.685208  0  0  -0.134772  0  3.937136  0  0  -0.132188  0  3.94534  0  0.342964  0  -0.049304  -0.136413  0  3.931196  0
C  C44  1  0.68251747  0.42198278  0.26621950  1  0  0.318341  0  3.775085  0  0  0.291412  0  4.046617  0  0  0.304272  0  4.063526  0  0.97638  0  0.216174  0.282708  0  4.035269  0
C  C45  1  0.18251481  0.07801877  0.23378026  1  0  0.318299  0  3.775052  0  0  0.291372  0  4.046582  0  0  0.304234  0  4.06349  0  0.976345  0  0.21619  0.282669  0  4.035232  0
C  C46  1  0.31747905  0.57802031  0.73378281  1  0  0.318328  0  3.774967  0  0  0.291378  0  4.046526  0  0  0.304242  0  4.063435  0  0.97618  0  0.216168  0.282673  0  4.035177  0
C  C47  1  0.81748171  0.92198021  0.76621767  1  0  0.318155  0  3.775165  0  0  0.291286  0  4.046621  0  0  0.304148  0  4.063529  0  0.976357  0  0.216139  0.282582  0  4.035271  0
C  C48  1  0.88703128  0.43740046  0.23984019  1  0  -0.113726  0  3.700293  0  0  -0.169214  0  3.949335  0  0  -0.167279  0  3.957249  0  0.309963  0  -0.067428  -0.170274  0  3.943828  0
C  C49  1  0.38702862  0.06260211  0.26015968  1  0  -0.113674  0  3.700261  0  0  -0.169146  0  3.94928  0  0  -0.167213  0  3.957196  0  0.309939  0  -0.067452  -0.170208  0  3.943775  0
C  C50  1  0.11297111  0.56260160  0.76015976  1  0  -0.113632  0  3.700158  0  0  -0.169082  0  3.949174  0  0  -0.167152  0  3.957089  0  0.310104  0  -0.067424  -0.170143  0  3.943666  0
C  C51  1  0.61297377  0.93739892  0.73984072  1  0  -0.113613  0  3.700222  0  0  -0.169124  0  3.949262  0  0  -0.167192  0  3.957178  0  0.309901  0  -0.067434  -0.170189  0  3.943761  0
C  C52  1  0.65105178  0.68656432  0.14896172  1  0  0.290309  0  3.75127  0  0  0.267187  0  4.037337  0  0  0.277064  0  4.052632  0  0.96619  0  0.211458  0.260296  0  4.027021  0
C  C53  1  0.15105205  0.81343313  0.35103784  1  0  0.290374  0  3.751382  0  0  0.267115  0  4.03759  0  0  0.276992  0  4.052887  0  0.966038  0  0.211474  0.260225  0  4.027272  0
C  C54  1  0.34895061  0.31343569  0.85103856  1  0  0.290335  0  3.751366  0  0  0.267162  0  4.037466  0  0  0.277041  0  4.052759  0  0.966212  0  0.211466  0.260271  0  4.02715  0
C  C55  1  0.84894740  0.18656688  0.64896244  1  0  0.290386  0  3.751434  0  0  0.267128  0  4.037635  0  0  0.277005  0  4.052932  0  0.966222  0  0.211464  0.260238  0  4.027316  0
C  C56  1  0.79863926  0.65719535  0.20519938  1  0  -0.080827  0  3.710565  0  0  -0.138159  0  3.963332  0  0  -0.135072  0  3.97191  0  0.352184  0  -0.050853  -0.13995  0  3.957403  0
C  C57  1  0.29863953  0.84280415  0.29479986  1  0  -0.080906  0  3.710607  0  0  -0.138123  0  3.963293  0  0  -0.135035  0  3.971869  0  0.352329  0  -0.050842  -0.139915  0  3.957365  0
C  C58  1  0.20136166  0.34280671  0.79480001  1  0  -0.080963  0  3.71069  0  0  -0.138234  0  3.963408  0  0  -0.135146  0  3.971984  0  0.352211  0  -0.050871  -0.140027  0  3.95748  0
C  C59  1  0.70135992  0.15719586  0.70520098  1  0  -0.08092  0  3.710622  0  0  -0.138134  0  3.963319  0  0  -0.135047  0  3.971899  0  0.35215  0  -0.050864  -0.139928  0  3.957393  0
N  N60  1  0.90675234  0.30733290  0.05024343  1  0  -0.316979  0  3.155373  0  0  -0.264025  0  3.439709  0  0  -0.280279  0  3.455196  0  -0.715317  0  -0.230826  -0.253344  0  3.429072  0
N  N61  1  0.40675408  0.19266556  0.44975597  1  0  -0.317053  0  3.155417  0  0  -0.264062  0  3.439744  0  0  -0.280315  0  3.455233  0  -0.715302  0  -0.230842  -0.253381  0  3.429106  0
N  N62  1  0.09324418  0.69266505  0.94975605  1  0  -0.317072  0  3.15541  0  0  -0.264083  0  3.439733  0  0  -0.280336  0  3.455223  0  -0.715273  0  -0.230832  -0.253401  0  3.429096  0
N  N63  1  0.59324831  0.80733342  0.55024419  1  0  -0.317  0  3.155385  0  0  -0.264041  0  3.439688  0  0  -0.280296  0  3.455175  0  -0.715345  0  -0.230833  -0.253359  0  3.42905  0
N  N64  1  0.97282120  0.18887224  0.00832978  1  0  -0.09995  0  3.107282  0  0  -0.067824  0  3.403501  0  0  -0.07148  0  3.417605  0  -0.164522  0  -0.099513  -0.065107  0  3.393842  0
N  N65  1  0.47282294  0.31112519  0.49167006  1  0  -0.099919  0  3.107376  0  0  -0.06781  0  3.403589  0  0  -0.071466  0  3.417693  0  -0.164474  0  -0.099515  -0.065092  0  3.393928  0
N  N66  1  0.02717678  0.81112571  0.99167026  1  0  -0.099897  0  3.107307  0  0  -0.067776  0  3.403508  0  0  -0.071432  0  3.417611  0  -0.164471  0  -0.099493  -0.065058  0  3.393849  0
N  N67  1  0.52717945  0.68887276  0.50832998  1  0  -0.099972  0  3.107306  0  0  -0.067853  0  3.403527  0  0  -0.071509  0  3.417632  0  -0.164504  0  -0.099527  -0.065135  0  3.393867  0
N  N68  1  0.16550292  0.18565501  0.01307932  1  0  -0.089239  0  3.067621  0  0  -0.059467  0  3.363176  0  0  -0.063663  0  3.378344  0  -0.161722  0  -0.109218  -0.056644  0  3.353093  0
N  N69  1  0.66550411  0.31434243  0.48691997  1  0  -0.089214  0  3.067665  0  0  -0.059427  0  3.3632  0  0  -0.063623  0  3.37837  0  -0.161773  0  -0.109177  -0.056604  0  3.353116  0
N  N70  1  0.83449507  0.81434295  0.98692073  1  0  -0.089247  0  3.067646  0  0  -0.059468  0  3.363189  0  0  -0.063664  0  3.378359  0  -0.16173  0  -0.109225  -0.056645  0  3.353106  0
N  N71  1  0.33449681  0.68565655  0.51307964  1  0  -0.089214  0  3.067658  0  0  -0.059444  0  3.363212  0  0  -0.063639  0  3.378383  0  -0.161688  0  -0.109196  -0.056622  0  3.353128  0
N  N72  1  0.22787692  0.30331469  0.05875077  1  0  -0.304994  0  3.06646  0  0  -0.252609  0  3.351179  0  0  -0.268958  0  3.36702  0  -0.724962  0  -0.227306  -0.241563  0  3.340404  0
N  N73  1  0.72787812  0.19668480  0.44124763  1  0  -0.304966  0  3.066454  0  0  -0.252569  0  3.351179  0  0  -0.268918  0  3.367023  0  -0.725425  0  -0.227305  -0.241523  0  3.340403  0
N  N74  1  0.77212107  0.69668429  0.94124939  1  0  -0.304971  0  3.066534  0  0  -0.252576  0  3.351266  0  0  -0.268924  0  3.367109  0  -0.725518  0  -0.227301  -0.24153  0  3.34049  0
N  N75  1  0.27212280  0.80331521  0.55875153  1  0  -0.304943  0  3.066473  0  0  -0.252562  0  3.351175  0  0  -0.268912  0  3.367016  0  -0.724989  0  -0.227277  -0.241515  0  3.340399  0
N  N76  1  0.88008747  0.52026716  0.18098170  1  0  -0.197587  0  3.321945  0  0  -0.118493  0  3.566375  0  0  -0.133199  0  3.586237  0  -1.038483  0  -0.334016  -0.107809  0  3.551763  0
N  N77  1  0.38008628  0.97973439  0.31901778  1  0  -0.197613  0  3.322055  0  0  -0.118546  0  3.566447  0  0  -0.133255  0  3.586309  0  -1.038312  0  -0.334018  -0.10786  0  3.551835  0
N  N78  1  0.11991052  0.47973388  0.81901814  1  0  -0.197618  0  3.322135  0  0  -0.118524  0  3.566536  0  0  -0.133233  0  3.586398  0  -1.038327  0  -0.334014  -0.107839  0  3.551923  0
N  N79  1  0.61991318  0.02026561  0.68098250  1  0  -0.197678  0  3.322148  0  0  -0.11859  0  3.56653  0  0  -0.133299  0  3.586397  0  -1.038475  0  -0.334014  -0.107902  0  3.551918  0
N  N80  1  0.53177345  0.38818074  0.21781417  1  0  -0.347788  0  3.147053  0  0  -0.282287  0  3.437173  0  0  -0.301558  0  3.451809  0  -0.745815  0  -0.243692  -0.269215  0  3.42738  0
N  N81  1  0.03177079  0.11181978  0.28218547  1  0  -0.347827  0  3.147026  0  0  -0.282326  0  3.437157  0  0  -0.301599  0  3.451794  0  -0.745741  0  -0.243732  -0.269258  0  3.42737  0
N  N82  1  0.46822894  0.61182030  0.78218623  1  0  -0.347837  0  3.147091  0  0  -0.28233  0  3.437232  0  0  -0.301598  0  3.451855  0  -0.74578  0  -0.243726  -0.269263  0  3.427447  0
N  N83  1  0.96823013  0.88818023  0.71781481  1  0  -0.347761  0  3.147082  0  0  -0.282268  0  3.437171  0  0  -0.301545  0  3.451819  0  -0.745808  0  -0.243723  -0.269202  0  3.42739  0
N  N84  1  0.36880515  0.39228110  0.26099904  1  0  -0.068465  0  2.960006  0  0  -0.062403  0  3.256685  0  0  -0.060733  0  3.268609  0  -0.102186  0  -0.093542  -0.063571  0  3.249671  0
N  N85  1  0.86880195  0.10771942  0.23900060  1  0  -0.068353  0  2.959879  0  0  -0.062294  0  3.256575  0  0  -0.060623  0  3.268497  0  -0.102213  0  -0.093493  -0.063461  0  3.249558  0
N  N86  1  0.63119724  0.60771891  0.73900124  1  0  -0.068403  0  2.96005  0  0  -0.062344  0  3.256729  0  0  -0.060674  0  3.268655  0  -0.10224  0  -0.093497  -0.063511  0  3.249712  0
N  N87  1  0.13119751  0.89228059  0.76099912  1  0  -0.068375  0  2.959902  0  0  -0.062323  0  3.256607  0  0  -0.060653  0  3.268531  0  -0.102224  0  -0.093504  -0.063489  0  3.249591  0
N  N88  1  0.41826109  0.42741809  0.33316006  1  0  -0.085701  0  2.992723  0  0  -0.069975  0  3.291084  0  0  -0.070146  0  3.302721  0  -0.151636  0  -0.092751  -0.069905  0  3.28421  0
N  N89  1  0.91825788  0.07258243  0.16683958  1  0  -0.085826  0  2.992729  0  0  -0.070109  0  3.291114  0  0  -0.07028  0  3.30275  0  -0.151714  0  -0.09282  -0.07004  0  3.284239  0
N  N90  1  0.58173983  0.57258089  0.66684066  1  0  -0.085709  0  2.992801  0  0  -0.069975  0  3.291157  0  0  -0.070147  0  3.302796  0  -0.151613  0  -0.092781  -0.069906  0  3.284282  0
N  N91  1  0.08174157  0.92741758  0.83316014  1  0  -0.085785  0  2.992742  0  0  -0.070066  0  3.291129  0  0  -0.070237  0  3.302766  0  -0.151687  0  -0.092811  -0.069998  0  3.284254  0
N  N92  1  0.61572841  0.44760464  0.33827564  1  0  -0.358042  0  3.131019  0  0  -0.296189  0  3.426203  0  0  -0.316693  0  3.442596  0  -0.771105  0  -0.24459  -0.282401  0  3.415325  0
N  N93  1  0.11572575  0.05239691  0.16172356  1  0  -0.357988  0  3.131008  0  0  -0.29613  0  3.426179  0  0  -0.316635  0  3.442575  0  -0.771095  0  -0.24454  -0.282341  0  3.4153  0
N  N94  1  0.38427251  0.55239537  0.66172352  1  0  -0.358096  0  3.130928  0  0  -0.296242  0  3.426129  0  0  -0.316749  0  3.442522  0  -0.771026  0  -0.244586  -0.282454  0  3.415252  0
N  N95  1  0.88427370  0.94760310  0.83827672  1  0  -0.357946  0  3.130966  0  0  -0.296105  0  3.426119  0  0  -0.316609  0  3.442514  0  -0.771036  0  -0.244493  -0.282316  0  3.415239  0
N  N96  1  0.56639128  0.59167688  0.09374243  1  0  -0.326988  0  3.138573  0  0  -0.275287  0  3.431426  0  0  -0.291181  0  3.447083  0  -0.715815  0  -0.234079  -0.263823  0  3.419865  0
N  N97  1  0.06639156  0.90832262  0.40625681  1  0  -0.327068  0  3.13873  0  0  -0.275338  0  3.431633  0  0  -0.291232  0  3.447291  0  -0.71579  0  -0.23411  -0.263875  0  3.420072  0
N  N98  1  0.43360964  0.40832313  0.90625785  1  0  -0.326958  0  3.138557  0  0  -0.275243  0  3.431414  0  0  -0.291137  0  3.447072  0  -0.715817  0  -0.23408  -0.263778  0  3.419853  0
N  N99  1  0.93360790  0.09167739  0.59374403  1  0  -0.32713  0  3.138785  0  0  -0.275411  0  3.431705  0  0  -0.2913  0  3.447351  0  -0.715978  0  -0.234118  -0.263948  0  3.420145  0
N  N100  1  0.44046250  0.66128544  0.05827898  1  0  -0.117558  0  3.101471  0  0  -0.092049  0  3.395568  0  0  -0.095763  0  3.411679  0  -0.176461  0  -0.118617  -0.089313  0  3.384017  0
N  N101  1  0.94046663  0.83871303  0.44172127  1  0  -0.117572  0  3.101495  0  0  -0.092068  0  3.395587  0  0  -0.095781  0  3.411698  0  -0.176388  0  -0.118621  -0.089332  0  3.384037  0
N  N102  1  0.55953548  0.33871354  0.94172175  1  0  -0.117578  0  3.101438  0  0  -0.092073  0  3.395532  0  0  -0.095787  0  3.411641  0  -0.17647  0  -0.11862  -0.089337  0  3.383981  0
N  N103  1  0.05953429  0.16128595  0.55827945  1  0  -0.11748  0  3.101418  0  0  -0.091967  0  3.395499  0  0  -0.095679  0  3.41161  0  -0.176365  0  -0.118599  -0.089231  0  3.383948  0
N  N104  1  0.44973558  0.79257294  0.09206521  1  0  -0.123331  0  3.198663  0  0  -0.070743  0  3.49601  0  0  -0.07841  0  3.511137  0  -0.188645  0  -0.118283  -0.065108  0  3.485178  0
N  N105  1  0.94973971  0.70742553  0.40793448  1  0  -0.123321  0  3.198657  0  0  -0.070715  0  3.495971  0  0  -0.078383  0  3.511098  0  -0.188633  0  -0.118257  -0.065079  0  3.485138  0
N  N106  1  0.55026240  0.20742706  0.90793507  1  0  -0.123371  0  3.198722  0  0  -0.070782  0  3.496062  0  0  -0.078449  0  3.511188  0  -0.188639  0  -0.118293  -0.065147  0  3.48523  0
N  N107  1  0.05026121  0.29257448  0.59206636  1  0  -0.123361  0  3.198652  0  0  -0.070766  0  3.495979  0  0  -0.078433  0  3.511105  0  -0.188623  0  -0.118266  -0.065129  0  3.485146  0
N  N108  1  0.58113258  0.81203245  0.14860237  1  0  -0.273624  0  2.959523  0  0  -0.259989  0  3.245851  0  0  -0.268473  0  3.259564  0  -0.672765  0  -0.215975  -0.254314  0  3.236762  0
N  N109  1  0.08113432  0.68796807  0.35139700  1  0  -0.273609  0  2.959559  0  0  -0.259934  0  3.245914  0  0  -0.268419  0  3.259628  0  -0.672846  0  -0.215996  -0.254262  0  3.236825  0
N  N110  1  0.41886688  0.18796858  0.85139747  1  0  -0.273633  0  2.959641  0  0  -0.259973  0  3.245962  0  0  -0.268458  0  3.259675  0  -0.672783  0  -0.216001  -0.254299  0  3.236874  0
N  N111  1  0.91886514  0.31203193  0.64860329  1  0  -0.273619  0  2.95956  0  0  -0.259941  0  3.245911  0  0  -0.268427  0  3.259625  0  -0.672856  0  -0.216001  -0.254268  0  3.236821  0
O  O112  1  0.42334354  0.89032437  0.93218764  1  0  -0.94491  0  1.869612  0  0  -0.828105  0  2.134292  0  0  -0.865353  0  2.105454  0  -1.210417  0  -0.601404  -0.800524  0  2.152326  0
O  O113  1  0.92334326  0.60967513  0.56781273  1  0  -0.945018  0  1.869542  0  0  -0.8282  0  2.134235  0  0  -0.865448  0  2.105393  0  -1.210419  0  -0.601438  -0.800619  0  2.15227  0
O  O114  1  0.57665592  0.10967461  0.06781309  1  0  -0.945026  0  1.869571  0  0  -0.828208  0  2.134252  0  0  -0.865455  0  2.105411  0  -1.210483  0  -0.601442  -0.800628  0  2.152287  0
O  O115  1  0.07665619  0.39032488  0.43218755  1  0  -0.944964  0  1.869511  0  0  -0.828142  0  2.134189  0  0  -0.86539  0  2.105351  0  -1.210445  0  -0.601433  -0.800562  0  2.152224  0
