# generated using pymatgen
data_Zn3H8(C3O2)8
_symmetry_space_group_name_H-M   'P 1'
_cell_length_a   18.08227015
_cell_length_b   18.08215497
_cell_length_c   18.08221842
_cell_angle_alpha   61.54806359
_cell_angle_beta   74.82328059
_cell_angle_gamma   105.17640833
_symmetry_Int_Tables_number   1
_chemical_formula_structural   Zn3H8(C3O2)8
_chemical_formula_sum   'Zn6 H16 C48 O32'
_cell_volume   4466.19950675
_cell_formula_units_Z   2
loop_
 _symmetry_equiv_pos_site_id
 _symmetry_equiv_pos_as_xyz
  1  'x, y, z'
loop_
 _atom_site_type_symbol
 _atom_site_label
 _atom_site_symmetry_multiplicity
 _atom_site_fract_x
 _atom_site_fract_y
 _atom_site_fract_z
 _atom_site_occupancy
 _atom_site_pbe_bader_charge
 _atom_site_pbe_bader_spin_density
 _atom_site_pbe_cm5_charge
 _atom_site_pbe_ddec_charge
 _atom_site_pbe_ddec_spin_density
 _atom_site_pbe_ddec_sum_bond_order
 _atom_site_pbe_magmom
Zn  Zn0  1  0.44118609  0.44118524  0.00000023  1  1.310618  0  0.745599  0.980876  0  2.054375  0
Zn  Zn1  1  0.00000095  0.56966934  0.43033395  1  1.299314  0  0.750224  0.986492  0  2.018584  0
Zn  Zn2  1  0.99999656  0.43033012  0.56967319  1  1.30679  0  0.750218  0.986476  0  2.018657  0
Zn  Zn3  1  0.44118880  0.00000048  0.55881049  1  1.304962  0  0.745596  0.980867  0  2.054457  0
Zn  Zn4  1  0.55881551  0.55881414  0.99999806  1  1.305356  0  0.745632  0.980917  0  2.054298  0
Zn  Zn5  1  0.55881473  0.00000039  0.44118161  1  1.311037  0  0.745614  0.98087  0  2.05437  0
H  H6  1  0.77153714  0.51134474  0.87544680  1  0.092959  0  0.111751  0.110288  0  1.002109  0
H  H7  1  0.38678704  0.73981160  0.48865649  1  0.09782  0  0.111766  0.110251  0  1.00197  0
H  H8  1  0.22846072  0.35302406  0.26018875  1  0.093231  0  0.111724  0.110209  0  1.001984  0
H  H9  1  0.61320831  0.12455541  0.64698114  1  0.086567  0  0.111759  0.110293  0  1.002137  0
H  H10  1  0.38679141  0.64698484  0.12455424  1  0.086536  0  0.111748  0.110247  0  1.002182  0
H  H11  1  0.22845616  0.87543951  0.51135168  1  0.092971  0  0.111722  0.110225  0  1.001996  0
H  H12  1  0.61320924  0.48865019  0.73981674  1  0.097815  0  0.111719  0.110204  0  1.001956  0
H  H13  1  0.77153683  0.26019493  0.35302168  1  0.093572  0  0.111709  0.110206  0  1.002024  0
H  H14  1  0.89321702  0.50250865  0.84201997  1  0.017248  0  0.09503  0.019542  0  0.965702  0
H  H15  1  0.34452551  0.60929207  0.49749127  1  0.021551  0  0.094991  0.01946  0  0.965657  0
H  H16  1  0.10678385  0.26476946  0.39070523  1  0.020044  0  0.095  0.019508  0  0.965663  0
H  H17  1  0.65547088  0.15797662  0.73523959  1  0.02778  0  0.095008  0.019512  0  0.965718  0
H  H18  1  0.34452946  0.73524298  0.15797820  1  0.027783  0  0.095024  0.019494  0  0.965717  0
H  H19  1  0.10677684  0.84201482  0.50251247  1  0.017242  0  0.095016  0.019501  0  0.965667  0
H  H20  1  0.65547520  0.49749187  0.60929544  1  0.021671  0  0.094988  0.019485  0  0.965653  0
H  H21  1  0.89321913  0.39070710  0.26476834  1  0.020018  0  0.095017  0.019563  0  0.965642  0
C  C22  1  0.61689732  0.50000353  0.88311075  1  1.548303  0  0.224713  0.607181  0  4.150949  0
C  C23  1  0.50002263  0.13933435  0.36063602  1  1.68612  0  0.228133  0.653575  0  4.24687  0
C  C24  1  0.49998950  0.36064349  0.13933247  1  1.685925  0  0.228375  0.653851  0  4.246049  0
C  C25  1  0.50001189  0.86066681  0.63933242  1  1.687035  0  0.228367  0.653861  0  4.245662  0
C  C26  1  0.50000300  0.63934602  0.86066195  1  1.687166  0  0.228365  0.653819  0  4.245617  0
C  C27  1  0.50000345  0.71716515  0.78285091  1  -0.256804  0  -0.011235  -0.094666  0  3.909478  0
C  C28  1  0.50001555  0.21714947  0.28281785  1  0.060394  0  -0.01127  -0.094721  0  3.909729  0
C  C29  1  0.50000069  0.28282612  0.21714109  1  -0.259599  0  -0.011284  -0.094675  0  3.909692  0
C  C30  1  0.38309630  0.88310506  0.50001268  1  1.548249  0  0.224746  0.607143  0  4.150856  0
C  C31  1  0.50000982  0.78285948  0.71715442  1  0.058079  0  -0.011192  -0.094653  0  3.90946  0
C  C32  1  0.76135994  0.50626116  0.82077919  1  -0.036838  0  -0.057885  -0.096874  0  3.918579  0
C  C33  1  0.32702994  0.74490297  0.49374359  1  -0.035353  0  -0.057881  -0.096075  0  3.919254  0
C  C34  1  0.23864108  0.41787403  0.25509320  1  -0.027044  0  -0.057876  -0.096209  0  3.919264  0
C  C35  1  0.67295994  0.17922249  0.58213682  1  -0.023555  0  -0.057864  -0.096824  0  3.918702  0
C  C36  1  0.32703628  0.58213980  0.17922059  1  -0.023596  0  -0.057876  -0.096797  0  3.918786  0
C  C37  1  0.38310993  0.50000497  0.11688936  1  1.552963  0  0.224744  0.607112  0  4.150711  0
C  C38  1  0.23863567  0.82077299  0.50626291  1  -0.036806  0  -0.05781  -0.096609  0  3.918573  0
C  C39  1  0.67296589  0.49373776  0.74490984  1  -0.035873  0  -0.057811  -0.096052  0  3.919335  0
C  C40  1  0.76135766  0.25509645  0.41787078  1  -0.028069  0  -0.057805  -0.096126  0  3.919153  0
C  C41  1  0.61689139  0.11689589  0.49999710  1  1.552974  0  0.224669  0.606945  0  4.150857  0
C  C42  1  0.82562689  0.50625235  0.75758977  1  -0.002072  0  -0.006002  -0.000338  0  3.93975  0
C  C43  1  0.26383946  0.68062464  0.49375127  1  -0.023922  0  -0.006048  -0.002381  0  3.942264  0
C  C44  1  0.17437233  0.41679008  0.31937076  1  -0.032972  0  -0.006021  -0.002223  0  3.942209  0
C  C45  1  0.73615933  0.24241028  0.58321785  1  -0.038514  0  -0.006036  -0.000514  0  3.939673  0
C  C46  1  0.26383998  0.58322210  0.24240462  1  -0.03885  0  -0.006035  -0.000476  0  3.93987  0
C  C47  1  0.17437049  0.75758764  0.50625306  1  -0.002081  0  -0.006035  -0.000561  0  3.939904  0
C  C48  1  0.73615785  0.49374563  0.68063027  1  -0.023614  0  -0.006108  -0.002425  0  3.942275  0
C  C49  1  0.82563198  0.31937413  0.41678854  1  -0.033265  0  -0.006074  -0.002369  0  3.942133  0
C  C50  1  0.81395661  0.50000161  0.68604738  1  0.038849  0  0.044325  0.013547  0  3.748007  0
C  C51  1  0.18604029  0.68604120  0.50000594  1  0.038579  0  0.044261  0.013513  0  3.747994  0
C  C52  1  0.18604282  0.50000825  0.31394830  1  0.05754  0  0.044311  0.013557  0  3.748013  0
C  C53  1  0.81395745  0.31394860  0.50000675  1  0.057787  0  0.044326  0.013673  0  3.747975  0
C  C54  1  0.88288184  0.38287139  0.50001140  1  1.647184  0  0.235046  0.611297  0  4.165259  0
C  C55  1  0.88288090  0.50000634  0.61711702  1  1.655493  0  0.2351  0.611364  0  4.164943  0
C  C56  1  0.11711584  0.61711340  0.50000884  1  1.655983  0  0.235116  0.611415  0  4.165136  0
C  C57  1  0.11711810  0.50000945  0.38287537  1  1.647196  0  0.234991  0.611128  0  4.16531  0
C  C58  1  0.68466672  0.50000003  0.81533433  1  -0.007791  0  -0.012492  -0.023006  0  3.985993  0
C  C59  1  0.31532776  0.81533106  0.50000690  1  -0.008041  0  -0.012523  -0.023103  0  3.986077  0
C  C60  1  0.31533279  0.50000426  0.18466228  1  0.012212  0  -0.012454  -0.022862  0  3.985888  0
C  C61  1  0.68466755  0.18467115  0.49999897  1  0.012814  0  -0.012449  -0.022785  0  3.986082  0
C  C62  1  0.90429741  0.51629979  0.77169880  1  1.009668  0  0.101795  0.271565  0  3.975162  0
C  C63  1  0.28799625  0.61200447  0.48369870  1  0.994869  0  0.101914  0.272298  0  3.975438  0
C  C64  1  0.09570180  0.32400963  0.38799474  1  1.007314  0  0.101836  0.2721  0  3.975567  0
C  C65  1  0.71199993  0.22830050  0.67599755  1  0.988401  0  0.101789  0.271557  0  3.975124  0
C  C66  1  0.28799792  0.67600036  0.22829907  1  0.988527  0  0.101799  0.271549  0  3.975104  0
C  C67  1  0.09569790  0.77169371  0.51630218  1  1.009316  0  0.101835  0.2716  0  3.97516  0
C  C68  1  0.71200103  0.48369371  0.61201083  1  0.994848  0  0.101945  0.272277  0  3.975413  0
C  C69  1  0.90430365  0.38799730  0.32400728  1  1.007423  0  0.101796  0.272005  0  3.975649  0
O  O70  1  0.53992565  0.46393982  0.89534693  1  -1.147956  0  -0.313409  -0.549369  0  2.277998  0
O  O71  1  0.35926931  0.92400854  0.53607614  1  -1.146537  0  -0.313358  -0.549246  0  2.278349  0
O  O72  1  0.46008150  0.56473416  0.07598952  1  -1.15482  0  -0.313366  -0.549294  0  2.278006  0
O  O73  1  0.64071187  0.10465360  0.43527515  1  -1.148053  0  -0.313362  -0.549248  0  2.278387  0
O  O74  1  0.35928442  0.43527710  0.10464690  1  -1.148  0  -0.313406  -0.549305  0  2.278134  0
O  O75  1  0.46006718  0.89534163  0.46395005  1  -1.147708  0  -0.313415  -0.549355  0  2.27797  0
O  O76  1  0.64072450  0.53606820  0.92401143  1  -1.146382  0  -0.313317  -0.549249  0  2.278532  0
O  O77  1  0.53991546  0.07599222  0.56473563  1  -1.154764  0  -0.313386  -0.549273  0  2.277797  0
O  O78  1  0.43817541  0.55784606  0.90204006  1  -1.129812  0  -0.305704  -0.533908  0  2.216517  0
O  O79  1  0.45991756  0.11967485  0.44213440  1  -1.12931  0  -0.305771  -0.534046  0  2.216765  0
O  O80  1  0.56183293  0.65978921  0.88033310  1  -1.130788  0  -0.305753  -0.53411  0  2.216385  0
O  O81  1  0.54012784  0.09794618  0.34018993  1  -1.130832  0  -0.305385  -0.53368  0  2.217554  0
O  O82  1  0.45987204  0.34019621  0.09795050  1  -1.130584  0  -0.305621  -0.534012  0  2.216944  0
O  O83  1  0.56183248  0.90204410  0.55783797  1  -1.130135  0  -0.305748  -0.534002  0  2.216657  0
O  O84  1  0.54009819  0.44214111  0.11966817  1  -1.129332  0  -0.305799  -0.534022  0  2.216626  0
O  O85  1  0.43817387  0.88033683  0.65978082  1  -1.130782  0  -0.305722  -0.534048  0  2.21636  0
O  O86  1  0.91571147  0.34734251  0.55357903  1  -1.120959  0  -0.299334  -0.528636  0  2.305867  0
O  O87  1  0.90091782  0.43163824  0.65265241  1  -1.124312  0  -0.299466  -0.52877  0  2.305288  0
O  O88  1  0.08428300  0.53071235  0.56837315  1  -1.131704  0  -0.299373  -0.528672  0  2.305637  0
O  O89  1  0.09908228  0.44644203  0.46927626  1  -1.127141  0  -0.299405  -0.528588  0  2.305412  0
O  O90  1  0.90091624  0.46927388  0.44644295  1  -1.127079  0  -0.299442  -0.528718  0  2.305187  0
O  O91  1  0.08428416  0.55357690  0.34734479  1  -1.120916  0  -0.299327  -0.528563  0  2.305582  0
O  O92  1  0.09908057  0.65264526  0.43164446  1  -1.124376  0  -0.299468  -0.528785  0  2.305424  0
O  O93  1  0.91571233  0.56836454  0.53071997  1  -1.131548  0  -0.299401  -0.528695  0  2.305696  0
O  O94  1  0.97497755  0.53902228  0.71555491  1  -1.056362  0  -0.240894  -0.312966  0  2.201401  0
O  O95  1  0.25457722  0.56405273  0.46096893  1  -1.05044  0  -0.240974  -0.313019  0  2.201173  0
O  O96  1  0.02501992  0.30947263  0.43595031  1  -1.053404  0  -0.240904  -0.312921  0  2.201269  0
O  O97  1  0.74541992  0.28444398  0.69053537  1  -1.052586  0  -0.240884  -0.31292  0  2.201285  0
O  O98  1  0.25457415  0.69053522  0.28444317  1  -1.052423  0  -0.240905  -0.312877  0  2.20124  0
O  O99  1  0.02501749  0.71554877  0.53902739  1  -1.05614  0  -0.240902  -0.312898  0  2.201349  0
O  O100  1  0.74541821  0.46096149  0.56405972  1  -1.050522  0  -0.240985  -0.313005  0  2.201178  0
O  O101  1  0.97498592  0.43595405  0.30946791  1  -1.053733  0  -0.240901  -0.312892  0  2.201323  0
