# generated using pymatgen
data_CdP2H36C22S4(NO2)2
_symmetry_space_group_name_H-M   'P 1'
_cell_length_a   11.74926597
_cell_length_b   11.67028559
_cell_length_c   14.64290000
_cell_angle_alpha   98.54514571
_cell_angle_beta   107.84772831
_cell_angle_gamma   115.84194457
_symmetry_Int_Tables_number   1
_chemical_formula_structural   CdP2H36C22S4(NO2)2
_chemical_formula_sum   'Cd2 P4 H72 C44 S8 N4 O8'
_cell_volume   1624.06232467
_cell_formula_units_Z   2
loop_
 _symmetry_equiv_pos_site_id
 _symmetry_equiv_pos_as_xyz
  1  'x, y, z'
loop_
 _atom_site_type_symbol
 _atom_site_label
 _atom_site_symmetry_multiplicity
 _atom_site_fract_x
 _atom_site_fract_y
 _atom_site_fract_z
 _atom_site_occupancy
 _atom_site_hle17_bader_spin_density
 _atom_site_hle17_ddec_charge
 _atom_site_hle17_ddec_spin_density
 _atom_site_hle17_ddec_sum_bond_order
 _atom_site_hle17_magmom
 _atom_site_hse06_10hf_bader_spin_density
 _atom_site_hse06_10hf_ddec_charge
 _atom_site_hse06_10hf_ddec_spin_density
 _atom_site_hse06_10hf_ddec_sum_bond_order
 _atom_site_hse06_10hf_magmom
 _atom_site_hse06_bader_spin_density
 _atom_site_hse06_ddec_charge
 _atom_site_hse06_ddec_spin_density
 _atom_site_hse06_ddec_sum_bond_order
 _atom_site_hse06_magmom
 _atom_site_pbe_bader_charge
 _atom_site_pbe_bader_spin_density
 _atom_site_pbe_cm5_charge
 _atom_site_pbe_ddec_charge
 _atom_site_pbe_ddec_spin_density
 _atom_site_pbe_ddec_sum_bond_order
 _atom_site_pbe_magmom
Cd  Cd0  1  0.99999901  0.99999982  0.49999939  1  0  0.788561  0  2.188309  0  0  0.632621  0  2.639973  0  0  0.669703  0  2.614613  0  1.040861  0  0.624375  0.606736  0  2.65768  0
Cd  Cd1  1  0.00000039  0.49999941  0.00000043  1  0  0.786838  0  2.174389  0  0  0.630809  0  2.625755  0  0  0.668274  0  2.600372  0  1.035063  0  0.616669  0.604466  0  2.643716  0
P  P2  1  0.32923967  0.14788983  0.62425667  1  0  1.028888  0  4.811221  0  0  0.904464  0  5.334046  0  0  0.952171  0  5.305803  0  2.322737  0  0.253548  0.870945  0  5.353204  0
P  P3  1  0.02443456  0.70502584  0.87565952  1  0  1.02811  0  4.811558  0  0  0.903432  0  5.334596  0  0  0.951112  0  5.306429  0  2.339119  0  0.253282  0.869871  0  5.353818  0
P  P4  1  0.67076023  0.85210999  0.37574295  1  0  1.028874  0  4.811232  0  0  0.904382  0  5.334084  0  0  0.952087  0  5.305843  0  2.322767  0  0.253509  0.870861  0  5.353244  0
P  P5  1  0.97556534  0.29497399  0.12434078  1  0  1.028106  0  4.811651  0  0  0.903458  0  5.334716  0  0  0.951141  0  5.306544  0  2.338639  0  0.25328  0.869898  0  5.353936  0
H  H6  1  0.37340474  0.35310886  0.54625050  1  0  0.009497  0  0.954543  0  0  0.021002  0  1.019409  0  0  0.020891  0  1.019449  0  0.064509  0  0.089412  0.020986  0  1.019551  0
H  H7  1  0.30651861  0.82696557  0.95363591  1  0  0.00797  0  0.955168  0  0  0.019693  0  1.019768  0  0  0.019489  0  1.019842  0  0.056108  0  0.089051  0.019715  0  1.019884  0
H  H8  1  0.62659570  0.64689197  0.45375073  1  0  0.009517  0  0.954518  0  0  0.021018  0  1.01935  0  0  0.020909  0  1.019389  0  0.064488  0  0.089437  0.021005  0  1.01949  0
H  H9  1  0.69348147  0.17303627  0.04636398  1  0  0.007989  0  0.955171  0  0  0.019697  0  1.019743  0  0  0.019493  0  1.019817  0  0.056133  0  0.089049  0.019719  0  1.019861  0
H  H10  1  0.31521484  0.42059121  0.68666918  1  0  0.105647  0  0.96868  0  0  0.120376  0  1.039668  0  0  0.121577  0  1.040701  0  0.07279  0  0.080869  0.119412  0  1.039019  0
H  H11  1  0.23249633  0.62660078  0.81266369  1  0  0.105276  0  0.968954  0  0  0.120133  0  1.039871  0  0  0.121333  0  1.040919  0  0.068625  0  0.081089  0.119181  0  1.039193  0
H  H12  1  0.68478650  0.57940962  0.31333227  1  0  0.105663  0  0.968684  0  0  0.120384  0  1.039671  0  0  0.121584  0  1.040705  0  0.072772  0  0.080869  0.11942  0  1.039022  0
H  H13  1  0.76750411  0.37340005  0.18733754  1  0  0.105263  0  0.968968  0  0  0.120118  0  1.039891  0  0  0.121312  0  1.040943  0  0.06862  0  0.081083  0.119167  0  1.039213  0
H  H14  1  0.41371287  0.56501229  0.65764482  1  0  0.107327  0  0.939958  0  0  0.132064  0  0.993647  0  0  0.133251  0  0.993924  0  0.021681  0  0.091201  0.130984  0  0.993747  0
H  H15  1  0.40533863  0.75533585  0.84258968  1  0  0.106507  0  0.939662  0  0  0.131049  0  0.993613  0  0  0.132229  0  0.993904  0  0.064961  0  0.09074  0.129977  0  0.9937  0
H  H16  1  0.58628936  0.43498854  0.34235616  1  0  0.107312  0  0.940001  0  0  0.132058  0  0.993679  0  0  0.133246  0  0.993956  0  0.021675  0  0.091199  0.130979  0  0.993778  0
H  H17  1  0.59466270  0.24466499  0.15741109  1  0  0.106529  0  0.939677  0  0  0.131049  0  0.993652  0  0  0.132229  0  0.993943  0  0.064971  0  0.090735  0.129977  0  0.99374  0
H  H18  1  0.49537055  0.53350110  0.76746649  1  0  0.107491  0  0.952984  0  0  0.128329  0  1.013843  0  0  0.129453  0  1.014772  0  0.041284  0  0.087869  0.127431  0  1.013234  0
H  H19  1  0.26454543  0.72721274  0.73255781  1  0  0.107954  0  0.952259  0  0  0.128661  0  1.013297  0  0  0.129731  0  1.014309  0  0.035389  0  0.087935  0.127803  0  1.012635  0
H  H20  1  0.50463131  0.46650074  0.23253452  1  0  0.107498  0  0.952924  0  0  0.128331  0  1.013798  0  0  0.129456  0  1.014727  0  0.041163  0  0.087865  0.127434  0  1.013189  0
H  H21  1  0.73545394  0.27278608  0.26744223  1  0  0.107959  0  0.952222  0  0  0.128675  0  1.013249  0  0  0.129744  0  1.014261  0  0.035382  0  0.087946  0.127817  0  1.012587  0
H  H22  1  0.61457989  0.42417895  0.57281666  1  0  0.104996  0  0.938433  0  0  0.125495  0  0.99863  0  0  0.127039  0  0.998424  0  0.028248  0  0.086455  0.124238  0  0.999025  0
H  H23  1  0.35234500  0.04389584  0.92749302  1  0  0.105192  0  0.939133  0  0  0.126027  0  0.998748  0  0  0.127609  0  0.998527  0  0.018278  0  0.08669  0.124737  0  0.999159  0
H  H24  1  0.38542144  0.57582189  0.42718411  1  0  0.10503  0  0.938424  0  0  0.125528  0  0.998617  0  0  0.127073  0  0.998411  0  0.028236  0  0.086478  0.12427  0  0.999013  0
H  H25  1  0.64765544  0.95610499  0.07250548  1  0  0.105183  0  0.939144  0  0  0.126016  0  0.998763  0  0  0.127599  0  0.998542  0  0.018269  0  0.086691  0.124725  0  0.999176  0
H  H26  1  0.68030600  0.52940212  0.69965800  1  0  0.124631  0  0.963865  0  0  0.138411  0  1.034347  0  0  0.140812  0  1.033504  0  0.05563  0  0.086211  0.136618  0  1.034934  0
H  H27  1  0.32952516  0.98142587  0.80072168  1  0  0.124429  0  0.964391  0  0  0.138055  0  1.035359  0  0  0.140513  0  1.034492  0  0.069583  0  0.08593  0.136251  0  1.035943  0
H  H28  1  0.31969444  0.47059871  0.30034186  1  0  0.124646  0  0.963827  0  0  0.138413  0  1.034325  0  0  0.14082  0  1.033476  0  0.055648  0  0.086212  0.13662  0  1.034911  0
H  H29  1  0.67047564  0.01857396  0.19927679  1  0  0.124447  0  0.964383  0  0  0.138055  0  1.035371  0  0  0.140512  0  1.034505  0  0.069608  0  0.085939  0.136252  0  1.035952  0
H  H30  1  0.60078899  0.57098378  0.59574374  1  0  0.10675  0  0.950714  0  0  0.129965  0  1.009474  0  0  0.13075  0  1.010151  0  0.028233  0  0.090298  0.129269  0  1.009206  0
H  H31  1  0.47434145  0.00531506  0.90474403  1  0  0.106349  0  0.949826  0  0  0.129453  0  1.008775  0  0  0.130196  0  1.0095  0  0.040657  0  0.090039  0.128766  0  1.008505  0
H  H32  1  0.39921145  0.42901705  0.40425681  1  0  0.106752  0  0.950734  0  0  0.129964  0  1.009498  0  0  0.130749  0  1.010176  0  0.028227  0  0.090298  0.129271  0  1.009228  0
H  H33  1  0.52565899  0.99468578  0.09525515  1  0  0.106355  0  0.949814  0  0  0.129461  0  1.008759  0  0  0.130204  0  1.009484  0  0.040657  0  0.090044  0.128773  0  1.00849  0
H  H34  1  0.45835339  0.04550014  0.54779497  1  0  0.012532  0  0.951637  0  0  0.027513  0  1.013672  0  0  0.026795  0  1.014333  0  0.063813  0  0.095393  0.028049  0  1.013247  0
H  H35  1  0.99841734  0.91176950  0.95246965  1  0  0.012936  0  0.953839  0  0  0.027867  0  1.014974  0  0  0.027123  0  1.015632  0  0.0665  0  0.095761  0.028416  0  1.01456  0
H  H36  1  0.54164509  0.95449867  0.45220349  1  0  0.012558  0  0.95166  0  0  0.027539  0  1.013686  0  0  0.026822  0  1.014345  0  0.063887  0  0.095397  0.028074  0  1.013261  0
H  H37  1  0.00158220  0.08823133  0.04753000  1  0  0.012929  0  0.953871  0  0  0.027869  0  1.014987  0  0  0.027128  0  1.015647  0  0.066491  0  0.095748  0.028419  0  1.014573  0
H  H38  1  0.66595873  0.24206140  0.69327851  1  0  0.118926  0  0.960074  0  0  0.13559  0  1.026312  0  0  0.137672  0  1.025642  0  0.038944  0  0.084771  0.134105  0  1.026793  0
H  H39  1  0.04851194  0.97403359  0.80735964  1  0  0.119531  0  0.958903  0  0  0.136062  0  1.025208  0  0  0.138163  0  1.024523  0  0.057723  0  0.085024  0.134548  0  1.02573  0
H  H40  1  0.33404064  0.75793741  0.30672017  1  0  0.11894  0  0.960092  0  0  0.135604  0  1.026333  0  0  0.137688  0  1.025661  0  0.039017  0  0.084771  0.13412  0  1.026813  0
H  H41  1  0.95148744  0.02596522  0.19263904  1  0  0.119529  0  0.958872  0  0  0.13606  0  1.025181  0  0  0.138161  0  1.024494  0  0.057725  0  0.085003  0.134548  0  1.025699  0
H  H42  1  0.70446465  0.11480056  0.65719078  1  0  0.110582  0  0.95194  0  0  0.130622  0  1.015263  0  0  0.131596  0  1.015999  0  0.030451  0  0.084781  0.129987  0  1.014711  0
H  H43  1  0.95831660  0.04949022  0.84315335  1  0  0.109384  0  0.954363  0  0  0.129554  0  1.017696  0  0  0.130554  0  1.018423  0  0.055885  0  0.084315  0.128891  0  1.017158  0
H  H44  1  0.29553472  0.88519825  0.34280791  1  0  0.110608  0  0.95192  0  0  0.130645  0  1.015248  0  0  0.131619  0  1.015984  0  0.030206  0  0.084804  0.13001  0  1.014695  0
H  H45  1  0.04168277  0.95050860  0.15684533  1  0  0.109396  0  0.954373  0  0  0.129564  0  1.017709  0  0  0.130562  0  1.018439  0  0.05591  0  0.084316  0.128902  0  1.017171  0
H  H46  1  0.67083654  0.13428708  0.76741797  1  0  0.112268  0  0.95477  0  0  0.134058  0  1.015655  0  0  0.135525  0  1.015447  0  0.036437  0  0.081359  0.133017  0  1.015784  0
H  H47  1  0.86711066  0.90417253  0.73285804  1  0  0.112821  0  0.953141  0  0  0.134381  0  1.014222  0  0  0.135858  0  1.014015  0  0.045721  0  0.081449  0.133358  0  1.014331  0
H  H48  1  0.32916194  0.86571173  0.23258049  1  0  0.112232  0  0.954784  0  0  0.134041  0  1.015652  0  0  0.135507  0  1.015449  0  0.036339  0  0.081343  0.133  0  1.01578  0
H  H49  1  0.13288782  0.09582629  0.26714042  1  0  0.112799  0  0.953179  0  0  0.134379  0  1.014241  0  0  0.135856  0  1.014034  0  0.045753  0  0.08144  0.133356  0  1.01435  0
H  H50  1  0.33722793  0.82374790  0.56879514  1  0  0.108816  0  0.947074  0  0  0.126138  0  1.011428  0  0  0.127677  0  1.011759  0  0.026689  0  0.086547  0.125027  0  1.011201  0
H  H51  1  0.75682203  0.76787276  0.93051531  1  0  0.10931  0  0.948749  0  0  0.127009  0  1.012461  0  0  0.128567  0  1.012795  0  0.019921  0  0.086811  0.125871  0  1.012243  0
H  H52  1  0.66277055  0.17625091  0.43120332  1  0  0.108821  0  0.947116  0  0  0.126123  0  1.01148  0  0  0.127662  0  1.01181  0  0.026728  0  0.086535  0.125014  0  1.011251  0
H  H53  1  0.24317555  0.23212605  0.06948361  1  0  0.109348  0  0.948798  0  0  0.127047  0  1.012502  0  0  0.128606  0  1.012835  0  0.019882  0  0.086831  0.125909  0  1.012284  0
H  H54  1  0.47042561  0.88274492  0.69349050  1  0  0.107593  0  0.945446  0  0  0.130993  0  1.00176  0  0  0.132419  0  1.001813  0  0.038809  0  0.091434  0.129869  0  1.00185  0
H  H55  1  0.69066376  0.77638230  0.80595387  1  0  0.109028  0  0.945552  0  0  0.131887  0  1.002434  0  0  0.133294  0  1.002511  0  0.047046  0  0.091419  0.130781  0  1.002499  0
H  H56  1  0.52957287  0.11725390  0.30650728  1  0  0.107595  0  0.94548  0  0  0.130994  0  1.001787  0  0  0.13242  0  1.001839  0  0.038767  0  0.091412  0.129869  0  1.001878  0
H  H57  1  0.30933525  0.22361753  0.19404484  1  0  0.109077  0  0.945505  0  0  0.131929  0  1.002398  0  0  0.133338  0  1.002473  0  0.047073  0  0.091436  0.130824  0  1.002462  0
H  H58  1  0.50949473  0.86486471  0.58570944  1  0  0.107621  0  0.962821  0  0  0.125366  0  1.029889  0  0  0.126606  0  1.029988  0  0.047141  0  0.085209  0.124061  0  1.030694  0
H  H59  1  0.78070951  0.92433767  0.91397901  1  0  0.107611  0  0.963893  0  0  0.124924  0  1.031506  0  0  0.126137  0  1.031636  0  0.054827  0  0.08419  0.123622  0  1.0323  0
H  H60  1  0.49050375  0.13513410  0.41428833  1  0  0.107642  0  0.962823  0  0  0.125356  0  1.029916  0  0  0.126599  0  1.030014  0  0.047149  0  0.085205  0.124052  0  1.030722  0
H  H61  1  0.21929092  0.07566316  0.08602018  1  0  0.107578  0  0.963966  0  0  0.124929  0  1.031531  0  0  0.126143  0  1.03166  0  0.0553  0  0.084175  0.123627  0  1.032326  0
H  H62  1  0.97238893  0.21426501  0.62970765  1  0  0.076767  0  0.940142  0  0  0.08663  0  1.002018  0  0  0.088838  0  1.000048  0  0.088777  0  0.108666  0.084854  0  1.003865  0
H  H63  1  0.08575404  0.34174668  0.86980617  1  0  0.075428  0  0.939192  0  0  0.085372  0  1.001242  0  0  0.087576  0  0.999299  0  0.117449  0  0.108271  0.083596  0  1.00308  0
H  H64  1  0.02761455  0.78573482  0.37029421  1  0  0.076826  0  0.940114  0  0  0.086683  0  1.001989  0  0  0.088893  0  1.000018  0  0.088816  0  0.108692  0.084908  0  1.003833  0
H  H65  1  0.91424729  0.65825415  0.13019255  1  0  0.075425  0  0.939183  0  0  0.085353  0  1.001252  0  0  0.087556  0  0.999309  0  0.117447  0  0.108255  0.083578  0  1.00309  0
H  H66  1  0.96907635  0.42600811  0.63843264  1  0  0.105808  0  0.993965  0  0  0.11377  0  1.059362  0  0  0.117053  0  1.05821  0  0.105644  0  0.096912  0.111435  0  1.060408  0
H  H67  1  0.28743860  0.33021510  0.86090439  1  0  0.105454  0  0.996373  0  0  0.113941  0  1.06107  0  0  0.117229  0  1.059966  0  0.127289  0  0.096283  0.111723  0  1.0619  0
H  H68  1  0.03092945  0.57399273  0.36157333  1  0  0.105813  0  0.993981  0  0  0.113777  0  1.059377  0  0  0.117061  0  1.058224  0  0.105874  0  0.096922  0.11144  0  1.060426  0
H  H69  1  0.71256220  0.66978473  0.13909476  1  0  0.105467  0  0.996371  0  0  0.113961  0  1.061063  0  0  0.11725  0  1.059962  0  0.127313  0  0.09628  0.111746  0  1.061891  0
H  H70  1  0.03550984  0.40849091  0.36135971  1  0  0.10966  0  0.98112  0  0  0.116819  0  1.047584  0  0  0.120331  0  1.045943  0  0.114333  0  0.103259  0.114278  0  1.049011  0
H  H71  1  0.54788817  0.67538817  0.13922407  1  0  0.109415  0  0.982894  0  0  0.116264  0  1.049773  0  0  0.119761  0  1.048211  0  0.110515  0  0.10227  0.113817  0  1.051048  0
H  H72  1  0.96448702  0.59150992  0.63864201  1  0  0.109662  0  0.981067  0  0  0.116816  0  1.047532  0  0  0.120327  0  1.045892  0  0.114284  0  0.103268  0.114272  0  1.048967  0
H  H73  1  0.45211174  0.32461165  0.86077486  1  0  0.109438  0  0.982891  0  0  0.116288  0  1.04977  0  0  0.119784  0  1.048204  0  0.11049  0  0.102277  0.113841  0  1.051045  0
H  H74  1  0.03449442  0.19753332  0.36571252  1  0  0.085908  0  0.936108  0  0  0.091864  0  1.005748  0  0  0.094183  0  1.003505  0  0.114951  0  0.116053  0.090232  0  1.007337  0
H  H75  1  0.33413605  0.66974540  0.13496746  1  0  0.086648  0  0.936072  0  0  0.092405  0  1.005924  0  0  0.094809  0  1.003612  0  0.127884  0  0.115896  0.090694  0  1.007559  0
H  H76  1  0.96550244  0.80246751  0.63428783  1  0  0.086001  0  0.936087  0  0  0.091953  0  1.005709  0  0  0.094275  0  1.003465  0  0.115013  0  0.116097  0.090319  0  1.007301  0
H  H77  1  0.66586422  0.33025341  0.86503212  1  0  0.086656  0  0.936041  0  0  0.092408  0  1.005902  0  0  0.09481  0  1.003591  0  0.127867  0  0.115897  0.090695  0  1.007539  0
C  C78  1  0.45529113  0.40478923  0.62445847  1  0  0.330979  0  3.578949  0  0  0.314995  0  3.83024  0  0  0.323605  0  3.841523  0  0.381642  0  0.004526  0.308909  0  3.822585  0
C  C79  1  0.27960441  0.83072776  0.87556159  1  0  0.333694  0  3.577301  0  0  0.31794  0  3.828227  0  0  0.326698  0  3.839286  0  0.414996  0  0.006362  0.311795  0  3.820644  0
C  C80  1  0.54470930  0.59521160  0.37554276  1  0  0.330912  0  3.578982  0  0  0.315014  0  3.830126  0  0  0.323622  0  3.841408  0  0.381633  0  0.004496  0.308922  0  3.822481  0
C  C81  1  0.72039513  0.16927307  0.12443805  1  0  0.333599  0  3.577466  0  0  0.317979  0  3.828221  0  0  0.326743  0  3.839268  0  0.41496  0  0.006357  0.311835  0  3.820638  0
C  C82  1  0.41754156  0.48556274  0.68818495  1  0  -0.362121  0  3.684138  0  0  -0.439815  0  3.920785  0  0  -0.44358  0  3.930167  0  -0.09995  0  -0.250657  -0.436843  0  3.914312  0
C  C83  1  0.29573736  0.72831992  0.81166390  1  0  -0.36111  0  3.683937  0  0  -0.438783  0  3.920747  0  0  -0.442554  0  3.930206  0  -0.139013  0  -0.250443  -0.435814  0  3.914188  0
C  C84  1  0.58246120  0.51443910  0.31181698  1  0  -0.362136  0  3.684081  0  0  -0.439851  0  3.920714  0  0  -0.443617  0  3.930096  0  -0.099793  0  -0.250672  -0.436879  0  3.914243  0
C  C85  1  0.70426307  0.27168092  0.18833665  1  0  -0.361068  0  3.684013  0  0  -0.438754  0  3.920792  0  0  -0.442518  0  3.930257  0  -0.139024  0  -0.250413  -0.435785  0  3.914233  0
C  C86  1  0.59622784  0.48714788  0.62329004  1  0  -0.358319  0  3.676771  0  0  -0.438685  0  3.919518  0  0  -0.441994  0  3.927918  0  -0.041149  0  -0.25058  -0.436005  0  3.913715  0
C  C87  1  0.36360376  0.97378150  0.87706118  1  0  -0.358556  0  3.674852  0  0  -0.439226  0  3.917876  0  0  -0.442636  0  3.926208  0  -0.073226  0  -0.251322  -0.436511  0  3.912114  0
C  C88  1  0.40377438  0.51285295  0.37671095  1  0  -0.358321  0  3.676815  0  0  -0.438697  0  3.919542  0  0  -0.442013  0  3.927936  0  -0.041139  0  -0.250572  -0.436017  0  3.913739  0
C  C89  1  0.63639668  0.02621933  0.12293800  1  0  -0.358559  0  3.674859  0  0  -0.439234  0  3.917843  0  0  -0.442646  0  3.926173  0  -0.073223  0  -0.251339  -0.436518  0  3.912079  0
C  C90  1  0.48849198  0.03778217  0.62463603  1  0  0.336086  0  3.56452  0  0  0.318356  0  3.819434  0  0  0.327422  0  3.830125  0  0.379549  0  0.00762  0.312078  0  3.811828  0
C  C91  1  0.91401472  0.86459044  0.87542502  1  0  0.335488  0  3.567305  0  0  0.31995  0  3.818047  0  0  0.329169  0  3.828474  0  0.386768  0  0.008061  0.313524  0  3.810711  0
C  C92  1  0.51150561  0.96221665  0.37536153  1  0  0.336183  0  3.564538  0  0  0.318423  0  3.81943  0  0  0.32749  0  3.830121  0  0.379551  0  0.007623  0.312145  0  3.811824  0
C  C93  1  0.08598340  0.13540938  0.12457416  1  0  0.335452  0  3.567402  0  0  0.319908  0  3.818136  0  0  0.329121  0  3.828574  0  0.386749  0  0.008032  0.313481  0  3.810803  0
C  C94  1  0.64164726  0.13901426  0.68975892  1  0  -0.364278  0  3.664068  0  0  -0.441423  0  3.899807  0  0  -0.445033  0  3.908382  0  -0.046106  0  -0.253533  -0.438605  0  3.893641  0
C  C95  1  0.94958436  0.95325033  0.81063384  1  0  -0.363706  0  3.664971  0  0  -0.441338  0  3.899534  0  0  -0.445026  0  3.908089  0  -0.101915  0  -0.253355  -0.438462  0  3.893399  0
C  C96  1  0.35835211  0.86098455  0.31023976  1  0  -0.364297  0  3.664016  0  0  -0.441474  0  3.89977  0  0  -0.445086  0  3.908342  0  -0.045868  0  -0.253544  -0.438656  0  3.893603  0
C  C97  1  0.05041465  0.04674950  0.18936418  1  0  -0.363663  0  3.665004  0  0  -0.441311  0  3.899559  0  0  -0.444997  0  3.908118  0  -0.101949  0  -0.253305  -0.438435  0  3.893425  0
C  C98  1  0.44835779  0.89318243  0.61759931  1  0  -0.353887  0  3.67808  0  0  -0.4312  0  3.91645  0  0  -0.434408  0  3.924499  0  -0.066214  0  -0.247278  -0.428684  0  3.911191  0
C  C99  1  0.77705130  0.83070053  0.88196849  1  0  -0.355722  0  3.678876  0  0  -0.433164  0  3.91642  0  0  -0.436405  0  3.924414  0  -0.086936  0  -0.247257  -0.430583  0  3.911206  0
C  C100  1  0.55163979  0.10681638  0.38239825  1  0  -0.353944  0  3.678206  0  0  -0.431215  0  3.916578  0  0  -0.434426  0  3.924625  0  -0.066212  0  -0.247242  -0.428699  0  3.911317  0
C  C101  1  0.22294861  0.16929929  0.11802908  1  0  -0.355765  0  3.678954  0  0  -0.433241  0  3.916481  0  0  -0.436481  0  3.924474  0  -0.087391  0  -0.24727  -0.430659  0  3.91127  0
C  C102  1  0.98643773  0.26204807  0.57227498  1  0  0.126285  0  3.744707  0  0  0.094654  0  3.995761  0  0  0.101383  0  4.014879  0  0.492812  0  0.043632  0.090129  0  3.982686  0
C  C103  1  0.19077053  0.41371219  0.92766418  1  0  0.125842  0  3.743747  0  0  0.094471  0  3.995777  0  0  0.101102  0  4.014955  0  0.478689  0  0.043532  0.09003  0  3.982644  0
C  C104  1  0.01356343  0.73795074  0.42772755  1  0  0.126116  0  3.744878  0  0  0.094502  0  3.995921  0  0  0.101231  0  4.015041  0  0.492338  0  0.04351  0.089978  0  3.982845  0
C  C105  1  0.80923027  0.58628764  0.07233565  1  0  0.125939  0  3.743688  0  0  0.094585  0  3.995719  0  0  0.101216  0  4.014897  0  0.47863  0  0.043601  0.090144  0  3.982586  0
C  C106  1  0.98420711  0.38033755  0.57603038  1  0  -0.154539  0  3.698815  0  0  -0.1681  0  3.937722  0  0  -0.175455  0  3.958563  0  -0.036274  0  -0.080881  -0.163245  0  3.923724  0
C  C107  1  0.30460675  0.40792724  0.92372604  1  0  -0.157327  0  3.702773  0  0  -0.171674  0  3.941364  0  0  -0.179063  0  3.962312  0  -0.065291  0  -0.082727  -0.166851  0  3.927274  0
C  C108  1  0.01579635  0.61966731  0.42397343  1  0  -0.154471  0  3.698715  0  0  -0.168007  0  3.937609  0  0  -0.175365  0  3.958452  0  -0.035796  0  -0.080832  -0.163152  0  3.923614  0
C  C109  1  0.69539316  0.59207259  0.07627357  1  0  -0.157382  0  3.702826  0  0  -0.171752  0  3.941399  0  0  -0.179145  0  3.962351  0  -0.065222  0  -0.082747  -0.16693  0  3.927306  0
C  C110  1  0.00160644  0.43749734  0.49980992  1  0  0.091493  0  3.757272  0  0  0.1032  0  3.985671  0  0  0.106791  0  4.007454  0  -0.015694  0  0.01306  0.10088  0  3.971171  0
C  C111  1  0.43807132  0.50190520  0.00023426  1  0  0.091001  0  3.754888  0  0  0.10357  0  3.981724  0  0  0.107108  0  4.003616  0  -0.023765  0  0.013219  0.101265  0  3.967182  0
C  C112  1  0.99839347  0.56250248  0.50019447  1  0  0.091335  0  3.756924  0  0  0.102955  0  3.985411  0  0  0.106546  0  4.007194  0  -0.056039  0  0.012904  0.100634  0  3.970911  0
C  C113  1  0.56192769  0.49809462  0.99976513  1  0  0.090978  0  3.754914  0  0  0.103607  0  3.981697  0  0  0.107145  0  4.003591  0  -0.057529  0  0.013257  0.101302  0  3.967156  0
C  C114  1  0.02144139  0.37104251  0.42325667  1  0  -0.144193  0  3.672755  0  0  -0.160887  0  3.915649  0  0  -0.167718  0  3.935209  0  -0.003153  0  -0.076927  -0.156231  0  3.902465  0
C  C115  1  0.44859446  0.59876405  0.07705744  1  0  -0.143918  0  3.67175  0  0  -0.160652  0  3.914207  0  0  -0.167481  0  3.933892  0  0.002694  0  -0.076807  -0.156022  0  3.900872  0
C  C116  1  0.97855743  0.62896034  0.57674508  1  0  -0.143953  0  3.672544  0  0  -0.160588  0  3.915388  0  0  -0.167418  0  3.934948  0  -0.003199  0  -0.076798  -0.155932  0  3.902201  0
C  C117  1  0.55140492  0.40123476  0.92294124  1  0  -0.143891  0  3.671782  0  0  -0.160637  0  3.914216  0  0  -0.167464  0  3.933898  0  0.002806  0  -0.076791  -0.156007  0  3.90088  0
C  C118  1  0.02153167  0.25244346  0.42498214  1  0  0.148128  0  3.688121  0  0  0.115334  0  3.941987  0  0  0.123192  0  3.959109  0  0.495837  0  0.054315  0.110043  0  3.93017  0
C  C119  1  0.32891499  0.59692682  0.07539157  1  0  0.144218  0  3.687416  0  0  0.111851  0  3.941907  0  0  0.119542  0  3.95909  0  0.469169  0  0.052795  0.106728  0  3.930057  0
C  C120  1  0.97846681  0.74755536  0.57501974  1  0  0.14789  0  3.68818  0  0  0.1151  0  3.942038  0  0  0.122958  0  3.959158  0  0.495699  0  0.054232  0.10981  0  3.930221  0
C  C121  1  0.67108580  0.40307300  0.92460826  1  0  0.144155  0  3.687486  0  0  0.111797  0  3.941964  0  0  0.119491  0  3.959148  0  0.469093  0  0.05278  0.106676  0  3.930114  0
S  S122  1  0.20247760  0.13111983  0.69322441  1  0  -0.570774  0  1.918092  0  0  -0.527669  0  2.255729  0  0  -0.545788  0  2.24094  0  -0.741502  0  -0.206488  -0.514898  0  2.266232  0
S  S123  1  0.93843362  0.50758327  0.80680928  1  0  -0.568506  0  1.916099  0  0  -0.525181  0  2.253631  0  0  -0.543374  0  2.238912  0  -0.757671  0  -0.205886  -0.512353  0  2.2643  0
S  S124  1  0.79752177  0.86887899  0.30677564  1  0  -0.570756  0  1.918098  0  0  -0.52765  0  2.255742  0  0  -0.545769  0  2.240958  0  -0.741498  0  -0.206482  -0.514879  0  2.266249  0
S  S125  1  0.06156628  0.49241655  0.19319102  1  0  -0.56851  0  1.916097  0  0  -0.52518  0  2.253624  0  0  -0.543375  0  2.238905  0  -0.757653  0  -0.205891  -0.512359  0  2.264303  0
S  S126  1  0.23979975  0.08443184  0.47173872  1  0  -0.601907  0  1.9202  0  0  -0.560686  0  2.253436  0  0  -0.577946  0  2.238247  0  -0.744149  0  -0.216461  -0.548934  0  2.26466  0
S  S127  1  0.11400226  0.76904952  0.02824378  1  0  -0.598064  0  1.922811  0  0  -0.556232  0  2.256372  0  0  -0.573628  0  2.241363  0  -0.738074  0  -0.215067  -0.544138  0  2.26741  0
S  S128  1  0.76019943  0.91557000  0.52826164  1  0  -0.60188  0  1.920184  0  0  -0.560659  0  2.253422  0  0  -0.577918  0  2.238232  0  -0.744123  0  -0.216448  -0.548905  0  2.264644  0
S  S129  1  0.88599801  0.23094930  0.97175580  1  0  -0.598077  0  1.922806  0  0  -0.556241  0  2.256361  0  0  -0.573639  0  2.241351  0  -0.738064  0  -0.215072  -0.544147  0  2.267399  0
N  N130  1  0.00444544  0.19917795  0.49818458  1  0  -0.319944  0  3.350045  0  0  -0.238835  0  3.603508  0  0  -0.259221  0  3.627367  0  -1.249329  0  -0.336323  -0.22424  0  3.586835  0
N  N131  1  0.20220441  0.50601628  0.00210883  1  0  -0.317523  0  3.331596  0  0  -0.23792  0  3.5857  0  0  -0.258079  0  3.609474  0  -1.246071  0  -0.332032  -0.223435  0  3.569025  0
N  N132  1  0.99555536  0.80082187  0.50181525  1  0  -0.319839  0  3.35001  0  0  -0.238765  0  3.603491  0  0  -0.259153  0  3.627353  0  -1.249287  0  -0.336263  -0.224169  0  3.586819  0
N  N133  1  0.79779549  0.49398354  0.99789078  1  0  -0.317559  0  3.331622  0  0  -0.237967  0  3.585736  0  0  -0.258126  0  3.609508  0  -1.246081  0  -0.332075  -0.223482  0  3.56906  0
O  O134  1  0.46122765  0.29889045  0.66559386  1  0  -0.476204  0  2.226004  0  0  -0.388631  0  2.468795  0  0  -0.411496  0  2.464525  0  -1.276802  0  -0.208457  -0.372595  0  2.471451  0
O  O135  1  0.13325005  0.79588798  0.83448103  1  0  -0.476617  0  2.224853  0  0  -0.388935  0  2.46711  0  0  -0.411737  0  2.462687  0  -1.277891  0  -0.208823  -0.372923  0  2.469854  0
O  O136  1  0.53877315  0.70110937  0.33440666  1  0  -0.476177  0  2.225975  0  0  -0.388632  0  2.468758  0  0  -0.411497  0  2.464488  0  -1.276795  0  -0.208448  -0.372595  0  2.471414  0
O  O137  1  0.86675039  0.20411286  0.16551884  1  0  -0.476556  0  2.224964  0  0  -0.388995  0  2.46725  0  0  -0.411798  0  2.462824  0  -1.277887  0  -0.208827  -0.372984  0  2.469994  0
O  O138  1  0.40427815  0.06932260  0.66868389  1  0  -0.472389  0  2.239833  0  0  -0.385968  0  2.483055  0  0  -0.408763  0  2.47812  0  -1.269734  0  -0.206759  -0.369703  0  2.48587  0
O  O139  1  0.90181420  0.73565370  0.83121179  1  0  -0.472376  0  2.242431  0  0  -0.386685  0  2.48543  0  0  -0.409554  0  2.48047  0  -1.267878  0  -0.206274  -0.370337  0  2.488287  0
O  O140  1  0.59572175  0.93067722  0.33131436  1  0  -0.472513  0  2.239876  0  0  -0.385953  0  2.482985  0  0  -0.408747  0  2.478048  0  -1.269753  0  -0.206742  -0.369689  0  2.485801  0
O  O141  1  0.09818517  0.26434511  0.16878757  1  0  -0.472403  0  2.24253  0  0  -0.386696  0  2.485499  0  0  -0.409566  0  2.48054  0  -1.267395  0  -0.206275  -0.370349  0  2.488357  0
