# generated using pymatgen
data_CuPH34C21N2ClO3
_symmetry_space_group_name_H-M   'P 1'
_cell_length_a   8.28670962
_cell_length_b   9.09127474
_cell_length_c   15.73196134
_cell_angle_alpha   89.01808791
_cell_angle_beta   85.21917840
_cell_angle_gamma   79.73572771
_symmetry_Int_Tables_number   1
_chemical_formula_structural   CuPH34C21N2ClO3
_chemical_formula_sum   'Cu2 P2 H68 C42 N4 Cl2 O6'
_cell_volume   1162.16676362
_cell_formula_units_Z   2
loop_
 _symmetry_equiv_pos_site_id
 _symmetry_equiv_pos_as_xyz
  1  'x, y, z'
loop_
 _atom_site_type_symbol
 _atom_site_label
 _atom_site_symmetry_multiplicity
 _atom_site_fract_x
 _atom_site_fract_y
 _atom_site_fract_z
 _atom_site_occupancy
 _atom_site_pbe_bader_charge
 _atom_site_pbe_bader_spin_density
 _atom_site_pbe_cm5_charge
 _atom_site_pbe_ddec_charge
 _atom_site_pbe_ddec_spin_density
 _atom_site_pbe_ddec_sum_bond_order
 _atom_site_pbe_magmom
Cu  Cu0  1  0.67945858  0.09728050  0.01196646  1  1.039575  0.557477  0.659553  0.835357  0.722275  2.206664  0.559
Cu  Cu1  1  0.32054199  0.90270424  0.98802741  1  1.039906  -0.557478  0.659415  0.835202  -0.722279  2.206893  -0.559
P  P2  1  0.98492218  0.97553100  0.89065394  1  3.243788  -0.00217  0.35674  1.301098  -0.002923  5.191979  -0.003
P  P3  1  0.01507233  0.02445375  0.10934146  1  3.243939  0.002173  0.356717  1.301023  0.002925  5.192082  0.003
H  H4  1  0.32146267  0.18662205  0.07366501  1  0.551459  0.000453  0.313784  0.273543  0.000308  0.989852  0.0
H  H5  1  0.67855514  0.81336730  0.92632994  1  0.551531  -0.000453  0.313802  0.273547  -0.000308  0.989842  0.0
H  H6  1  0.95288407  0.82755604  0.77561921  1  0.093151  0.00014  0.112217  0.14647  8.5e-05  1.007011  0.0
H  H7  1  0.04711894  0.17244080  0.22436733  1  0.093267  -0.00014  0.112227  0.146542  -8.5e-05  1.006866  0.0
H  H8  1  0.79732726  0.98616658  0.78610300  1  0.130119  -0.001801  0.109559  0.152413  -0.000997  1.026267  -0.001
H  H9  1  0.20266880  0.01382256  0.21388907  1  0.129967  0.001801  0.109579  0.152489  0.000997  1.02633  0.001
H  H10  1  0.37646900  0.97531736  0.58159409  1  0.073369  3e-06  0.092855  0.087919  -2e-06  1.055463  0.0
H  H11  1  0.62354806  0.02472389  0.41841514  1  0.073404  -3e-06  0.092967  0.088109  3e-06  1.055613  0.0
H  H12  1  0.95282771  0.31966815  0.57402154  1  0.028258  -1e-06  0.095084  0.097211  4e-06  1.044396  0.0
H  H13  1  0.04715912  0.68033678  0.42597634  1  0.027636  1e-06  0.095068  0.097213  -4e-06  1.044356  0.0
H  H14  1  0.21604141  0.79425039  0.77658858  1  0.03937  -7.8e-05  0.091745  0.065628  -0.000113  1.030183  0.0
H  H15  1  0.78397195  0.20578522  0.22341964  1  0.039314  7.8e-05  0.091786  0.065515  0.000113  1.030244  0.0
H  H16  1  0.13241441  0.66755055  0.65180360  1  -0.010442  3.8e-05  0.080393  0.10542  2e-05  1.0544  0.0
H  H17  1  0.86753299  0.33247546  0.34823245  1  -0.010367  -3.8e-05  0.080374  0.10556  -2e-05  1.05437  0.0
H  H18  1  0.32742986  0.57635383  0.68197906  1  0.010861  -3e-06  0.084019  0.114453  -4e-06  1.020818  0.0
H  H19  1  0.67252034  0.42365835  0.31804315  1  0.010473  3e-06  0.084057  0.114519  4e-06  1.020765  0.0
H  H20  1  0.31424790  0.69546706  0.59101845  1  0.021642  -5e-05  0.084721  0.116879  -2.8e-05  1.011445  0.0
H  H21  1  0.68568942  0.30451894  0.40899147  1  0.0231  5e-05  0.084896  0.117038  2.8e-05  1.011261  0.0
H  H22  1  0.52088650  0.83471089  0.66280566  1  0.005594  6.3e-05  0.079976  0.103241  1.2e-05  1.059207  0.0
H  H23  1  0.47912027  0.16526123  0.33717675  1  0.00617  -6.3e-05  0.079931  0.103276  -1.1e-05  1.059329  0.0
H  H24  1  0.51212403  0.71473940  0.75208457  1  0.018675  5.4e-05  0.07957  0.107703  1.4e-05  1.050706  0.0
H  H25  1  0.48787638  0.28524627  0.24790294  1  0.019009  -5.4e-05  0.079574  0.10767  -1.4e-05  1.050786  0.0
H  H26  1  0.46341524  0.91196436  0.76635223  1  0.059535  0.000912  0.078861  0.123366  0.000862  1.029347  0.0
H  H27  1  0.53662733  0.08802245  0.23362834  1  0.059583  -0.000913  0.078804  0.123299  -0.000863  1.029392  0.0
H  H28  1  0.37075532  0.14648187  0.47360124  1  0.02389  -9e-06  0.089368  0.046891  1e-06  0.99549  0.0
H  H29  1  0.62925151  0.85353799  0.52640566  1  0.024034  9e-06  0.089457  0.047005  -1e-06  0.995561  0.0
H  H30  1  0.10228098  0.17327953  0.40300109  1  0.034934  -2e-06  0.086231  0.122012  3e-06  1.026784  0.0
H  H31  1  0.89774128  0.82672995  0.59699264  1  0.034693  2e-06  0.086179  0.121933  -3e-06  1.026848  0.0
H  H32  1  0.22409420  0.30946858  0.36738106  1  0.026302  -9e-06  0.084139  0.113826  1e-06  1.034814  0.0
H  H33  1  0.77592421  0.69054792  0.63262350  1  0.0264  9e-06  0.08412  0.113803  -1e-06  1.034898  0.0
H  H34  1  0.05030593  0.35987141  0.44102766  1  0.007062  1e-06  0.081951  0.105666  1e-06  1.038178  0.0
H  H35  1  0.94970137  0.64014022  0.55896603  1  0.007464  -0.0  0.081955  0.105658  -1e-06  1.038219  0.0
H  H36  1  0.21931715  0.45568272  0.54652212  1  0.027116  2e-06  0.083931  0.112903  2e-06  1.034253  0.0
H  H37  1  0.78065726  0.54433580  0.45348303  1  0.027525  -2e-06  0.083938  0.112923  -2e-06  1.034347  0.0
H  H38  1  0.39879745  0.41266805  0.47492312  1  0.027362  -3.4e-05  0.084469  0.115575  -1.3e-05  1.030953  0.0
H  H39  1  0.60119115  0.58736415  0.52508814  1  0.024132  3.4e-05  0.084468  0.115593  1.3e-05  1.031035  0.0
H  H40  1  0.39879771  0.34192256  0.58098324  1  0.030259  1e-06  0.085459  0.116535  -1.4e-05  1.03896  0.0
H  H41  1  0.60118211  0.65810511  0.41902786  1  0.029726  -0.0  0.085454  0.116537  1.4e-05  1.039047  0.0
H  H42  1  0.73289097  0.20453347  0.76676860  1  -0.010648  -8.6e-05  0.086016  0.057453  -8.8e-05  0.999962  0.0
H  H43  1  0.26709887  0.79546251  0.23322870  1  -0.010748  8.6e-05  0.086013  0.057377  8.8e-05  1.000073  0.0
H  H44  1  0.66355278  0.13929169  0.58407967  1  -0.003188  2.1e-05  0.085094  0.117879  -1e-06  1.00649  0.0
H  H45  1  0.33642869  0.86070981  0.41591660  1  -0.003129  -2.1e-05  0.085156  0.11796  1e-06  1.006409  0.0
H  H46  1  0.51770311  0.15810655  0.67530046  1  0.031231  0.000282  0.08612  0.122772  0.000234  1.011713  0.0
H  H47  1  0.48228492  0.84189842  0.32469865  1  0.0314  -0.000282  0.086087  0.122743  -0.000234  1.011671  0.0
H  H48  1  0.68293087  0.00438184  0.66670706  1  -0.018176  -6.9e-05  0.084732  0.11342  -5.1e-05  1.050116  0.0
H  H49  1  0.31705137  0.99562188  0.33328851  1  -0.018225  6.9e-05  0.084801  0.113501  5.1e-05  1.050138  0.0
H  H50  1  0.78304559  0.45146676  0.70125003  1  0.002298  1.2e-05  0.082834  0.10996  7e-06  1.040662  0.0
H  H51  1  0.21694884  0.54853043  0.29874958  1  0.002554  -1.2e-05  0.082795  0.1099  -7e-06  1.040685  0.0
H  H52  1  0.57705195  0.42143288  0.70210606  1  0.033438  1.3e-05  0.084738  0.113367  1e-05  1.030316  0.0
H  H53  1  0.42294257  0.57856993  0.29789408  1  0.033508  -1.3e-05  0.084751  0.113329  -1e-05  1.030289  0.0
H  H54  1  0.70605347  0.39968864  0.60628342  1  0.016685  -6e-06  0.084301  0.10984  -6e-06  1.038519  0.0
H  H55  1  0.29393577  0.60031636  0.39371627  1  0.016681  6e-06  0.084297  0.109834  6e-06  1.0385  0.0
H  H56  1  0.79760210  0.41951795  0.13575718  1  0.051768  -0.000222  0.098019  0.142608  -9.6e-05  1.002951  0.0
H  H57  1  0.20242937  0.58045147  0.86424265  1  0.051686  0.000222  0.098056  0.142667  9.6e-05  1.002947  0.0
H  H58  1  0.72523202  0.56879219  0.06660044  1  0.05189  -0.00015  0.093512  0.14372  -5.1e-05  0.998266  0.0
H  H59  1  0.27479978  0.43118167  0.93339802  1  0.051546  0.00015  0.093524  0.143728  5.1e-05  0.998458  0.0
H  H60  1  0.81216450  0.38751059  0.02428919  1  0.045825  -0.00011  0.094422  0.133825  -0.000105  1.020997  0.0
H  H61  1  0.18784985  0.61245975  0.97570691  1  0.04601  0.00011  0.094429  0.133818  0.000105  1.02083  0.0
H  H62  1  0.40786089  0.61291973  0.14031263  1  0.129808  0.001611  0.104653  0.149576  0.000903  1.03256  0.001
H  H63  1  0.59215379  0.38706092  0.85969152  1  0.12949  -0.001611  0.104672  0.149598  -0.000903  1.032665  -0.001
H  H64  1  0.05118018  0.39208153  0.10413406  1  0.056704  -0.000232  0.097658  0.142467  -0.000146  1.017702  0.0
H  H65  1  0.94883505  0.60791463  0.89586467  1  0.056645  0.000232  0.097684  0.142474  0.000146  1.01769  0.0
H  H66  1  0.07850084  0.56629857  0.14606289  1  0.099674  0.000407  0.104417  0.164618  0.000215  0.982224  0.0
H  H67  1  0.92152762  0.43369201  0.85393411  1  0.099766  -0.000408  0.104432  0.164627  -0.000215  0.982178  0.0
H  H68  1  0.09526621  0.40519293  0.21194600  1  0.054055  -0.000281  0.097487  0.1357  -0.000141  1.006393  0.0
H  H69  1  0.90475454  0.59479984  0.78805066  1  0.054063  0.000281  0.097501  0.135686  0.000141  1.006288  0.0
H  H70  1  0.04815405  0.16083273  0.95021611  1  0.647495  -0.000135  0.32407  0.398002  -4.1e-05  0.90663  0.0
H  H71  1  0.95184576  0.83914977  0.04977784  1  0.647465  0.000135  0.324066  0.397946  4.1e-05  0.906539  0.0
C  C72  1  0.93129586  0.94973302  0.78314229  1  -0.605416  -0.006124  -0.157013  -0.480685  -0.003958  3.925675  -0.004
C  C73  1  0.06870995  0.05026183  0.21685180  1  -0.60515  0.006127  -0.157003  -0.480734  0.00396  3.925699  0.004
C  C74  1  0.01902319  0.02300307  0.71027548  1  -0.068734  -0.000859  -0.016777  0.043616  -0.000514  3.913787  0.0
C  C75  1  0.98097609  0.97700630  0.28971861  1  -0.068812  0.000858  -0.01682  0.043571  0.000514  3.913777  0.0
C  C76  1  0.17953204  0.95826565  0.67772647  1  0.000172  -0.001055  -0.008399  0.04392  -0.000684  3.891855  -0.001
C  C77  1  0.82047186  0.04175071  0.32227617  1  -0.000282  0.001056  -0.008337  0.044022  0.000685  3.891581  0.001
C  C78  1  0.25333921  0.02595402  0.60779019  1  -0.104093  9.6e-05  -0.099136  -0.200579  4.6e-05  3.993969  0.0
C  C79  1  0.74665943  0.97407040  0.39222080  1  -0.10422  -9.6e-05  -0.099392  -0.200979  -4.7e-05  3.99447  0.0
C  C80  1  0.17567650  0.15660690  0.57020809  1  -0.069327  -0.001791  -0.013076  0.091062  -0.001161  3.975897  -0.001
C  C81  1  0.82432321  0.84341834  0.42979266  1  -0.069088  0.001792  -0.012853  0.091325  0.001162  3.976068  0.001
C  C82  1  0.01691449  0.21885747  0.60332057  1  0.015131  0.000385  -0.102206  -0.194108  0.00024  3.966522  0.0
C  C83  1  0.98307109  0.78114761  0.39668245  1  0.015841  -0.000385  -0.102375  -0.194399  -0.00024  3.966484  0.0
C  C84  1  0.93615207  0.15399493  0.67167780  1  -0.007254  -0.001257  -0.00985  0.04044  -0.000825  3.899323  -0.001
C  C85  1  0.06384226  0.84600886  0.32831788  1  -0.007235  0.001258  -0.009724  0.040614  0.000825  3.898924  0.001
C  C86  1  0.27235774  0.81345838  0.71283149  1  0.044661  -0.000429  -0.09465  0.069694  -0.000266  3.885901  0.0
C  C87  1  0.72764111  0.18655904  0.28717008  1  0.044721  0.000429  -0.094677  0.0699  0.000266  3.885706  0.0
C  C88  1  0.26049974  0.68073281  0.65628155  1  -0.039022  -9.4e-05  -0.245024  -0.390546  -6.1e-05  3.927331  0.0
C  C89  1  0.73945534  0.31927925  0.34373600  1  -0.040168  9.4e-05  -0.24527  -0.391085  6e-05  3.927424  0.0
C  C90  1  0.45247852  0.81998745  0.72417994  1  -0.077129  0.00133  -0.253068  -0.388026  0.000916  3.899625  0.001
C  C91  1  0.54753649  0.18000387  0.27580682  1  -0.077949  -0.001331  -0.252913  -0.387855  -0.000917  3.89975  -0.001
C  C92  1  0.26243503  0.22918575  0.49663636  1  0.030392  -3e-05  -0.085643  0.083654  -2.5e-05  3.888936  0.0
C  C93  1  0.73755835  0.77084077  0.50337099  1  0.029715  2.9e-05  -0.085762  0.083544  2.5e-05  3.889119  0.0
C  C94  1  0.15369866  0.26950073  0.42258504  1  -0.07124  -5e-05  -0.247827  -0.400738  -3.1e-05  3.925916  0.0
C  C95  1  0.84631200  0.73051219  0.57741357  1  -0.071238  5e-05  -0.247751  -0.400616  3.1e-05  3.926294  0.0
C  C96  1  0.32396944  0.36757504  0.52654120  1  -0.083382  -0.000158  -0.245651  -0.398929  -0.000114  3.915224  0.0
C  C97  1  0.67601275  0.63244692  0.47346546  1  -0.079888  0.000157  -0.245694  -0.399  0.000113  3.915364  0.0
C  C98  1  0.75617850  0.21650444  0.69724519  1  0.079623  -5.8e-05  -0.089985  0.076742  -1.2e-05  3.891061  0.0
C  C99  1  0.24381167  0.78349594  0.30274946  1  0.079652  5.7e-05  -0.090102  0.076732  1.1e-05  3.891118  0.0
C  C100  1  0.64836859  0.12415429  0.65368588  1  0.007202  8e-06  -0.246034  -0.396041  9.1e-05  3.903698  0.0
C  C101  1  0.35161355  0.87584386  0.34631043  1  0.007212  -8e-06  -0.246068  -0.396152  -9.1e-05  3.903621  0.0
C  C102  1  0.70369169  0.38149169  0.67550112  1  -0.067501  1.8e-05  -0.248711  -0.398883  1.5e-05  3.947909  0.0
C  C103  1  0.29629867  0.61850770  0.32449799  1  -0.06783  -1.9e-05  -0.248653  -0.398738  -1.5e-05  3.947785  0.0
C  C104  1  0.73561620  0.44801329  0.07714144  1  -0.008674  0.000365  -0.236848  -0.432289  0.00016  3.950116  0.0
C  C105  1  0.26439985  0.55196056  0.92285960  1  -0.008555  -0.000365  -0.236922  -0.432357  -0.00016  3.95016  0.0
C  C106  1  0.56913533  0.40760926  0.08701115  1  0.452786  0.001548  0.107039  0.281658  0.001952  3.993991  0.003
C  C107  1  0.43088549  0.59237703  0.91299326  1  0.452788  -0.001547  0.10711  0.281718  -0.001951  3.993806  -0.003
C  C108  1  0.42242512  0.49740276  0.12049216  1  -0.021617  0.005528  -0.118444  -0.348109  0.003869  3.927185  0.004
C  C109  1  0.57759902  0.50257905  0.87951156  1  -0.021495  -0.00553  -0.118366  -0.347987  -0.00387  3.927256  -0.004
C  C110  1  0.30051145  0.41052565  0.11942594  1  0.377707  -0.000759  0.104934  0.263911  -8.7e-05  4.006916  0.0
C  C111  1  0.69950578  0.58946047  0.88057354  1  0.377409  0.000757  0.104793  0.263633  8.6e-05  4.007294  0.0
C  C112  1  0.12196123  0.44506728  0.14664392  1  -0.087189  0.000859  -0.229385  -0.43735  0.000527  3.940076  0.001
C  C113  1  0.87805630  0.55492338  0.85335737  1  -0.087114  -0.000859  -0.229394  -0.437217  -0.000527  3.939944  -0.001
N  N114  1  0.53763362  0.27271631  0.06643323  1  -0.711154  0.089841  -0.277419  -0.237426  0.061149  3.521794  0.078
N  N115  1  0.46237955  0.72727199  0.93356512  1  -0.711119  -0.089827  -0.277452  -0.23751  -0.061139  3.52184  -0.078
N  N116  1  0.37472979  0.27676091  0.08612527  1  -0.856652  0.004247  -0.289353  -0.150801  0.00227  3.68759  0.002
N  N117  1  0.62528626  0.72322509  0.91387045  1  -0.856401  -0.004248  -0.28935  -0.150698  -0.00227  3.687492  -0.002
Cl  Cl118  1  0.50925694  0.10122870  0.90419388  1  -0.584921  0.156144  -0.282985  -0.511457  0.10196  1.217495  0.12
Cl  Cl119  1  0.49073278  0.89876176  0.09580607  1  -0.584892  -0.156147  -0.282952  -0.511434  -0.101962  1.21749  -0.12
O  O120  1  0.84674345  0.92994916  0.95385523  1  -1.411874  0.064721  -0.37962  -0.765916  0.042038  2.333137  0.056
O  O121  1  0.15324768  0.07003436  0.04613716  1  -1.412101  -0.06473  -0.379609  -0.765875  -0.042042  2.33315  -0.056
O  O122  1  0.98473237  0.15137016  0.90017116  1  -1.394222  0.000133  -0.384065  -0.652905  0.000151  2.203705  0.001
O  O123  1  0.01526554  0.84861575  0.09982471  1  -1.394116  -0.000134  -0.384068  -0.652885  -0.000151  2.203998  -0.001
O  O124  1  0.15309438  0.88507547  0.90561958  1  -1.409188  -0.049639  -0.373451  -0.729202  -0.031672  2.381917  -0.043
O  O125  1  0.84689750  0.11489818  0.09437933  1  -1.409127  0.049642  -0.37348  -0.729198  0.031673  2.382138  0.043
