# generated using pymatgen
data_CuH10C12IN6
_symmetry_space_group_name_H-M   'P 1'
_cell_length_a   9.39193948
_cell_length_b   9.95890752
_cell_length_c   14.28495225
_cell_angle_alpha   90.00012411
_cell_angle_beta   90.31132076
_cell_angle_gamma   89.99998773
_symmetry_Int_Tables_number   1
_chemical_formula_structural   CuH10C12IN6
_chemical_formula_sum   'Cu4 H40 C48 I4 N24'
_cell_volume   1336.10123889
_cell_formula_units_Z   4
loop_
 _symmetry_equiv_pos_site_id
 _symmetry_equiv_pos_as_xyz
  1  'x, y, z'
loop_
 _atom_site_type_symbol
 _atom_site_label
 _atom_site_symmetry_multiplicity
 _atom_site_fract_x
 _atom_site_fract_y
 _atom_site_fract_z
 _atom_site_occupancy
 _atom_site_hle17_bader_spin_density
 _atom_site_hle17_ddec_charge
 _atom_site_hle17_ddec_spin_density
 _atom_site_hle17_ddec_sum_bond_order
 _atom_site_hle17_magmom
 _atom_site_hse06_10hf_bader_spin_density
 _atom_site_hse06_10hf_ddec_charge
 _atom_site_hse06_10hf_ddec_spin_density
 _atom_site_hse06_10hf_ddec_sum_bond_order
 _atom_site_hse06_10hf_magmom
 _atom_site_hse06_bader_spin_density
 _atom_site_hse06_ddec_charge
 _atom_site_hse06_ddec_spin_density
 _atom_site_hse06_ddec_sum_bond_order
 _atom_site_hse06_magmom
 _atom_site_pbe_bader_spin_density
 _atom_site_pbe_cm5_charge
 _atom_site_pbe_ddec_charge
 _atom_site_pbe_ddec_spin_density
 _atom_site_pbe_ddec_sum_bond_order
 _atom_site_pbe_magmom
Cu  Cu0  1  0.43241928  0.11533635  0.98441259  1  0  0.294133  0  2.107513  0  0  0.194844  0  2.590672  0  0  0.201021  0  2.541486  0  0  0.35326  0.195168  0  2.620332  0
Cu  Cu1  1  0.56758613  0.61534030  0.51558170  1  0  0.294127  0  2.107423  0  0  0.19481  0  2.590655  0  0  0.201018  0  2.541403  0  0  0.353237  0.195127  0  2.62032  0
Cu  Cu2  1  0.56757775  0.88466730  0.01558521  1  0  0.294114  0  2.107442  0  0  0.194841  0  2.590561  0  0  0.201023  0  2.541389  0  0  0.353229  0.195159  0  2.620232  0
Cu  Cu3  1  0.43241942  0.38467139  0.48441542  1  0  0.294176  0  2.107407  0  0  0.194837  0  2.590641  0  0  0.201067  0  2.541354  0  0  0.353231  0.195156  0  2.62028  0
H  H4  1  0.87316878  0.16764119  0.25591645  1  0  0.272933  0  0.987881  0  0  0.245268  0  1.080568  0  0  0.253081  0  1.073368  0  0  0.282144  0.239998  0  1.085023  0
H  H5  1  0.12682209  0.66763784  0.24408872  1  0  0.272908  0  0.987873  0  0  0.245203  0  1.080619  0  0  0.253011  0  1.073427  0  0  0.282116  0.239934  0  1.085073  0
H  H6  1  0.12682508  0.83236146  0.74408555  1  0  0.272914  0  0.987848  0  0  0.245212  0  1.0806  0  0  0.253024  0  1.0734  0  0  0.282116  0.239942  0  1.085054  0
H  H7  1  0.87317284  0.33236582  0.75591538  1  0  0.273034  0  0.987781  0  0  0.245307  0  1.080558  0  0  0.253118  0  1.073361  0  0  0.28216  0.240037  0  1.085013  0
H  H8  1  0.71189757  0.21325658  0.21070483  1  0  0.26361  0  0.969098  0  0  0.251711  0  1.04012  0  0  0.25687  0  1.035655  0  0  0.287169  0.248191  0  1.042772  0
H  H9  1  0.28809646  0.71325735  0.28929622  1  0  0.263608  0  0.969058  0  0  0.251677  0  1.040093  0  0  0.256831  0  1.035638  0  0  0.287164  0.248157  0  1.042745  0
H  H10  1  0.28810053  0.78674506  0.78929227  1  0  0.263638  0  0.968964  0  0  0.251747  0  1.039977  0  0  0.256907  0  1.03551  0  0  0.287166  0.248228  0  1.042629  0
H  H11  1  0.71189635  0.28674228  0.71071208  1  0  0.263625  0  0.969001  0  0  0.251706  0  1.04002  0  0  0.256861  0  1.035559  0  0  0.28714  0.248186  0  1.042672  0
H  H12  1  0.49816701  0.33549986  0.84943810  1  0  0.074581  0  0.954288  0  0  0.078938  0  1.026886  0  0  0.082573  0  1.023126  0  0  0.099531  0.075918  0  1.03025  0
H  H13  1  0.50184260  0.83550421  0.65056075  1  0  0.074592  0  0.954197  0  0  0.078916  0  1.026807  0  0  0.082549  0  1.023052  0  0  0.099511  0.075898  0  1.030173  0
H  H14  1  0.50183321  0.66449677  0.15055971  1  0  0.074566  0  0.954363  0  0  0.078921  0  1.026941  0  0  0.082559  0  1.023176  0  0  0.099523  0.075906  0  1.030304  0
H  H15  1  0.49816721  0.16450145  0.34943848  1  0  0.074567  0  0.954288  0  0  0.078927  0  1.026871  0  0  0.082562  0  1.023112  0  0  0.099524  0.075908  0  1.030232  0
H  H16  1  0.66892350  0.52630691  0.84202233  1  0  0.100088  0  0.94902  0  0  0.110699  0  1.007533  0  0  0.113927  0  1.006721  0  0  0.099843  0.107465  0  1.009919  0
H  H17  1  0.33107981  0.02631206  0.65797321  1  0  0.100022  0  0.949059  0  0  0.110609  0  1.007599  0  0  0.113833  0  1.006797  0  0  0.09981  0.107378  0  1.009989  0
H  H18  1  0.33107673  0.47368972  0.15797618  1  0  0.100077  0  0.949062  0  0  0.110676  0  1.007583  0  0  0.1139  0  1.006782  0  0  0.099846  0.107444  0  1.00997  0
H  H19  1  0.66891723  0.97369059  0.34202669  1  0  0.100007  0  0.94907  0  0  0.110642  0  1.007573  0  0  0.113868  0  1.006766  0  0  0.099806  0.107408  0  1.00996  0
H  H20  1  0.83096871  0.56945742  0.98057744  1  0  0.104176  0  0.955403  0  0  0.111019  0  1.022597  0  0  0.114214  0  1.019953  0  0  0.107712  0.108679  0  1.024515  0
H  H21  1  0.16903033  0.06945515  0.51942026  1  0  0.104235  0  0.955301  0  0  0.111066  0  1.022494  0  0  0.114262  0  1.01985  0  0  0.107731  0.108726  0  1.02441  0
H  H22  1  0.16903045  0.43053720  0.01942106  1  0  0.10423  0  0.955283  0  0  0.111083  0  1.022457  0  0  0.114279  0  1.019815  0  0  0.107736  0.108742  0  1.024376  0
H  H23  1  0.83095501  0.93053545  0.48058381  1  0  0.104201  0  0.955336  0  0  0.11109  0  1.02247  0  0  0.114286  0  1.019826  0  0  0.10772  0.108752  0  1.024389  0
H  H24  1  0.59809372  0.25691286  0.12455978  1  0  0.053125  0  1.042191  0  0  0.062008  0  1.111823  0  0  0.065711  0  1.107841  0  0  0.092115  0.058904  0  1.115529  0
H  H25  1  0.40190668  0.75690985  0.37543715  1  0  0.053117  0  1.042126  0  0  0.061997  0  1.111752  0  0  0.065701  0  1.107774  0  0  0.092112  0.058894  0  1.115462  0
H  H26  1  0.40189799  0.74308477  0.87543801  1  0  0.053122  0  1.042213  0  0  0.062006  0  1.111829  0  0  0.065711  0  1.107845  0  0  0.092127  0.058905  0  1.115538  0
H  H27  1  0.59810206  0.24310083  0.62455928  1  0  0.053044  0  1.042192  0  0  0.061933  0  1.111832  0  0  0.065635  0  1.107849  0  0  0.09212  0.058831  0  1.115538  0
H  H28  1  0.81233285  0.33641297  0.42480779  1  0  0.109119  0  0.951771  0  0  0.114886  0  1.020814  0  0  0.117989  0  1.018706  0  0  0.105499  0.1121  0  1.023127  0
H  H29  1  0.18766755  0.83641915  0.07519767  1  0  0.109117  0  0.95177  0  0  0.114903  0  1.020807  0  0  0.118007  0  1.018695  0  0  0.105479  0.112119  0  1.023113  0
H  H30  1  0.18766950  0.66357763  0.57518793  1  0  0.109092  0  0.951858  0  0  0.114948  0  1.020795  0  0  0.118052  0  1.018687  0  0  0.105497  0.112162  0  1.023106  0
H  H31  1  0.81233697  0.16358350  0.92480855  1  0  0.109121  0  0.951786  0  0  0.114909  0  1.020805  0  0  0.118014  0  1.018693  0  0  0.105497  0.11212  0  1.023122  0
H  H32  1  0.92497666  0.29467568  0.58249865  1  0  0.091051  0  0.987066  0  0  0.097517  0  1.054536  0  0  0.100483  0  1.054293  0  0  0.101187  0.095354  0  1.054951  0
H  H33  1  0.07502766  0.79467686  0.91750573  1  0  0.090974  0  0.987068  0  0  0.097431  0  1.054562  0  0  0.100397  0  1.054316  0  0  0.101145  0.095269  0  1.054976  0
H  H34  1  0.07502676  0.70531693  0.41749777  1  0  0.091048  0  0.987023  0  0  0.097514  0  1.054492  0  0  0.100481  0  1.054244  0  0  0.101169  0.095353  0  1.054904  0
H  H35  1  0.92497792  0.20532177  0.08250049  1  0  0.091057  0  0.987059  0  0  0.097521  0  1.054527  0  0  0.100487  0  1.05428  0  0  0.101177  0.095357  0  1.05494  0
H  H36  1  0.18728635  0.32324416  0.60176315  1  0  0.075556  0  0.944249  0  0  0.081679  0  1.011543  0  0  0.085456  0  1.007846  0  0  0.10388  0.078806  0  1.014514  0
H  H37  1  0.81271796  0.82323513  0.89823847  1  0  0.075578  0  0.944239  0  0  0.081772  0  1.011473  0  0  0.085555  0  1.00776  0  0  0.103937  0.0789  0  1.014447  0
H  H38  1  0.81271707  0.67675849  0.39823536  1  0  0.075558  0  0.944253  0  0  0.081716  0  1.011511  0  0  0.085495  0  1.007806  0  0  0.10392  0.078848  0  1.014482  0
H  H39  1  0.18728762  0.17675748  0.10176495  1  0  0.075544  0  0.94421  0  0  0.081711  0  1.011456  0  0  0.085488  0  1.00776  0  0  0.103923  0.078839  0  1.014427  0
H  H40  1  0.23468190  0.42489244  0.32272532  1  0  0.070535  0  0.968354  0  0  0.075738  0  1.041462  0  0  0.079319  0  1.03788  0  0  0.100654  0.072779  0  1.045005  0
H  H41  1  0.76531527  0.92488278  0.17727747  1  0  0.0705  0  0.968362  0  0  0.075663  0  1.04152  0  0  0.079246  0  1.037936  0  0  0.100629  0.072708  0  1.045061  0
H  H42  1  0.76531833  0.57511021  0.67727318  1  0  0.070506  0  0.968367  0  0  0.075717  0  1.041473  0  0  0.079296  0  1.037895  0  0  0.100658  0.072762  0  1.045017  0
H  H43  1  0.23468711  0.07511184  0.82272734  1  0  0.070563  0  0.968382  0  0  0.075745  0  1.041505  0  0  0.079327  0  1.037923  0  0  0.10068  0.072791  0  1.045045  0
C  C44  1  0.56393334  0.36174378  0.90985633  1  0  0.128752  0  3.681283  0  0  0.094142  0  3.936105  0  0  0.102653  0  3.951405  0  0  0.039652  0.088181  0  3.926518  0
C  C45  1  0.43606775  0.86174496  0.59014045  1  0  0.128716  0  3.681414  0  0  0.094172  0  3.936172  0  0  0.102679  0  3.951477  0  0  0.039663  0.08821  0  3.926593  0
C  C46  1  0.43606476  0.63825686  0.09014008  1  0  0.128738  0  3.681594  0  0  0.094162  0  3.936392  0  0  0.102692  0  3.951696  0  0  0.039608  0.0882  0  3.926809  0
C  C47  1  0.56393355  0.13825870  0.40985806  1  0  0.128655  0  3.681402  0  0  0.094066  0  3.936217  0  0  0.102593  0  3.951535  0  0  0.039598  0.088106  0  3.926626  0
C  C48  1  0.66152296  0.46704649  0.90593529  1  0  -0.101529  0  3.733963  0  0  -0.110687  0  3.983622  0  0  -0.118114  0  4.004379  0  0  -0.08429  -0.106236  0  3.970929  0
C  C49  1  0.33848129  0.96704768  0.59406166  1  0  -0.101447  0  3.734024  0  0  -0.110616  0  3.983637  0  0  -0.11804  0  4.004395  0  0  -0.084258  -0.106171  0  3.97095  0
C  C50  1  0.33847833  0.53295114  0.09406252  1  0  -0.101617  0  3.734057  0  0  -0.110788  0  3.983705  0  0  -0.118212  0  4.004459  0  0  -0.084325  -0.106339  0  3.971015  0
C  C51  1  0.66151788  0.03295396  0.40593895  1  0  -0.101402  0  3.733982  0  0  -0.110594  0  3.983631  0  0  -0.118018  0  4.004386  0  0  -0.084254  -0.106142  0  3.970936  0
C  C52  1  0.74935307  0.49200114  0.98223884  1  0  -0.0159  0  3.642475  0  0  -0.045111  0  3.889089  0  0  -0.03904  0  3.903999  0  0  -0.060865  -0.04954  0  3.879377  0
C  C53  1  0.25065011  0.99199810  0.51775745  1  0  -0.015963  0  3.642444  0  0  -0.04513  0  3.889024  0  0  -0.039063  0  3.903924  0  0  -0.060899  -0.049559  0  3.879313  0
C  C54  1  0.25065036  0.50799549  0.01775828  1  0  -0.015888  0  3.642359  0  0  -0.045081  0  3.888935  0  0  -0.039009  0  3.903836  0  0  -0.060867  -0.049509  0  3.879222  0
C  C55  1  0.74934055  0.00799551  0.48224524  1  0  -0.015926  0  3.642444  0  0  -0.04516  0  3.889051  0  0  -0.039089  0  3.90395  0  0  -0.060875  -0.049596  0  3.879359  0
C  C56  1  0.73249404  0.41489796  0.06426290  1  0  -0.033465  0  3.801702  0  0  -0.008901  0  4.035745  0  0  -0.015047  0  4.057292  0  0  -0.003252  -0.005041  0  4.021364  0
C  C57  1  0.26750525  0.91489414  0.43573498  1  0  -0.033473  0  3.80182  0  0  -0.008957  0  4.035872  0  0  -0.015097  0  4.057426  0  0  -0.003218  -0.005095  0  4.021491  0
C  C58  1  0.26750406  0.58510168  0.93573490  1  0  -0.033473  0  3.801751  0  0  -0.008935  0  4.0358  0  0  -0.015073  0  4.057345  0  0  -0.003214  -0.005069  0  4.02142  0
C  C59  1  0.73249073  0.08510549  0.56426562  1  0  -0.033542  0  3.801808  0  0  -0.009018  0  4.035893  0  0  -0.015161  0  4.057437  0  0  -0.003215  -0.005156  0  4.021517  0
C  C60  1  0.62644462  0.31649360  0.06350142  1  0  0.072061  0  3.683555  0  0  0.029269  0  3.934925  0  0  0.036226  0  3.949806  0  0  0.029347  0.024559  0  3.925752  0
C  C61  1  0.37355469  0.81649379  0.43649490  1  0  0.072139  0  3.683384  0  0  0.029385  0  3.934719  0  0  0.036331  0  3.949604  0  0  0.029387  0.024674  0  3.92555  0
C  C62  1  0.37355348  0.68350302  0.93649568  1  0  0.072099  0  3.683583  0  0  0.029336  0  3.93495  0  0  0.036303  0  3.949844  0  0  0.029368  0.024623  0  3.925781  0
C  C63  1  0.62644873  0.18351288  0.56350291  1  0  0.072283  0  3.683418  0  0  0.029518  0  3.934764  0  0  0.036493  0  3.94966  0  0  0.029407  0.024806  0  3.925589  0
C  C64  1  0.82795957  0.44087080  0.14304145  1  0  0.198096  0  3.765631  0  0  0.158353  0  4.040183  0  0  0.175669  0  4.058041  0  0  0.207834  0.149814  0  4.029438  0
C  C65  1  0.17203547  0.94086777  0.35696067  1  0  0.198072  0  3.765603  0  0  0.158427  0  4.040159  0  0  0.175681  0  4.057998  0  0  0.207933  0.149887  0  4.02941  0
C  C66  1  0.17203640  0.55912583  0.85695495  1  0  0.198128  0  3.765643  0  0  0.158377  0  4.04017  0  0  0.175709  0  4.058042  0  0  0.207828  0.149836  0  4.029431  0
C  C67  1  0.82795946  0.05913488  0.64304273  1  0  0.19813  0  3.765615  0  0  0.15845  0  4.040123  0  0  0.175752  0  4.057974  0  0  0.207859  0.149896  0  4.029387  0
C  C68  1  0.95725932  0.42773801  0.27146867  1  0  0.224669  0  3.742578  0  0  0.180378  0  4.011064  0  0  0.198453  0  4.028425  0  0  0.217476  0.171395  0  4.00062  0
C  C69  1  0.04273785  0.92773964  0.22853273  1  0  0.224668  0  3.742445  0  0  0.180426  0  4.010989  0  0  0.198445  0  4.028321  0  0  0.217492  0.171442  0  4.000544  0
C  C70  1  0.04273878  0.57226062  0.72852914  1  0  0.224842  0  3.742658  0  0  0.180497  0  4.011164  0  0  0.198587  0  4.028539  0  0  0.217553  0.171519  0  4.000717  0
C  C71  1  0.95726665  0.07226301  0.77146789  1  0  0.224851  0  3.742405  0  0  0.180517  0  4.011008  0  0  0.198578  0  4.028362  0  0  0.217542  0.171529  0  4.000561  0
C  C72  1  0.01513344  0.38578682  0.36190840  1  0  -0.02987  0  3.787928  0  0  -0.006562  0  4.025136  0  0  -0.012379  0  4.044461  0  0  0.001267  -0.003288  0  4.012068  0
C  C73  1  0.98486267  0.88578504  0.13809363  1  0  -0.029934  0  3.787933  0  0  -0.006581  0  4.025091  0  0  -0.012396  0  4.044414  0  0  0.001229  -0.003306  0  4.012025  0
C  C74  1  0.98486572  0.61421282  0.63808801  1  0  -0.029829  0  3.787794  0  0  -0.006462  0  4.024959  0  0  -0.012282  0  4.044287  0  0  0.001302  -0.003183  0  4.011893  0
C  C75  1  0.01513970  0.11421359  0.86190978  1  0  -0.03002  0  3.787738  0  0  -0.006718  0  4.025009  0  0  -0.012538  0  4.044334  0  0  0.001187  -0.003442  0  4.01194  0
C  C76  1  0.92689474  0.34496110  0.43557982  1  0  -0.015623  0  3.652244  0  0  -0.047164  0  3.902409  0  0  -0.040588  0  3.917681  0  0  -0.061729  -0.050591  0  3.891794  0
C  C77  1  0.07310672  0.84496124  0.06442425  1  0  -0.015695  0  3.652311  0  0  -0.047263  0  3.902434  0  0  -0.040686  0  3.917702  0  0  -0.061674  -0.050687  0  3.891819  0
C  C78  1  0.07310868  0.65503351  0.56441729  1  0  -0.015752  0  3.652349  0  0  -0.047393  0  3.902547  0  0  -0.040818  0  3.91782  0  0  -0.061762  -0.050819  0  3.891933  0
C  C79  1  0.92689780  0.15503438  0.93558056  1  0  -0.015567  0  3.652287  0  0  -0.047153  0  3.902523  0  0  -0.040572  0  3.917788  0  0  -0.061724  -0.050585  0  3.891906  0
C  C80  1  0.98946205  0.32123573  0.52239339  1  0  -0.114191  0  3.754116  0  0  -0.124421  0  4.007761  0  0  -0.132804  0  4.030607  0  0  -0.086467  -0.118583  0  3.99179  0
C  C81  1  0.01054332  0.82123408  0.97760964  1  0  -0.113993  0  3.753976  0  0  -0.124195  0  4.007624  0  0  -0.132577  0  4.030468  0  0  -0.08645  -0.118355  0  3.991654  0
C  C82  1  0.01054350  0.67875989  0.47760373  1  0  -0.114072  0  3.754078  0  0  -0.124314  0  4.007746  0  0  -0.132695  0  4.030591  0  0  -0.086456  -0.118472  0  3.991778  0
C  C83  1  0.98946438  0.17876154  0.02239449  1  0  -0.114176  0  3.754218  0  0  -0.124396  0  4.007851  0  0  -0.132776  0  4.030693  0  0  -0.086435  -0.118555  0  3.991878  0
C  C84  1  0.13559940  0.33670638  0.53377719  1  0  0.116603  0  3.692046  0  0  0.085525  0  3.944314  0  0  0.093123  0  3.959354  0  0  0.037759  0.0806  0  3.933848  0
C  C85  1  0.86440278  0.83669654  0.96622515  1  0  0.116518  0  3.692018  0  0  0.085352  0  3.944297  0  0  0.092955  0  3.959337  0  0  0.037725  0.080431  0  3.933826  0
C  C86  1  0.86440509  0.66329426  0.46622063  1  0  0.116472  0  3.69211  0  0  0.085399  0  3.944393  0  0  0.092996  0  3.959439  0  0  0.037713  0.080466  0  3.933933  0
C  C87  1  0.13559960  0.16329506  0.03377896  1  0  0.116571  0  3.692023  0  0  0.085467  0  3.944316  0  0  0.09307  0  3.959349  0  0  0.03773  0.080542  0  3.933853  0
C  C88  1  0.16174301  0.39584918  0.37842739  1  0  0.094405  0  3.656442  0  0  0.05528  0  3.904209  0  0  0.063164  0  3.917883  0  0  0.042449  0.049378  0  3.896941  0
C  C89  1  0.83825523  0.89584336  0.12157536  1  0  0.094469  0  3.656347  0  0  0.055362  0  3.904117  0  0  0.063238  0  3.917803  0  0  0.04248  0.04946  0  3.896847  0
C  C90  1  0.83825828  0.60415045  0.62156972  1  0  0.094333  0  3.656403  0  0  0.055183  0  3.904239  0  0  0.063091  0  3.917873  0  0  0.042379  0.049276  0  3.896972  0
C  C91  1  0.16174714  0.10415125  0.87842736  1  0  0.094379  0  3.656305  0  0  0.055294  0  3.904102  0  0  0.063184  0  3.917766  0  0  0.042437  0.049391  0  3.896834  0
I  I92  1  0.45848093  0.01737962  0.15968364  1  0  -0.473224  0  1.348199  0  0  -0.423408  0  1.740977  0  0  -0.439676  0  1.706449  0  0  -0.220556  -0.410756  0  1.765559  0
I  I93  1  0.54151208  0.51737850  0.34031290  1  0  -0.473282  0  1.348264  0  0  -0.423458  0  1.741061  0  0  -0.439739  0  1.706512  0  0  -0.220562  -0.410803  0  1.765638  0
I  I94  1  0.54151931  0.98262303  0.84031557  1  0  -0.473261  0  1.348237  0  0  -0.423447  0  1.741023  0  0  -0.439714  0  1.706494  0  0  -0.22058  -0.410791  0  1.765607  0
I  I95  1  0.45848495  0.48263118  0.65968420  1  0  -0.473225  0  1.348176  0  0  -0.423392  0  1.740969  0  0  -0.439676  0  1.706424  0  0  -0.220557  -0.410741  0  1.765546  0
N  N96  1  0.54755192  0.28638423  0.98727059  1  0  -0.269295  0  3.382922  0  0  -0.191687  0  3.670412  0  0  -0.204074  0  3.679372  0  0  -0.362125  -0.184315  0  3.664288  0
N  N97  1  0.45244919  0.78638718  0.51272676  1  0  -0.269385  0  3.382987  0  0  -0.191787  0  3.670466  0  0  -0.204173  0  3.679428  0  0  -0.362169  -0.184413  0  3.664349  0
N  N98  1  0.45244405  0.71361541  0.01272721  1  0  -0.269245  0  3.382974  0  0  -0.191693  0  3.670497  0  0  -0.204126  0  3.6795  0  0  -0.362087  -0.184315  0  3.664377  0
N  N99  1  0.54755424  0.21362351  0.48727245  1  0  -0.269325  0  3.382912  0  0  -0.191729  0  3.670409  0  0  -0.204177  0  3.679431  0  0  -0.362127  -0.18435  0  3.664274  0
N  N100  1  0.91392157  0.54786245  0.14627952  1  0  -0.255226  0  2.953934  0  0  -0.244417  0  3.247476  0  0  -0.253201  0  3.262105  0  0  -0.225573  -0.238276  0  3.236457  0
N  N101  1  0.08607891  0.04786319  0.35372548  1  0  -0.255202  0  2.954  0  0  -0.244394  0  3.247513  0  0  -0.253182  0  3.262165  0  0  -0.225625  -0.23825  0  3.236487  0
N  N102  1  0.08607652  0.45213317  0.85371619  1  0  -0.255245  0  2.95397  0  0  -0.24445  0  3.247518  0  0  -0.253231  0  3.262145  0  0  -0.225575  -0.238303  0  3.23649  0
N  N103  1  0.91391709  0.95213946  0.64628002  1  0  -0.25515  0  2.953887  0  0  -0.244351  0  3.247397  0  0  -0.253137  0  3.262032  0  0  -0.225563  -0.238204  0  3.236382  0
N  N104  1  0.99489056  0.53860151  0.22505682  1  0  -0.275799  0  3.06149  0  0  -0.237364  0  3.346176  0  0  -0.248019  0  3.359447  0  0  -0.214907  -0.229753  0  3.335865  0
N  N105  1  0.00511205  0.03860102  0.27494747  1  0  -0.275875  0  3.061628  0  0  -0.237446  0  3.346302  0  0  -0.248109  0  3.359595  0  0  -0.214914  -0.229835  0  3.335985  0
N  N106  1  0.00510965  0.46139813  0.77493749  1  0  -0.275854  0  3.061701  0  0  -0.237389  0  3.34639  0  0  -0.248044  0  3.359661  0  0  -0.214963  -0.229778  0  3.336068  0
N  N107  1  0.99488820  0.96140263  0.72505664  1  0  -0.275946  0  3.061732  0  0  -0.237482  0  3.346426  0  0  -0.248139  0  3.359703  0  0  -0.214976  -0.229871  0  3.336114  0
N  N108  1  0.85304563  0.36276696  0.22161935  1  0  0.016551  0  3.563868  0  0  0.118391  0  3.757793  0  0  0.088377  0  3.804514  0  0  -0.134072  0.127579  0  3.740059  0
N  N109  1  0.14694836  0.86276571  0.27838193  1  0  0.016758  0  3.563547  0  0  0.118347  0  3.757744  0  0  0.088537  0  3.804205  0  0  -0.134112  0.12753  0  3.740019  0
N  N110  1  0.14694927  0.63723267  0.77837844  1  0  0.016379  0  3.563971  0  0  0.118287  0  3.757871  0  0  0.088203  0  3.804669  0  0  -0.134133  0.127454  0  3.740159  0
N  N111  1  0.85304976  0.13723593  0.72162077  1  0  0.016525  0  3.563793  0  0  0.118326  0  3.757782  0  0  0.088356  0  3.80444  0  0  -0.134071  0.127534  0  3.740032  0
N  N112  1  0.79452106  0.24243554  0.25222949  1  0  -0.51252  0  2.999635  0  0  -0.515944  0  3.249452  0  0  -0.523979  0  3.25648  0  0  -0.495562  -0.505893  0  3.246548  0
N  N113  1  0.20546978  0.74243219  0.24777300  1  0  -0.512554  0  2.999449  0  0  -0.515812  0  3.249362  0  0  -0.523911  0  3.25634  0  0  -0.495523  -0.505761  0  3.24646  0
N  N114  1  0.20547172  0.75756610  0.74777040  1  0  -0.512445  0  2.999463  0  0  -0.51588  0  3.249306  0  0  -0.523893  0  3.256355  0  0  -0.4955  -0.50582  0  3.246407  0
N  N115  1  0.79452622  0.25757046  0.75223180  1  0  -0.512625  0  2.999399  0  0  -0.51597  0  3.249335  0  0  -0.524019  0  3.256352  0  0  -0.495558  -0.505927  0  3.246432  0
N  N116  1  0.22173957  0.37257868  0.46267211  1  0  -0.263435  0  3.378598  0  0  -0.189983  0  3.671687  0  0  -0.201404  0  3.679473  0  0  -0.359394  -0.182616  0  3.66566  0
N  N117  1  0.77826187  0.87257061  0.03733061  1  0  -0.263363  0  3.378435  0  0  -0.189919  0  3.671571  0  0  -0.201336  0  3.679348  0  0  -0.359349  -0.182546  0  3.665549  0
N  N118  1  0.77826385  0.62742397  0.53732571  1  0  -0.263198  0  3.378413  0  0  -0.189819  0  3.671566  0  0  -0.201248  0  3.679373  0  0  -0.359288  -0.182428  0  3.665528  0
N  N119  1  0.22174263  0.12742300  0.96267281  1  0  -0.26333  0  3.378446  0  0  -0.189927  0  3.67159  0  0  -0.201346  0  3.679373  0  0  -0.359387  -0.182562  0  3.665573  0
