# generated using pymatgen
data_CdH7C9NO4
_symmetry_space_group_name_H-M   'P 1'
_cell_length_a   7.88155481
_cell_length_b   8.45629843
_cell_length_c   8.45629592
_cell_angle_alpha   114.94830768
_cell_angle_beta   104.63015138
_cell_angle_gamma   104.63043318
_symmetry_Int_Tables_number   1
_chemical_formula_structural   CdH7C9NO4
_chemical_formula_sum   'Cd2 H14 C18 N2 O8'
_cell_volume   451.11767598
_cell_formula_units_Z   2
loop_
 _symmetry_equiv_pos_site_id
 _symmetry_equiv_pos_as_xyz
  1  'x, y, z'
loop_
 _atom_site_type_symbol
 _atom_site_label
 _atom_site_symmetry_multiplicity
 _atom_site_fract_x
 _atom_site_fract_y
 _atom_site_fract_z
 _atom_site_occupancy
 _atom_site_pbe_bader_spin_density
 _atom_site_pbe_cm5_charge
 _atom_site_pbe_ddec_charge
 _atom_site_pbe_ddec_spin_density
 _atom_site_pbe_ddec_sum_bond_order
 _atom_site_pbe_magmom
Cd  Cd0  1  0.24999931  0.93916853  0.06082903  1  0  0.784214  0.959206  0  2.072304  0
Cd  Cd1  1  0.74999922  0.06083121  0.93917150  1  0  0.78421  0.959183  0  2.07232  0
H  H2  1  0.75000299  0.49381912  0.50618108  1  0  0.120308  0.129296  0  0.969464  0
H  H3  1  0.25000003  0.50618207  0.49381872  1  0  0.120306  0.129293  0  0.969459  0
H  H4  1  0.73366958  0.88147351  0.60312535  1  0  0.092644  0.139679  0  1.05709  0
H  H5  1  0.76632729  0.39687264  0.11852571  1  0  0.092651  0.13969  0  1.057103  0
H  H6  1  0.26633535  0.11852914  0.39687668  1  0  0.092639  0.139686  0  1.057121  0
H  H7  1  0.23366801  0.60312564  0.88147230  1  0  0.092653  0.139686  0  1.057121  0
H  H8  1  0.62053826  0.84472133  0.37205917  1  0  0.098072  0.15296  0  1.019778  0
H  H9  1  0.87946105  0.62794124  0.15528165  1  0  0.098078  0.152971  0  1.019721  0
H  H10  1  0.37946479  0.15527988  0.62794300  1  0  0.098097  0.153007  0  1.019705  0
H  H11  1  0.12053692  0.37205707  0.84471934  1  0  0.098084  0.152982  0  1.019702  0
H  H12  1  0.87230719  0.94449920  0.48673798  1  0  0.098335  0.147335  0  1.003906  0
H  H13  1  0.62768963  0.51325973  0.05550077  1  0  0.098318  0.147312  0  1.003932  0
H  H14  1  0.12769511  0.05550342  0.51326344  1  0  0.098335  0.147346  0  1.003872  0
H  H15  1  0.37230754  0.48673998  0.94449709  1  0  0.098327  0.147327  0  1.003899  0
C  C16  1  0.74313114  0.13758104  0.59696788  1  0  0.127628  0.297647  0  3.934501  0
C  C17  1  0.75686802  0.40303427  0.86242073  1  0  0.127694  0.297708  0  3.934354  0
C  C18  1  0.25687058  0.86242015  0.40303281  1  0  0.127697  0.297761  0  3.934413  0
C  C19  1  0.24313049  0.59696546  0.13757862  1  0  0.127662  0.297672  0  3.934392  0
C  C20  1  0.74113486  0.23274160  0.49502648  1  0  -0.009806  -0.129766  0  3.912363  0
C  C21  1  0.75886639  0.50497442  0.76725825  1  0  -0.00984  -0.129806  0  3.912377  0
C  C22  1  0.25886497  0.76725814  0.50497317  1  0  -0.009833  -0.129826  0  3.912412  0
C  C23  1  0.24113344  0.49502533  0.23274139  1  0  -0.009805  -0.12975  0  3.91235  0
C  C24  1  0.75000148  0.41754694  0.58245589  1  0  -0.047754  -0.023297  0  3.91352  0
C  C25  1  0.25000024  0.58245425  0.41754480  1  0  -0.047749  -0.023277  0  3.913485  0
C  C26  1  0.74181086  0.94173205  0.51202479  1  0  -0.242294  -0.454683  0  3.906969  0
C  C27  1  0.75818582  0.48797246  0.05826795  1  0  -0.24229  -0.454697  0  3.906986  0
C  C28  1  0.25819216  0.05826914  0.48797500  1  0  -0.242327  -0.454758  0  3.906911  0
C  C29  1  0.24181080  0.51202583  0.94173036  1  0  -0.242301  -0.454688  0  3.906887  0
C  C30  1  0.72429049  0.14181412  0.29285460  1  0  0.20942  0.60315  0  4.182409  0
C  C31  1  0.77571235  0.70714613  0.85818904  1  0  0.209462  0.603172  0  4.182442  0
C  C32  1  0.27570875  0.85818419  0.70714313  1  0  0.209473  0.603184  0  4.182352  0
C  C33  1  0.22428616  0.29285360  0.14181031  1  0  0.209481  0.603237  0  4.18241  0
N  N34  1  0.74999860  0.22388799  0.77611160  1  0  -0.325314  -0.358627  0  3.440129  0
N  N35  1  0.25000121  0.77611175  0.22388686  1  0  -0.325354  -0.358736  0  3.440209  0
O  O36  1  0.58879190  0.98049039  0.16498877  1  0  -0.323825  -0.573803  0  2.249222  0
O  O37  1  0.91121120  0.83501162  0.01951252  1  0  -0.323865  -0.573817  0  2.249188  0
O  O38  1  0.41120868  0.01950794  0.83501164  1  0  -0.323862  -0.573844  0  2.249201  0
O  O39  1  0.08878807  0.16498671  0.98048758  1  0  -0.32388  -0.573865  0  2.249206  0
O  O40  1  0.84840773  0.23872896  0.25950700  1  0  -0.315904  -0.535797  0  2.221388  0
O  O41  1  0.65159715  0.74049680  0.76127416  1  0  -0.315927  -0.535808  0  2.221433  0
O  O42  1  0.15159022  0.76126935  0.74049280  1  0  -0.31592  -0.535795  0  2.221383  0
O  O43  1  0.34840325  0.25950437  0.23872622  1  0  -0.315937  -0.53585  0  2.22141  0
