# generated using pymatgen
data_CdH11C12(NO2)3
_symmetry_space_group_name_H-M   'P 1'
_cell_length_a   7.83447552
_cell_length_b   8.96133627
_cell_length_c   19.62552570
_cell_angle_alpha   89.99911243
_cell_angle_beta   98.52665944
_cell_angle_gamma   89.99931716
_symmetry_Int_Tables_number   1
_chemical_formula_structural   CdH11C12(NO2)3
_chemical_formula_sum   'Cd4 H44 C48 N12 O24'
_cell_volume   1362.62706244
_cell_formula_units_Z   4
loop_
 _symmetry_equiv_pos_site_id
 _symmetry_equiv_pos_as_xyz
  1  'x, y, z'
loop_
 _atom_site_type_symbol
 _atom_site_label
 _atom_site_symmetry_multiplicity
 _atom_site_fract_x
 _atom_site_fract_y
 _atom_site_fract_z
 _atom_site_occupancy
 _atom_site_pbe_bader_spin_density
 _atom_site_pbe_cm5_charge
 _atom_site_pbe_ddec_charge
 _atom_site_pbe_ddec_spin_density
 _atom_site_pbe_ddec_sum_bond_order
 _atom_site_pbe_magmom
Cd  Cd0  1  0.86696443  0.44787009  0.29190338  1  0  0.776702  0.888407  0  2.141558  0
Cd  Cd1  1  0.13305046  0.94786007  0.20810136  1  0  0.776658  0.888337  0  2.141617  0
Cd  Cd2  1  0.13304735  0.55213853  0.70809811  1  0  0.776683  0.888393  0  2.141581  0
Cd  Cd3  1  0.86694968  0.05213516  0.79189903  1  0  0.77666  0.888337  0  2.141641  0
H  H4  1  0.59505051  0.21007101  0.16221773  1  0  0.099756  0.08464  0  1.01731  0
H  H5  1  0.40495409  0.71006601  0.33778980  1  0  0.099758  0.084696  0  1.017303  0
H  H6  1  0.40494856  0.78993650  0.83778618  1  0  0.099753  0.08465  0  1.017266  0
H  H7  1  0.59505748  0.28994484  0.66220811  1  0  0.09978  0.084662  0  1.017346  0
H  H8  1  0.55213936  0.07856191  0.22519237  1  0  0.109882  0.102408  0  1.011978  0
H  H9  1  0.44788313  0.57856857  0.27482212  1  0  0.109937  0.102486  0  1.012143  0
H  H10  1  0.44786228  0.92143666  0.77481167  1  0  0.10991  0.102442  0  1.012027  0
H  H11  1  0.55213117  0.42144116  0.72517847  1  0  0.109921  0.102445  0  1.011944  0
H  H12  1  0.51481621  0.25917922  0.28923007  1  0  0.30559  0.354116  0  0.9544  0
H  H13  1  0.48518880  0.75917307  0.21077558  1  0  0.305614  0.35417  0  0.954335  0
H  H14  1  0.48518412  0.74082271  0.71077339  1  0  0.305601  0.354153  0  0.954341  0
H  H15  1  0.51481370  0.24082997  0.78922136  1  0  0.305559  0.354048  0  0.954407  0
H  H16  1  0.63510787  0.69372507  0.51002262  1  0  0.108684  0.122014  0  1.026484  0
H  H17  1  0.36488825  0.19371398  0.98997444  1  0  0.108669  0.122019  0  1.026498  0
H  H18  1  0.36489353  0.30628020  0.48997733  1  0  0.108655  0.121997  0  1.02649  0
H  H19  1  0.63509235  0.80627344  0.01002192  1  0  0.108692  0.122002  0  1.026454  0
H  H20  1  0.58093300  0.94688260  0.46179052  1  0  0.108171  0.108539  0  1.018238  0
H  H21  1  0.41906722  0.44686570  0.03820534  1  0  0.108177  0.108644  0  1.01815  0
H  H22  1  0.41906840  0.05312267  0.53820942  1  0  0.108191  0.108592  0  1.018214  0
H  H23  1  0.58092355  0.55311725  0.96178898  1  0  0.108189  0.108551  0  1.018201  0
H  H24  1  0.67436013  0.00925259  0.34829937  1  0  0.108933  0.114239  0  1.01296  0
H  H25  1  0.32564821  0.50924009  0.15169709  1  0  0.108942  0.114282  0  1.012957  0
H  H26  1  0.32563740  0.99075379  0.65170038  1  0  0.108962  0.114225  0  1.012956  0
H  H27  1  0.67436459  0.49075179  0.84829986  1  0  0.108942  0.114233  0  1.013022  0
H  H28  1  0.80877984  0.80696986  0.28514097  1  0  0.116991  0.09507  0  1.02787  0
H  H29  1  0.19123052  0.30695968  0.21485899  1  0  0.117025  0.095178  0  1.027764  0
H  H30  1  0.19121904  0.19303987  0.71485987  1  0  0.117002  0.095108  0  1.027858  0
H  H31  1  0.80878249  0.69303443  0.78514154  1  0  0.117005  0.095112  0  1.027876  0
H  H32  1  0.93962686  0.15103622  0.39052020  1  0  0.115369  0.087884  0  1.019318  0
H  H33  1  0.06038774  0.65103247  0.10948877  1  0  0.115417  0.087896  0  1.019344  0
H  H34  1  0.06037198  0.84896570  0.60948013  1  0  0.115384  0.087898  0  1.019361  0
H  H35  1  0.93961762  0.34894937  0.89051290  1  0  0.115415  0.087933  0  1.01945  0
H  H36  1  0.89760841  0.05961398  0.50918396  1  0  0.107228  0.108469  0  1.035807  0
H  H37  1  0.10238395  0.55961395  0.99082308  1  0  0.107178  0.108461  0  1.035825  0
H  H38  1  0.10239695  0.94039129  0.49081772  1  0  0.107259  0.108538  0  1.035776  0
H  H39  1  0.89760307  0.44037681  0.00917309  1  0  0.1071  0.108312  0  1.035884  0
H  H40  1  0.79807600  0.23828185  0.59066538  1  0  0.106828  0.108493  0  1.032888  0
H  H41  1  0.20190419  0.73827895  0.90933514  1  0  0.106795  0.108437  0  1.032876  0
H  H42  1  0.20192659  0.76172677  0.40933310  1  0  0.106856  0.108501  0  1.032798  0
H  H43  1  0.79807890  0.26171516  0.09065982  1  0  0.106819  0.108408  0  1.03285  0
H  H44  1  0.73123601  0.50043124  0.55313025  1  0  0.111711  0.125544  0  1.004862  0
H  H45  1  0.26876345  0.00042038  0.94687249  1  0  0.111702  0.12553  0  1.005032  0
H  H46  1  0.26876668  0.49957627  0.44686976  1  0  0.111689  0.1255  0  1.004969  0
H  H47  1  0.73122514  0.99957038  0.05312835  1  0  0.111692  0.125517  0  1.004986  0
C  C48  1  0.81951173  0.12699073  0.22534252  1  0  0.194514  0.580293  0  4.195915  0
C  C49  1  0.18050864  0.62697911  0.27467048  1  0  0.194537  0.580362  0  4.196001  0
C  C50  1  0.18049115  0.87301789  0.77466056  1  0  0.194558  0.580374  0  4.196314  0
C  C51  1  0.81950588  0.37302058  0.72533368  1  0  0.194639  0.580396  0  4.195926  0
C  C52  1  0.63139872  0.17566991  0.21634665  1  0  -0.088301  -0.093893  0  3.937593  0
C  C53  1  0.36861162  0.67565817  0.28366192  1  0  -0.088373  -0.094113  0  3.937802  0
C  C54  1  0.36860283  0.82433424  0.78365585  1  0  -0.088288  -0.093939  0  3.937608  0
C  C55  1  0.63140001  0.32434263  0.71633700  1  0  -0.088247  -0.093775  0  3.937378  0
C  C56  1  0.89010599  0.22371254  0.42778007  1  0  0.050474  0.103226  0  3.944973  0
C  C57  1  0.10989707  0.72370724  0.07222677  1  0  0.05044  0.10325  0  3.944971  0
C  C58  1  0.10989418  0.77630054  0.57222083  1  0  0.050444  0.103229  0  3.94496  0
C  C59  1  0.89009668  0.27628464  0.92777433  1  0  0.050443  0.103163  0  3.945087  0
C  C60  1  0.86975386  0.17436848  0.49341916  1  0  -0.081312  -0.122254  0  3.953799  0
C  C61  1  0.13023432  0.67436847  0.00658425  1  0  -0.081234  -0.12222  0  3.953797  0
C  C62  1  0.13024751  0.82563567  0.50658028  1  0  -0.08137  -0.122447  0  3.953737  0
C  C63  1  0.86975295  0.32562787  0.99341602  1  0  -0.081169  -0.121985  0  3.953592  0
C  C64  1  0.81098896  0.27488990  0.53879196  1  0  -0.065657  -0.014675  0  3.945289  0
C  C65  1  0.18900370  0.77488878  0.96121146  1  0  -0.065651  -0.014615  0  3.945293  0
C  C66  1  0.18901760  0.72510980  0.46120824  1  0  -0.065717  -0.014613  0  3.945156  0
C  C67  1  0.81098080  0.22510198  0.03878561  1  0  -0.065701  -0.014689  0  3.945429  0
C  C68  1  0.77209453  0.42041452  0.51705879  1  0  -0.080052  -0.155347  0  3.916743  0
C  C69  1  0.22790735  0.92040669  0.98294298  1  0  -0.080046  -0.155321  0  3.916792  0
C  C70  1  0.22790939  0.57959298  0.48294026  1  0  -0.080037  -0.155311  0  3.916719  0
C  C71  1  0.77208096  0.07958408  0.01705325  1  0  -0.079903  -0.155185  0  3.917107  0
C  C72  1  0.79046412  0.46121302  0.44950908  1  0  0.119323  0.169711  0  3.987277  0
C  C73  1  0.20954020  0.96120623  0.05049453  1  0  0.119392  0.16967  0  3.987206  0
C  C74  1  0.20953083  0.53879448  0.55049055  1  0  0.119488  0.16973  0  3.987143  0
C  C75  1  0.79045099  0.03878565  0.94950695  1  0  0.119281  0.169764  0  3.987311  0
C  C76  1  0.74991962  0.61413954  0.42257596  1  0  0.115892  0.160369  0  4.001571  0
C  C77  1  0.25009131  0.11412989  0.07742648  1  0  0.115904  0.160285  0  4.001703  0
C  C78  1  0.25008313  0.38586573  0.57742507  1  0  0.115878  0.160347  0  4.001598  0
C  C79  1  0.74990364  0.88586087  0.92257315  1  0  0.115846  0.160185  0  4.001935  0
C  C80  1  0.67236772  0.72034114  0.46026083  1  0  -0.08132  -0.159736  0  3.941325  0
C  C81  1  0.32764016  0.22032630  0.03973965  1  0  -0.081304  -0.159655  0  3.941156  0
C  C82  1  0.32763887  0.27966971  0.53973989  1  0  -0.08125  -0.159652  0  3.941265  0
C  C83  1  0.67235212  0.77966223  0.96025831  1  0  -0.0814  -0.159823  0  3.941356  0
C  C84  1  0.64295505  0.86354025  0.43347896  1  0  -0.066941  -0.024986  0  3.96155  0
C  C85  1  0.35704128  0.36352867  0.06651630  1  0  -0.066952  -0.02505  0  3.961467  0
C  C86  1  0.35704496  0.13646948  0.56651938  1  0  -0.066932  -0.024985  0  3.961461  0
C  C87  1  0.64294832  0.63646321  0.93348000  1  0  -0.066855  -0.024751  0  3.961283  0
C  C88  1  0.69466118  0.89835836  0.37052627  1  0  -0.078456  -0.11459  0  3.932951  0
C  C89  1  0.30534885  0.39834639  0.12947044  1  0  -0.078469  -0.114691  0  3.932837  0
C  C90  1  0.30533629  0.10165361  0.62947246  1  0  -0.078501  -0.114597  0  3.932877  0
C  C91  1  0.69465497  0.60164438  0.87052708  1  0  -0.078501  -0.114723  0  3.932888  0
C  C92  1  0.76934558  0.78670777  0.33526285  1  0  0.054698  0.120416  0  3.912712  0
C  C93  1  0.23066913  0.28669434  0.16474002  1  0  0.054673  0.120218  0  3.912635  0
C  C94  1  0.23065594  0.21329973  0.66473915  1  0  0.054641  0.120274  0  3.912775  0
C  C95  1  0.76934124  0.71329531  0.83525935  1  0  0.054697  0.120328  0  3.912569  0
N  N96  1  0.84991358  0.36307514  0.40641144  1  0  -0.322293  -0.278187  0  3.476752  0
N  N97  1  0.15009883  0.86306535  0.09359432  1  0  -0.322367  -0.278225  0  3.476771  0
N  N98  1  0.15008653  0.63693571  0.59358845  1  0  -0.322359  -0.278175  0  3.47675  0
N  N99  1  0.84990257  0.13692876  0.90640563  1  0  -0.322308  -0.278263  0  3.476704  0
N  N100  1  0.79285267  0.64773131  0.36010380  1  0  -0.323019  -0.282051  0  3.491563  0
N  N101  1  0.20716026  0.14772676  0.13989798  1  0  -0.323023  -0.281867  0  3.491568  0
N  N102  1  0.20715011  0.35226950  0.63989775  1  0  -0.323041  -0.281984  0  3.491606  0
N  N103  1  0.79283984  0.85226623  0.86010190  1  0  -0.323  -0.281878  0  3.491661  0
N  N104  1  0.71561097  0.56893886  0.15230454  1  0  0.101811  0.712682  0  4.426871  0
N  N105  1  0.28438900  0.06893222  0.34769667  1  0  0.101713  0.712372  0  4.426835  0
N  N106  1  0.28439036  0.43105971  0.84769438  1  0  0.101876  0.712867  0  4.426576  0
N  N107  1  0.71559955  0.93106413  0.65230366  1  0  0.101818  0.712623  0  4.426653  0
O  O108  1  0.93546694  0.20480268  0.26066591  1  0  -0.322223  -0.540418  0  2.272854  0
O  O109  1  0.06455283  0.70478569  0.23933578  1  0  -0.322158  -0.54041  0  2.272821  0
O  O110  1  0.06454460  0.79520593  0.73933149  1  0  -0.322327  -0.540556  0  2.272994  0
O  O111  1  0.93545650  0.29521066  0.76066761  1  0  -0.322319  -0.540547  0  2.272893  0
O  O112  1  0.84665687  0.00627807  0.19426360  1  0  -0.334566  -0.541635  0  2.215336  0
O  O113  1  0.15336638  0.50625903  0.30574483  1  0  -0.334582  -0.54159  0  2.215324  0
O  O114  1  0.15334207  0.99372720  0.80573826  1  0  -0.334475  -0.54153  0  2.21561  0
O  O115  1  0.84664927  0.49373508  0.69425684  1  0  -0.334539  -0.541583  0  2.215391  0
O  O116  1  0.60018526  0.29595164  0.26074846  1  0  -0.408853  -0.479568  0  2.410422  0
O  O117  1  0.39982702  0.79594883  0.23925932  1  0  -0.408938  -0.47964  0  2.410432  0
O  O118  1  0.39982028  0.70405029  0.73925628  1  0  -0.408925  -0.479654  0  2.410486  0
O  O119  1  0.60017674  0.20405421  0.76073718  1  0  -0.409002  -0.479695  0  2.410344  0
O  O120  1  0.65612690  0.62578255  0.20360806  1  0  -0.188098  -0.473215  0  2.102639  0
O  O121  1  0.34388255  0.12578029  0.29639422  1  0  -0.188111  -0.473148  0  2.102512  0
O  O122  1  0.34387702  0.37421938  0.79639099  1  0  -0.18811  -0.473252  0  2.10252  0
O  O123  1  0.65611119  0.87421606  0.70360688  1  0  -0.18811  -0.473153  0  2.102366  0
O  O124  1  0.82921414  0.46590541  0.16466333  1  0  -0.191452  -0.438833  0  2.017969  0
O  O125  1  0.17078719  0.96589637  0.33533449  1  0  -0.191382  -0.438664  0  2.017878  0
O  O126  1  0.17078726  0.53409428  0.83533662  1  0  -0.191459  -0.438894  0  2.017876  0
O  O127  1  0.82920134  0.03409886  0.66466533  1  0  -0.191506  -0.43881  0  2.01773  0
O  O128  1  0.66495786  0.61151860  0.09216145  1  0  -0.180002  -0.427165  0  1.969895  0
O  O129  1  0.33503117  0.11150831  0.40783992  1  0  -0.179964  -0.42706  0  1.970014  0
O  O130  1  0.33503967  0.38847551  0.90783831  1  0  -0.180032  -0.427228  0  1.969858  0
O  O131  1  0.66495093  0.88849027  0.59216009  1  0  -0.179936  -0.427151  0  1.970155  0
