# generated using pymatgen
data_PrH4C3O8
_symmetry_space_group_name_H-M   'P 1'
_cell_length_a   7.64959623
_cell_length_b   10.31746453
_cell_length_c   10.41660389
_cell_angle_alpha   101.60911303
_cell_angle_beta   90.00006529
_cell_angle_gamma   89.99960712
_symmetry_Int_Tables_number   1
_chemical_formula_structural   PrH4C3O8
_chemical_formula_sum   'Pr4 H16 C12 O32'
_cell_volume   805.30661200
_cell_formula_units_Z   4
loop_
 _symmetry_equiv_pos_site_id
 _symmetry_equiv_pos_as_xyz
  1  'x, y, z'
loop_
 _atom_site_type_symbol
 _atom_site_label
 _atom_site_symmetry_multiplicity
 _atom_site_fract_x
 _atom_site_fract_y
 _atom_site_fract_z
 _atom_site_occupancy
 _atom_site_hle17_bader_spin_density
 _atom_site_hle17_ddec_charge
 _atom_site_hle17_ddec_spin_density
 _atom_site_hle17_ddec_sum_bond_order
 _atom_site_hle17_magmom
 _atom_site_hse06_10hf_bader_spin_density
 _atom_site_hse06_10hf_ddec_charge
 _atom_site_hse06_10hf_ddec_spin_density
 _atom_site_hse06_10hf_ddec_sum_bond_order
 _atom_site_hse06_10hf_magmom
 _atom_site_hse06_bader_spin_density
 _atom_site_hse06_ddec_charge
 _atom_site_hse06_ddec_spin_density
 _atom_site_hse06_ddec_sum_bond_order
 _atom_site_hse06_magmom
 _atom_site_pbe_bader_spin_density
 _atom_site_pbe_cm5_charge
 _atom_site_pbe_ddec_charge
 _atom_site_pbe_ddec_spin_density
 _atom_site_pbe_ddec_sum_bond_order
 _atom_site_pbe_magmom
Pr  Pr0  1  0.90755119  0.30855268  0.54986081  1  0  2.278824  0  1.558362  0  0  2.10218  0  2.024856  0  0  2.199259  0  1.875377  0  0  1.463853  2.071762  0  2.056214  0
Pr  Pr1  1  0.40755328  0.69145627  0.95014123  1  0  2.278915  0  1.558318  0  0  2.102244  0  2.024815  0  0  2.199326  0  1.875335  0  0  1.46387  2.071843  0  2.056163  0
Pr  Pr2  1  0.09243735  0.69144918  0.45013227  1  0  2.278888  0  1.55824  0  0  2.102114  0  2.024864  0  0  2.1993  0  1.875226  0  0  1.463921  2.071714  0  2.056207  0
Pr  Pr3  1  0.59244963  0.30855396  0.04987156  1  0  2.278897  0  1.558389  0  0  2.10217  0  2.024971  0  0  2.199308  0  1.875394  0  0  1.463965  2.071741  0  2.056354  0
H  H4  1  0.57810911  0.27427148  0.38404791  1  0  0.430841  0  0.872212  0  0  0.399243  0  0.937834  0  0  0.41068  0  0.921104  0  0  0.300358  0.39106  0  0.949993  0
H  H5  1  0.07810969  0.72573433  0.11594100  1  0  0.430698  0  0.872426  0  0  0.399185  0  0.937948  0  0  0.410626  0  0.921209  0  0  0.300351  0.391003  0  0.950107  0
H  H6  1  0.42187289  0.72571680  0.61595333  1  0  0.430942  0  0.872084  0  0  0.399319  0  0.937733  0  0  0.410756  0  0.921004  0  0  0.300392  0.391137  0  0.949891  0
H  H7  1  0.92188016  0.27427135  0.88404698  1  0  0.430758  0  0.87232  0  0  0.399241  0  0.937832  0  0  0.410679  0  0.9211  0  0  0.300364  0.391058  0  0.949991  0
H  H8  1  0.66184219  0.13930305  0.33650008  1  0  0.454271  0  0.809841  0  0  0.429598  0  0.867358  0  0  0.440103  0  0.851924  0  0  0.319088  0.422266  0  0.878233  0
H  H9  1  0.16183120  0.86070548  0.16349809  1  0  0.454405  0  0.809585  0  0  0.429666  0  0.867283  0  0  0.440179  0  0.85183  0  0  0.319056  0.422333  0  0.878161  0
H  H10  1  0.33815289  0.86069203  0.66349756  1  0  0.454171  0  0.809876  0  0  0.429502  0  0.867466  0  0  0.440006  0  0.852032  0  0  0.319038  0.42217  0  0.878339  0
H  H11  1  0.83815341  0.13929866  0.83650691  1  0  0.454057  0  0.809884  0  0  0.429386  0  0.867594  0  0  0.439889  0  0.852163  0  0  0.31899  0.422054  0  0.87847  0
H  H12  1  0.28702270  0.38574246  0.51012621  1  0  0.435264  0  0.867454  0  0  0.402602  0  0.933811  0  0  0.414487  0  0.916602  0  0  0.301024  0.394258  0  0.946007  0
H  H13  1  0.78702591  0.61425030  0.98987086  1  0  0.435234  0  0.867507  0  0  0.402554  0  0.933878  0  0  0.41444  0  0.91667  0  0  0.300993  0.394211  0  0.946073  0
H  H14  1  0.71296845  0.61425769  0.48987713  1  0  0.435246  0  0.867472  0  0  0.402563  0  0.933856  0  0  0.414447  0  0.916649  0  0  0.301021  0.394222  0  0.946047  0
H  H15  1  0.21297962  0.38574078  0.01012416  1  0  0.435296  0  0.867421  0  0  0.402641  0  0.933769  0  0  0.414524  0  0.916564  0  0  0.301008  0.394297  0  0.945966  0
H  H16  1  0.31643399  0.23929696  0.53023423  1  0  0.450108  0  0.797426  0  0  0.435184  0  0.843453  0  0  0.443712  0  0.831335  0  0  0.336516  0.429218  0  0.852047  0
H  H17  1  0.81643864  0.76068703  0.96973349  1  0  0.450262  0  0.797436  0  0  0.435332  0  0.843292  0  0  0.44386  0  0.831176  0  0  0.336594  0.429367  0  0.851885  0
H  H18  1  0.68355454  0.76069265  0.46974132  1  0  0.450137  0  0.797488  0  0  0.435206  0  0.84344  0  0  0.443735  0  0.831322  0  0  0.336572  0.429242  0  0.852032  0
H  H19  1  0.18356036  0.23930386  0.03025381  1  0  0.450181  0  0.797379  0  0  0.435255  0  0.843369  0  0  0.443783  0  0.83125  0  0  0.336574  0.429288  0  0.851965  0
C  C20  1  0.59331848  0.41213046  0.75782896  1  0  0.571046  0  3.932622  0  0  0.524661  0  4.234952  0  0  0.553906  0  4.233226  0  0  0.226827  0.504393  0  4.24155  0
C  C21  1  0.09330838  0.58786958  0.74217963  1  0  0.571526  0  3.932071  0  0  0.524876  0  4.234765  0  0  0.554148  0  4.23299  0  0  0.2269  0.504576  0  4.241417  0
C  C22  1  0.40668313  0.58786992  0.24218402  1  0  0.571282  0  3.932601  0  0  0.524917  0  4.234849  0  0  0.554164  0  4.233118  0  0  0.226914  0.504649  0  4.241456  0
C  C23  1  0.90669062  0.41212953  0.25782160  1  0  0.57126  0  3.932442  0  0  0.524872  0  4.234762  0  0  0.554118  0  4.233036  0  0  0.226891  0.504601  0  4.241365  0
C  C24  1  0.58849297  0.51735662  0.67125522  1  0  0.580636  0  3.885684  0  0  0.531585  0  4.183949  0  0  0.561932  0  4.178082  0  0  0.232745  0.510796  0  4.190342  0
C  C25  1  0.08848762  0.48264832  0.82875135  1  0  0.580447  0  3.885936  0  0  0.531541  0  4.184094  0  0  0.561894  0  4.178195  0  0  0.232704  0.510761  0  4.19049  0
C  C26  1  0.41151648  0.48265670  0.32876292  1  0  0.580672  0  3.885847  0  0  0.531554  0  4.184158  0  0  0.561907  0  4.178289  0  0  0.232772  0.510766  0  4.190549  0
C  C27  1  0.91150483  0.51734853  0.17123796  1  0  0.58062  0  3.885547  0  0  0.531556  0  4.183832  0  0  0.561906  0  4.177965  0  0  0.232824  0.51077  0  4.190224  0
C  C28  1  0.02659743  0.00284742  0.42811651  1  0  0.555492  0  3.948371  0  0  0.515306  0  4.241968  0  0  0.544091  0  4.240503  0  0  0.218919  0.495507  0  4.246471  0
C  C29  1  0.52661985  0.99715878  0.07187623  1  0  0.555424  0  3.948176  0  0  0.515225  0  4.241817  0  0  0.54401  0  4.240349  0  0  0.218909  0.495426  0  4.246324  0
C  C30  1  0.97341071  0.99716019  0.57186989  1  0  0.555419  0  3.948588  0  0  0.515176  0  4.242305  0  0  0.543963  0  4.240838  0  0  0.21873  0.495375  0  4.246811  0
C  C31  1  0.47341444  0.00285023  0.92812675  1  0  0.555644  0  3.948256  0  0  0.515441  0  4.24188  0  0  0.544226  0  4.24041  0  0  0.218944  0.495639  0  4.246388  0
O  O32  1  0.66361152  0.30360542  0.71024679  1  0  -0.625211  0  2.079488  0  0  -0.580589  0  2.322605  0  0  -0.60838  0  2.314349  0  0  -0.340274  -0.56606  0  2.328573  0
O  O33  1  0.16360446  0.69639250  0.78977115  1  0  -0.625383  0  2.079339  0  0  -0.580665  0  2.322591  0  0  -0.608466  0  2.314311  0  0  -0.340355  -0.566127  0  2.328581  0
O  O34  1  0.33637179  0.69638986  0.28975857  1  0  -0.625247  0  2.079631  0  0  -0.580599  0  2.322735  0  0  -0.6084  0  2.314458  0  0  -0.340304  -0.566071  0  2.328712  0
O  O35  1  0.83639454  0.30360391  0.21024017  1  0  -0.625271  0  2.079421  0  0  -0.58065  0  2.32256  0  0  -0.608452  0  2.3143  0  0  -0.340277  -0.566117  0  2.328532  0
O  O36  1  0.52869793  0.44569682  0.87300193  1  0  -0.735426  0  2.106899  0  0  -0.676174  0  2.360114  0  0  -0.711367  0  2.349949  0  0  -0.390074  -0.659766  0  2.366387  0
O  O37  1  0.02869596  0.55428769  0.62700095  1  0  -0.735604  0  2.106525  0  0  -0.676278  0  2.359883  0  0  -0.711493  0  2.349708  0  0  -0.390017  -0.65986  0  2.366172  0
O  O38  1  0.47131675  0.55430653  0.12701157  1  0  -0.735562  0  2.106639  0  0  -0.676367  0  2.359915  0  0  -0.711562  0  2.349741  0  0  -0.390092  -0.659957  0  2.366194  0
O  O39  1  0.97132003  0.44569348  0.37299136  1  0  -0.735535  0  2.106759  0  0  -0.676296  0  2.359996  0  0  -0.711487  0  2.349814  0  0  -0.390115  -0.659889  0  2.366273  0
O  O40  1  0.67390806  0.48970264  0.56478180  1  0  -0.653629  0  2.116228  0  0  -0.59244  0  2.351268  0  0  -0.622857  0  2.342874  0  0  -0.335508  -0.575072  0  2.355807  0
O  O41  1  0.17389070  0.51029611  0.93523246  1  0  -0.653696  0  2.116302  0  0  -0.59249  0  2.351174  0  0  -0.622916  0  2.342784  0  0  -0.335542  -0.575122  0  2.355713  0
O  O42  1  0.32610139  0.51031176  0.43524037  1  0  -0.653763  0  2.11607  0  0  -0.592495  0  2.351042  0  0  -0.622929  0  2.342643  0  0  -0.3356  -0.575126  0  2.355582  0
O  O43  1  0.82609914  0.48968609  0.06476195  1  0  -0.653793  0  2.116261  0  0  -0.592514  0  2.35117  0  0  -0.62294  0  2.342783  0  0  -0.335632  -0.575142  0  2.355708  0
O  O44  1  0.50226708  0.62181040  0.71190702  1  0  -0.64709  0  2.116968  0  0  -0.587762  0  2.354793  0  0  -0.61745  0  2.343957  0  0  -0.338167  -0.571168  0  2.36099  0
O  O45  1  0.00226650  0.37818661  0.78811721  1  0  -0.646977  0  2.116982  0  0  -0.587677  0  2.354621  0  0  -0.617368  0  2.343778  0  0  -0.338017  -0.571081  0  2.360815  0
O  O46  1  0.49772930  0.37819715  0.28811682  1  0  -0.647109  0  2.117186  0  0  -0.587663  0  2.354895  0  0  -0.617359  0  2.344056  0  0  -0.338066  -0.571067  0  2.361092  0
O  O47  1  0.99770373  0.62181670  0.21189436  1  0  -0.646972  0  2.116879  0  0  -0.587621  0  2.35462  0  0  -0.617326  0  2.343776  0  0  -0.338147  -0.571028  0  2.360821  0
O  O48  1  0.01846715  0.11395562  0.39510816  1  0  -0.653849  0  2.014308  0  0  -0.606867  0  2.247189  0  0  -0.634345  0  2.232988  0  0  -0.380596  -0.591921  0  2.254782  0
O  O49  1  0.51849307  0.88604652  0.10487809  1  0  -0.653772  0  2.01434  0  0  -0.606792  0  2.247231  0  0  -0.634273  0  2.233031  0  0  -0.380527  -0.591848  0  2.254827  0
O  O50  1  0.98152923  0.88604683  0.60486870  1  0  -0.653704  0  2.014489  0  0  -0.606703  0  2.247401  0  0  -0.634203  0  2.233194  0  0  -0.380468  -0.591761  0  2.254996  0
O  O51  1  0.48153599  0.11395944  0.89512146  1  0  -0.653815  0  2.014254  0  0  -0.606827  0  2.247154  0  0  -0.634313  0  2.232948  0  0  -0.380586  -0.591879  0  2.254747  0
O  O52  1  0.07430878  0.89453743  0.35601488  1  0  -0.64866  0  2.035017  0  0  -0.594169  0  2.267746  0  0  -0.623126  0  2.254869  0  0  -0.363003  -0.578318  0  2.274787  0
O  O53  1  0.57432007  0.10547441  0.14397797  1  0  -0.648624  0  2.034949  0  0  -0.594167  0  2.267683  0  0  -0.623113  0  2.254802  0  0  -0.363047  -0.578311  0  2.274724  0
O  O54  1  0.92571505  0.10547510  0.64397143  1  0  -0.648615  0  2.035111  0  0  -0.594162  0  2.267847  0  0  -0.623099  0  2.254971  0  0  -0.362941  -0.578308  0  2.274885  0
O  O55  1  0.42570507  0.89453459  0.85602500  1  0  -0.648779  0  2.035106  0  0  -0.594337  0  2.267856  0  0  -0.623275  0  2.254975  0  0  -0.363049  -0.578484  0  2.274899  0
O  O56  1  0.64389718  0.20494633  0.41814907  1  0  -0.903578  0  1.801518  0  0  -0.859717  0  1.981441  0  0  -0.883667  0  1.943384  0  0  -0.63297  -0.847308  0  2.004492  0
O  O57  1  0.14389458  0.79506225  0.08184716  1  0  -0.903581  0  1.801524  0  0  -0.859761  0  1.981293  0  0  -0.883714  0  1.943244  0  0  -0.632917  -0.847349  0  2.004339  0
O  O58  1  0.35609659  0.79504586  0.58185094  1  0  -0.903575  0  1.801438  0  0  -0.85965  0  1.98144  0  0  -0.883612  0  1.943377  0  0  -0.63294  -0.847242  0  2.004487  0
O  O59  1  0.85610049  0.20494569  0.91815275  1  0  -0.903305  0  1.801653  0  0  -0.85948  0  1.981585  0  0  -0.883436  0  1.943533  0  0  -0.632885  -0.847066  0  2.004634  0
O  O60  1  0.24407038  0.31743421  0.55902941  1  0  -0.889114  0  1.795434  0  0  -0.842717  0  1.97625  0  0  -0.867073  0  1.941129  0  0  -0.618858  -0.829737  0  1.997028  0
O  O61  1  0.74407174  0.68254965  0.94095641  1  0  -0.88926  0  1.795525  0  0  -0.842798  0  1.976203  0  0  -0.867156  0  1.941076  0  0  -0.618884  -0.829817  0  1.996981  0
O  O62  1  0.75591816  0.68255480  0.44096140  1  0  -0.88913  0  1.795506  0  0  -0.842649  0  1.976264  0  0  -0.867023  0  1.94113  0  0  -0.618871  -0.829671  0  1.997037  0
O  O63  1  0.25593249  0.31743745  0.05903694  1  0  -0.889231  0  1.795347  0  0  -0.842819  0  1.976107  0  0  -0.867183  0  1.94098  0  0  -0.618903  -0.829834  0  1.996886  0
