# generated using pymatgen
data_MnH16C15N6O5
_symmetry_space_group_name_H-M   'P 1'
_cell_length_a   10.27965655
_cell_length_b   10.24072208
_cell_length_c   10.87951657
_cell_angle_alpha   78.95225604
_cell_angle_beta   62.49940021
_cell_angle_gamma   64.57439850
_symmetry_Int_Tables_number   1
_chemical_formula_structural   MnH16C15N6O5
_chemical_formula_sum   'Mn2 H32 C30 N12 O10'
_cell_volume   917.46028855
_cell_formula_units_Z   2
loop_
 _symmetry_equiv_pos_site_id
 _symmetry_equiv_pos_as_xyz
  1  'x, y, z'
loop_
 _atom_site_type_symbol
 _atom_site_label
 _atom_site_symmetry_multiplicity
 _atom_site_fract_x
 _atom_site_fract_y
 _atom_site_fract_z
 _atom_site_occupancy
 _atom_site_hle17_ddec_charge
 _atom_site_hle17_ddec_spin_density
 _atom_site_hle17_ddec_sum_bond_order
 _atom_site_hle17_magmom
 _atom_site_hse06_10hf_ddec_charge
 _atom_site_hse06_10hf_ddec_spin_density
 _atom_site_hse06_10hf_ddec_sum_bond_order
 _atom_site_hse06_10hf_magmom
 _atom_site_hse06_ddec_charge
 _atom_site_hse06_ddec_spin_density
 _atom_site_hse06_ddec_sum_bond_order
 _atom_site_hse06_magmom
 _atom_site_pbe_cm5_charge
 _atom_site_pbe_ddec_charge
 _atom_site_pbe_ddec_spin_density
 _atom_site_pbe_ddec_sum_bond_order
 _atom_site_pbe_magmom
Mn  Mn0  1  0.03056284  0.58983996  0.20396301  1  1.105739  4.808537  1.774967  4.672  0.932046  4.740729  2.271966  4.534  0.995915  4.78035  2.201841  4.595  0.588846  0.881403  4.702936  2.324653  4.477
Mn  Mn1  1  0.96943977  0.41015885  0.79603619  1  1.10569  4.808537  1.775028  4.672  0.932005  4.740729  2.272001  4.534  0.995858  4.78036  2.201911  4.595  0.588828  0.88136  4.702942  2.324682  4.477
H  H2  1  0.87267317  0.12528299  0.82874432  1  0.099656  -1.3e-05  0.954299  0.0  0.107955  0.000158  1.028615  0.0  0.109161  4.5e-05  1.026973  0.0  0.117643  0.106952  0.000271  1.029032  0.0
H  H3  1  0.12732786  0.87471692  0.17125627  1  0.099606  -3.4e-05  0.954362  0.0  0.107915  0.000158  1.028646  0.0  0.109117  4.4e-05  1.027004  0.0  0.117617  0.106912  0.000271  1.029061  0.0
H  H4  1  0.72878311  0.04923720  0.91151847  1  0.077811  -3.4e-05  0.901928  0.0  0.098765  -3.6e-05  0.95468  0.0  0.099063  -4.5e-05  0.953426  0.0  0.117131  0.098168  1.5e-05  0.955406  0.0
H  H5  1  0.27121749  0.95076379  0.08848211  1  0.077825  -5.8e-05  0.90195  0.0  0.098771  -3.6e-05  0.954701  0.0  0.09907  -4.5e-05  0.953446  0.0  0.11713  0.098174  1.5e-05  0.955425  0.0
H  H6  1  0.82017532  0.08040430  0.65319626  1  0.092697  1.1e-05  0.918209  0.0  0.11154  2.4e-05  0.974944  0.0  0.112198  1e-05  0.975423  0.0  0.104736  0.110756  3e-05  0.975018  0.0
H  H7  1  0.17982327  0.91959889  0.34680570  1  0.092707  2.3e-05  0.918228  0.0  0.111555  2.4e-05  0.974963  0.0  0.112213  1.1e-05  0.975442  0.0  0.104748  0.110776  3e-05  0.975033  0.0
H  H8  1  0.01410721  0.95200246  0.62712396  1  0.086088  -1.6e-05  0.936532  0.0  0.099464  -1.9e-05  1.004846  0.0  0.100106  -2e-05  1.005867  0.0  0.098668  0.098884  -1.3e-05  1.004244  0.0
H  H9  1  0.98589211  0.04800178  0.37287568  1  0.086081  -4e-06  0.936553  0.0  0.09946  -2e-05  1.00487  0.0  0.100104  -1.9e-05  1.005884  0.0  0.098659  0.098879  -1.3e-05  1.004272  0.0
H  H10  1  0.90933060  0.75769896  0.73124967  1  0.104278  -0.000521  0.947902  0.0  0.116304  -0.000551  1.0137  0.0  0.117751  -0.000569  1.013458  0.0  0.120415  0.115297  -0.000525  1.013766  0.0
H  H11  1  0.09067345  0.24230196  0.26874582  1  0.104277  -0.000514  0.947972  0.0  0.116337  -0.000552  1.013719  0.0  0.117766  -0.000568  1.013498  0.0  0.120432  0.11533  -0.000525  1.013785  0.0
H  H12  1  0.71046587  0.88721085  0.77964234  1  0.075457  -1e-06  0.902813  0.0  0.093063  0.000103  0.960937  0.0  0.093796  4.8e-05  0.960085  0.0  0.112496  0.092359  0.0002  0.961779  0.0
H  H13  1  0.28953787  0.11278793  0.22035548  1  0.075467  5e-06  0.902747  0.0  0.093074  0.000103  0.960874  0.0  0.093809  4.9e-05  0.960016  0.0  0.11251  0.09237  0.0002  0.961716  0.0
H  H14  1  0.27437964  0.73765908  0.93014125  1  0.100406  -0.000157  0.930095  0.0  0.110123  0.000131  0.989174  0.0  0.111617  6.1e-05  0.988073  0.0  0.138064  0.108676  0.00018  0.990512  0.0
H  H15  1  0.72561962  0.26233982  0.06986024  1  0.100334  -0.000149  0.930159  0.0  0.11006  0.000131  0.989233  0.0  0.111555  6.1e-05  0.98813  0.0  0.138038  0.108615  0.00018  0.99057  0.0
H  H16  1  0.79029536  0.82888177  0.06398961  1  0.110165  -0.000437  0.926249  0.0  0.122107  -2.8e-05  0.984474  0.0  0.125256  -0.000157  0.979365  0.0  0.147647  0.119459  8.7e-05  0.988052  0.0
H  H17  1  0.20970520  0.17111922  0.93601190  1  0.11018  -0.000434  0.926246  0.0  0.122112  -2.8e-05  0.98448  0.0  0.125261  -0.000157  0.97937  0.0  0.147635  0.119463  8.7e-05  0.988057  0.0
H  H18  1  0.73299130  0.93847941  0.32972723  1  0.093358  -0.000232  0.926659  0.0  0.101362  2.5e-05  0.989829  0.0  0.103675  -3.5e-05  0.987106  0.0  0.136673  0.099643  8.1e-05  0.991844  0.0
H  H19  1  0.26700513  0.06152384  0.67027378  1  0.093409  -0.000233  0.926644  0.0  0.101406  2.6e-05  0.989818  0.0  0.103722  -3.5e-05  0.987095  0.0  0.136695  0.099686  8.1e-05  0.991832  0.0
H  H20  1  0.03679658  0.63256517  0.50105087  1  0.13192  -0.000741  0.95085  0.0  0.137141  -0.000513  1.017428  0.0  0.140841  -0.00059  1.012936  0.0  0.149909  0.134316  -0.000431  1.020839  0.0
H  H21  1  0.96320263  0.36743695  0.49894550  1  0.13187  -0.000758  0.950956  0.0  0.137097  -0.000513  1.017532  0.0  0.140797  -0.00059  1.013038  0.0  0.149913  0.134274  -0.000431  1.020941  0.0
H  H22  1  0.54799671  0.61547818  0.20245890  1  0.092382  -0.000208  0.966111  0.0  0.100026  3.6e-05  1.032563  0.0  0.104998  -7.7e-05  1.027389  0.0  0.100196  0.096378  0.000156  1.036521  0.0
H  H23  1  0.45200190  0.38451966  0.79754211  1  0.092441  -0.000202  0.966135  0.0  0.10004  3.6e-05  1.032628  0.0  0.105039  -7.6e-05  1.027422  0.0  0.100207  0.096393  0.000156  1.036584  0.0
H  H24  1  0.74320526  0.28387923  0.45151261  1  0.090714  -0.000159  0.944524  0.0  0.09986  2.2e-05  1.010252  0.0  0.103444  -3.6e-05  1.007397  0.0  0.101378  0.097189  7.8e-05  1.012483  0.0
H  H25  1  0.25680050  0.71611736  0.54848382  1  0.090671  -0.000153  0.944571  0.0  0.099834  2.1e-05  1.010272  0.0  0.103417  -3.5e-05  1.007415  0.0  0.101339  0.097162  7.8e-05  1.012505  0.0
H  H26  1  0.54117522  0.18453398  0.50294946  1  0.089797  -1.5e-05  0.97075  0.0  0.096086  -5.5e-05  1.037681  0.0  0.099855  -5.9e-05  1.03571  0.0  0.095824  0.09332  -4.4e-05  1.039326  0.0
H  H27  1  0.45883068  0.81546474  0.49704931  1  0.089826  -1.8e-05  0.970727  0.0  0.096109  -5.5e-05  1.037684  0.0  0.099879  -5.8e-05  1.03571  0.0  0.095841  0.093343  -4.4e-05  1.039329  0.0
H  H28  1  0.34480162  0.30136759  0.39910858  1  0.091203  -0.000412  0.982475  0.0  0.095379  -0.000339  1.054677  0.0  0.098577  -0.000381  1.052901  0.0  0.097742  0.093233  -0.000256  1.055623  0.0
H  H29  1  0.65519731  0.69862916  0.60089617  1  0.091215  -0.000409  0.982512  0.0  0.095394  -0.00034  1.054703  0.0  0.098586  -0.00038  1.052937  0.0  0.097747  0.093251  -0.000256  1.055636  0.0
H  H30  1  0.19921533  0.40430693  0.95374856  1  0.423578  -0.000273  0.886766  0.001  0.388907  0.00033  0.956977  0.002  0.400029  3.1e-05  0.941122  0.001  0.28789  0.380818  0.000617  0.968479  0.002
H  H31  1  0.80078617  0.59569191  0.04625109  1  0.423587  -0.000273  0.886753  0.001  0.38891  0.00033  0.956971  0.002  0.400033  3.1e-05  0.941115  0.001  0.287884  0.380822  0.000617  0.968472  0.002
H  H32  1  0.29022776  0.38161243  0.04734072  1  0.41566  -0.000354  0.834637  0.0  0.397872  0.000488  0.890911  0.001  0.406534  0.000136  0.881042  0.001  0.316621  0.391406  0.000875  0.898386  0.001
H  H33  1  0.70977742  0.61838846  0.95265339  1  0.415719  -0.000356  0.83457  0.0  0.397929  0.000488  0.890845  0.001  0.406591  0.000136  0.880975  0.001  0.316659  0.391462  0.000875  0.898323  0.001
C  C34  1  0.85354718  0.02591486  0.83766713  1  -0.010279  0.000279  3.624876  0.0  -0.085833  0.000548  3.884104  0.0  -0.072062  0.000378  3.897641  0.0  -0.046314  -0.088319  0.000689  3.876693  0.001
C  C35  1  0.14645385  0.97408506  0.16233345  1  -0.010285  0.000379  3.624997  0.0  -0.08581  0.000545  3.884179  0.0  -0.072028  0.000386  3.897712  0.0  -0.046294  -0.088292  0.000689  3.87676  0.001
C  C36  1  0.88654073  0.98312741  0.69621699  1  -0.14329  2.3e-05  3.659108  0.0  -0.189227  0.000204  3.931168  0.0  -0.190837  0.00012  3.942302  0.0  -0.156639  -0.187436  0.000233  3.921702  0.0
C  C37  1  0.11345878  0.01687362  0.30378311  1  -0.143273  -6.9e-05  3.659074  0.0  -0.189247  0.000207  3.931163  0.0  -0.190855  0.000112  3.942291  0.0  -0.156653  -0.187463  0.000233  3.921695  0.0
C  C38  1  0.83486001  0.86140852  0.70313196  1  -0.016889  0.000274  3.622253  0.0  -0.095005  0.000394  3.889001  0.0  -0.090907  0.000228  3.898665  0.0  -0.049749  -0.097221  0.000576  3.88154  0.001
C  C39  1  0.16514094  0.13859461  0.29686444  1  -0.016983  0.000265  3.622177  0.0  -0.095091  0.000396  3.888921  0.0  -0.090984  0.000227  3.898598  0.0  -0.049805  -0.097306  0.000576  3.881463  0.001
C  C40  1  0.15425066  0.78596943  0.93743768  1  0.202937  0.003152  3.712101  0.004  0.149071  0.004905  4.009399  0.005  0.161313  0.004074  4.019649  0.004  0.149876  0.141427  0.00575  3.999993  0.006
C  C41  1  0.84574856  0.21402946  0.06256474  1  0.203021  0.003128  3.712223  0.004  0.149143  0.004905  4.009526  0.005  0.161386  0.00407  4.019772  0.004  0.149927  0.141499  0.005749  4.000122  0.006
C  C42  1  0.90864620  0.82954729  0.00833068  1  0.181891  0.003801  3.642128  0.004  0.102035  0.006056  3.909543  0.006  0.126965  0.005046  3.924702  0.005  0.168123  0.092726  0.007383  3.901293  0.007
C  C43  1  0.09135104  0.17045379  0.99167219  1  0.181867  0.003787  3.642247  0.004  0.102009  0.006059  3.909661  0.006  0.126948  0.005036  3.924822  0.005  0.168128  0.092701  0.007382  3.901407  0.007
C  C44  1  0.78807553  0.88332118  0.39955874  1  0.203432  0.002523  3.724199  0.003  0.150354  0.0042  4.020243  0.004  0.162159  0.003386  4.033448  0.004  0.151115  0.142561  0.005028  4.010659  0.005
C  C45  1  0.21192251  0.11668097  0.60043994  1  0.203403  0.002527  3.72418  0.003  0.150329  0.0042  4.020206  0.004  0.16213  0.003388  4.033412  0.004  0.151126  0.142537  0.005028  4.010619  0.005
C  C46  1  0.94557873  0.72654604  0.48187391  1  0.185394  0.002726  3.586844  0.003  0.108925  0.004871  3.851498  0.005  0.124106  0.003923  3.86123  0.004  0.174311  0.099119  0.006082  3.844733  0.006
C  C47  1  0.05442004  0.27345715  0.51812246  1  0.185388  0.002803  3.586794  0.003  0.108916  0.00487  3.851466  0.005  0.1241  0.003924  3.861194  0.004  0.174255  0.099108  0.006083  3.844706  0.006
C  C48  1  0.43630990  0.46422481  0.29298042  1  -0.075571  -0.001337  3.764667  -0.001  -0.049123  -0.001089  3.995119  0.0  -0.058752  -0.00155  4.01882  -0.001  -0.023479  -0.043181  -0.000382  3.979879  0.0
C  C49  1  0.56368911  0.53577195  0.70702153  1  -0.075454  -0.0013  3.764593  -0.001  -0.049031  -0.001072  3.995055  0.0  -0.058649  -0.00156  4.018746  -0.001  -0.023425  -0.043106  -0.000382  3.979835  0.0
C  C50  1  0.54938419  0.51943635  0.26623853  1  -0.075041  0.001515  3.728151  0.002  -0.108547  0.001807  3.972192  0.002  -0.106342  0.001496  3.991639  0.002  -0.078889  -0.109938  0.003399  3.959968  0.003
C  C51  1  0.45061503  0.48056254  0.73376389  1  -0.075218  0.00148  3.728265  0.002  -0.108681  0.001788  3.972322  0.002  -0.106502  0.001508  3.99175  0.002  -0.078932  -0.110069  0.003398  3.9601  0.003
C  C52  1  0.66126160  0.45391870  0.32175602  1  -0.087988  -0.003118  3.794252  -0.002  -0.061477  -0.002126  4.027003  -0.001  -0.072001  -0.002521  4.052342  -0.002  -0.024533  -0.055014  -0.001734  4.010567  -0.001
C  C53  1  0.33873888  0.54608017  0.67824129  1  -0.087941  -0.003104  3.794166  -0.002  -0.06142  -0.002112  4.0269  -0.001  -0.071947  -0.002527  4.052248  -0.002  -0.024534  -0.054958  -0.001734  4.010462  -0.001
C  C54  1  0.65663906  0.33363097  0.40779363  1  -0.036985  0.002815  3.716427  0.002  -0.068033  0.003353  3.972475  0.003  -0.064637  0.002836  3.991345  0.002  -0.075741  -0.06963  0.002844  3.959597  0.002
C  C55  1  0.34336197  0.66636894  0.59220695  1  -0.036918  0.002787  3.716316  0.002  -0.067967  0.003354  3.972345  0.003  -0.06457  0.002831  3.991213  0.002  -0.075688  -0.069564  0.002844  3.959467  0.002
C  C56  1  0.54306207  0.27844694  0.43619400  1  -0.080926  -0.00215  3.764234  -0.001  -0.091222  -0.001038  4.018005  -0.001  -0.097085  -0.001413  4.039937  -0.001  -0.09372  -0.087461  -0.00078  4.002955  0.0
C  C57  1  0.45694431  0.72155070  0.56380384  1  -0.080958  -0.002102  3.764122  -0.001  -0.091277  -0.001044  4.017917  -0.001  -0.097139  -0.001407  4.039848  -0.001  -0.093741  -0.087517  -0.00078  4.002869  0.0
C  C58  1  0.43415264  0.34287145  0.37835119  1  -0.047763  0.002319  3.708432  0.002  -0.074991  0.002611  3.957704  0.002  -0.071687  0.002192  3.976037  0.002  -0.081775  -0.076353  0.00211  3.944625  0.002
C  C59  1  0.56584588  0.65712639  0.62165262  1  -0.047812  0.00229  3.708438  0.002  -0.075017  0.00261  3.957712  0.002  -0.071716  0.002189  3.976042  0.002  -0.081797  -0.076373  0.00211  3.944637  0.002
C  C60  1  0.31870914  0.53518108  0.23064038  1  0.630195  0.003967  3.953851  0.003  0.585128  0.007585  4.242547  0.006  0.619081  0.005865  4.237263  0.005  0.197608  0.561553  0.009543  4.245364  0.007
C  C61  1  0.68129043  0.46481139  0.76936482  1  0.630278  0.003953  3.954034  0.003  0.585222  0.007585  4.242728  0.006  0.619172  0.005861  4.237441  0.005  0.197637  0.561649  0.009544  4.24555  0.007
C  C62  1  0.78646520  0.50936655  0.28566924  1  0.645976  0.00334  3.884781  0.002  0.595185  0.007249  4.169933  0.005  0.629394  0.005692  4.165591  0.004  0.211053  0.571705  0.00916  4.171609  0.006
C  C63  1  0.21353292  0.49063238  0.71433363  1  0.645926  0.003384  3.884626  0.002  0.595126  0.007247  4.169802  0.005  0.629334  0.005698  4.165461  0.004  0.211031  0.571645  0.00916  4.171478  0.006
N  N64  1  0.95167849  0.91539580  0.90073999  1  0.03592  0.000724  3.562827  0.001  0.158174  0.001896  3.749844  0.002  0.116909  0.001358  3.814038  0.002  -0.134672  0.164727  0.002404  3.733671  0.003
N  N65  1  0.04832009  0.08460204  0.09926195  1  0.035924  0.000699  3.562899  0.001  0.158199  0.001903  3.749866  0.002  0.116905  0.001348  3.814095  0.002  -0.134661  0.164749  0.002404  3.733696  0.003
N  N66  1  0.10870198  0.88954215  0.85415031  1  -0.274618  9e-06  2.855697  0.0  -0.274496  0.001056  3.126964  0.001  -0.274018  0.000359  3.148859  0.001  -0.220605  -0.268478  0.001645  3.116359  0.002
N  N67  1  0.89129617  0.11045678  0.14585163  1  -0.274642  2e-05  2.855718  0.0  -0.274531  0.00105  3.126992  0.001  -0.274043  0.000373  3.148893  0.001  -0.220639  -0.268512  0.001645  3.11639  0.002
N  N68  1  0.03449034  0.74563539  0.03481107  1  -0.416256  0.027314  3.194523  0.01  -0.350375  0.031998  3.508354  0.008  -0.37309  0.0283  3.513977  0.006  -0.340494  -0.333561  0.035221  3.500976  0.01
N  N69  1  0.96550891  0.25436351  0.96519042  1  -0.416218  0.027342  3.19463  0.01  -0.350334  0.031997  3.508467  0.008  -0.373046  0.02831  3.514085  0.006  -0.340471  -0.33352  0.035221  3.501086  0.01
N  N70  1  0.84457369  0.83899172  0.57036079  1  0.044631  0.000604  3.557401  0.001  0.164716  0.001652  3.746636  0.002  0.153965  0.001134  3.771003  0.001  -0.134266  0.170216  0.002057  3.733037  0.002
N  N71  1  0.15542616  0.16101144  0.42963606  1  0.044677  0.000587  3.557344  0.001  0.164697  0.001651  3.746668  0.002  0.153939  0.001135  3.771048  0.001  -0.134308  0.170203  0.002058  3.733057  0.002
N  N72  1  0.74267239  0.94061188  0.51960485  1  -0.29605  0.000517  2.862652  0.001  -0.294297  0.00154  3.129397  0.001  -0.302881  0.000913  3.142251  0.001  -0.229906  -0.288093  0.002024  3.120947  0.002
N  N73  1  0.25732437  0.05939351  0.48039290  1  -0.296063  0.000505  2.862712  0.001  -0.294295  0.001541  3.129474  0.001  -0.302878  0.000911  3.142331  0.001  -0.229899  -0.288093  0.002024  3.121021  0.002
N  N74  1  0.91279970  0.75139596  0.37167883  1  -0.420996  0.028322  3.18181  0.013  -0.354764  0.033591  3.489397  0.013  -0.378939  0.030254  3.501238  0.011  -0.336776  -0.337253  0.036885  3.480403  0.015
N  N75  1  0.08719614  0.24860624  0.62831983  1  -0.420928  0.028289  3.181672  0.013  -0.354659  0.03359  3.48921  0.013  -0.378832  0.030251  3.501049  0.011  -0.336698  -0.337146  0.036883  3.48021  0.015
O  O76  1  0.21734040  0.47687278  0.26248026  1  -0.674321  0.039009  2.025608  0.029  -0.604026  0.041601  2.289375  0.027  -0.637324  0.036278  2.27729  0.022  -0.338093  -0.578853  0.046136  2.29728  0.031
O  O77  1  0.78265855  0.52312397  0.73752355  1  -0.674323  0.039011  2.025602  0.029  -0.60403  0.041603  2.289363  0.027  -0.637328  0.036279  2.277284  0.022  -0.338097  -0.578858  0.046138  2.297263  0.031
O  O78  1  0.32246781  0.64349473  0.15412851  1  -0.637331  0.00417  1.891661  0.003  -0.595018  0.009534  2.113587  0.008  -0.618046  0.007603  2.104506  0.006  -0.335886  -0.578116  0.011363  2.119416  0.009
O  O79  1  0.67752989  0.35649994  0.84587342  1  -0.637432  0.004183  1.891945  0.003  -0.595109  0.009533  2.113849  0.008  -0.618135  0.007603  2.104769  0.006  -0.335916  -0.578207  0.011361  2.119681  0.009
O  O80  1  0.80071898  0.60807521  0.19264468  1  -0.671002  0.022551  2.013347  0.016  -0.596627  0.029972  2.246726  0.022  -0.627327  0.026396  2.236015  0.019  -0.316483  -0.573688  0.033237  2.252968  0.025
O  O81  1  0.19928185  0.39192257  0.80735543  1  -0.670949  0.022547  2.013272  0.016  -0.596603  0.029973  2.246672  0.022  -0.627302  0.026396  2.235968  0.019  -0.316468  -0.573666  0.033236  2.252916  0.025
O  O82  1  0.88186211  0.45836076  0.34267404  1  -0.622573  0.025639  1.986368  0.019  -0.559768  0.031104  2.231337  0.023  -0.589391  0.026987  2.222688  0.019  -0.301527  -0.537673  0.035024  2.237092  0.026
O  O83  1  0.11813901  0.54163916  0.65732375  1  -0.622569  0.025609  1.98633  0.019  -0.559745  0.031107  2.231287  0.023  -0.589367  0.026981  2.222645  0.019  -0.301518  -0.537647  0.035025  2.237041  0.026
O  O84  1  0.18677536  0.40115780  0.05167298  1  -0.823391  0.026032  1.883117  0.017  -0.768752  0.036014  2.090586  0.024  -0.791368  0.031947  2.060735  0.021  -0.564415  -0.75202  0.039842  2.112388  0.027
O  O85  1  0.81322722  0.59884101  0.94832715  1  -0.82344  0.026035  1.883043  0.017  -0.768809  0.036014  2.09053  0.024  -0.791423  0.031946  2.060676  0.021  -0.564444  -0.752075  0.039841  2.112328  0.027
