# generated using pymatgen
data_ZnH30C32(N2O3)2
_symmetry_space_group_name_H-M   'P 1'
_cell_length_a   7.83661146
_cell_length_b   11.46366675
_cell_length_c   17.07800000
_cell_angle_alpha   96.34564191
_cell_angle_beta   90.00000000
_cell_angle_gamma   90.00000000
_symmetry_Int_Tables_number   1
_chemical_formula_structural   ZnH30C32(N2O3)2
_chemical_formula_sum   'Zn2 H60 C64 N8 O12'
_cell_volume   1524.82452216
_cell_formula_units_Z   2
loop_
 _symmetry_equiv_pos_site_id
 _symmetry_equiv_pos_as_xyz
  1  'x, y, z'
loop_
 _atom_site_type_symbol
 _atom_site_label
 _atom_site_symmetry_multiplicity
 _atom_site_fract_x
 _atom_site_fract_y
 _atom_site_fract_z
 _atom_site_occupancy
 _atom_site_hle17_bader_spin_density
 _atom_site_hle17_ddec_charge
 _atom_site_hle17_ddec_spin_density
 _atom_site_hle17_ddec_sum_bond_order
 _atom_site_hle17_magmom
 _atom_site_hse06_10hf_bader_spin_density
 _atom_site_hse06_10hf_ddec_charge
 _atom_site_hse06_10hf_ddec_spin_density
 _atom_site_hse06_10hf_ddec_sum_bond_order
 _atom_site_hse06_10hf_magmom
 _atom_site_hse06_bader_spin_density
 _atom_site_hse06_ddec_charge
 _atom_site_hse06_ddec_spin_density
 _atom_site_hse06_ddec_sum_bond_order
 _atom_site_hse06_magmom
 _atom_site_pbe_bader_charge
 _atom_site_pbe_bader_spin_density
 _atom_site_pbe_cm5_charge
 _atom_site_pbe_ddec_charge
 _atom_site_pbe_ddec_spin_density
 _atom_site_pbe_ddec_sum_bond_order
 _atom_site_pbe_magmom
Zn  Zn0  1  0.03047618  0.99999812  0.74999892  1  0  1.007013  0  1.915424  0  0  0.819181  0  2.40158  0  0  0.864885  0  2.344929  0  1.260779  0  0.689912  0.787332  0  2.440561  0
Zn  Zn1  1  0.96952236  0.00000088  0.25000124  1  0  1.007021  0  1.915403  0  0  0.819195  0  2.401554  0  0  0.864899  0  2.344902  0  1.260789  0  0.68989  0.787345  0  2.440535  0
H  H2  1  0.40281313  0.12410923  0.77482671  1  0  0.094762  0  0.961652  0  0  0.101482  0  1.031466  0  0  0.102799  0  1.031109  0  0.155853  0  0.13324  0.100464  0  1.031713  0
H  H3  1  0.40281824  0.87589064  0.72517410  1  0  0.094747  0  0.961686  0  0  0.101471  0  1.031497  0  0  0.102785  0  1.031148  0  0.155825  0  0.133241  0.100454  0  1.031743  0
H  H4  1  0.59718413  0.87589152  0.22517475  1  0  0.094752  0  0.961715  0  0  0.101479  0  1.031517  0  0  0.102794  0  1.031165  0  0.155849  0  0.133261  0.100462  0  1.031763  0
H  H5  1  0.59718413  0.12410747  0.27482717  1  0  0.094775  0  0.961572  0  0  0.101489  0  1.031409  0  0  0.102803  0  1.031059  0  0.155821  0  0.133254  0.100471  0  1.031655  0
H  H6  1  0.05017220  0.11686119  0.58777299  1  0  0.117178  0  0.962315  0  0  0.126227  0  1.020731  0  0  0.129527  0  1.018519  0  0.134506  0  0.11906  0.123813  0  1.022466  0
H  H7  1  0.05017475  0.88313956  0.91222672  1  0  0.117201  0  0.96231  0  0  0.126264  0  1.020708  0  0  0.129565  0  1.018495  0  0.134532  0  0.119065  0.123843  0  1.022451  0
H  H8  1  0.94982889  0.88313429  0.41222574  1  0  0.117252  0  0.962319  0  0  0.12628  0  1.020753  0  0  0.129581  0  1.01854  0  0.134528  0  0.119083  0.123858  0  1.022495  0
H  H9  1  0.94982762  0.11686383  0.08777436  1  0  0.117195  0  0.962348  0  0  0.12626  0  1.020738  0  0  0.129561  0  1.018526  0  0.134506  0  0.119088  0.123839  0  1.02248  0
H  H10  1  0.33871783  0.24746013  0.55213728  1  0  0.112388  0  0.991162  0  0  0.119702  0  1.056378  0  0  0.120974  0  1.058375  0  0.155756  0  0.118722  0.118688  0  1.055194  0
H  H11  1  0.33871655  0.75254062  0.94786419  1  0  0.112355  0  0.991198  0  0  0.119679  0  1.056402  0  0  0.120947  0  1.058402  0  0.155771  0  0.11873  0.118667  0  1.055216  0
H  H12  1  0.66128326  0.75253799  0.44786223  1  0  0.11239  0  0.99121  0  0  0.119702  0  1.056421  0  0  0.120979  0  1.058413  0  0.155746  0  0.118732  0.118688  0  1.055237  0
H  H13  1  0.66128071  0.24746013  0.05213786  1  0  0.112312  0  0.991105  0  0  0.11962  0  1.056337  0  0  0.1209  0  1.058324  0  0.155771  0  0.118684  0.118607  0  1.055152  0
H  H14  1  0.63916273  0.25501009  0.61554845  1  0  0.093491  0  0.936025  0  0  0.107186  0  1.001712  0  0  0.107952  0  1.001178  0  0.101899  0  0.115987  0.106527  0  1.00223  0
H  H15  1  0.63916146  0.74498452  0.88445080  1  0  0.093516  0  0.93599  0  0  0.107208  0  1.001663  0  0  0.107976  0  1.001131  0  0.101925  0  0.116005  0.106546  0  1.002178  0
H  H16  1  0.36083836  0.74498803  0.38445164  1  0  0.093505  0  0.935997  0  0  0.107197  0  1.001682  0  0  0.107965  0  1.00115  0  0.101913  0  0.115992  0.106536  0  1.002196  0
H  H17  1  0.36083580  0.25501273  0.11555040  1  0  0.093569  0  0.93597  0  0  0.107251  0  1.001622  0  0  0.108022  0  1.001087  0  0.101941  0  0.116004  0.106591  0  1.002137  0
H  H18  1  0.66645897  0.20550613  0.70795077  1  0  0.11217  0  0.917659  0  0  0.125497  0  0.979912  0  0  0.126622  0  0.979269  0  0.13032  0  0.121492  0.124576  0  0.980503  0
H  H19  1  0.66646280  0.79449462  0.79205069  1  0  0.112157  0  0.917698  0  0  0.125497  0  0.979937  0  0  0.126624  0  0.979292  0  0.130319  0  0.121498  0.124577  0  0.980528  0
H  H20  1  0.33353829  0.79449550  0.29204958  1  0  0.112176  0  0.917626  0  0  0.125499  0  0.97989  0  0  0.126625  0  0.979245  0  0.130308  0  0.121489  0.124577  0  0.980482  0
H  H21  1  0.33353957  0.20550613  0.20795253  1  0  0.112179  0  0.917724  0  0  0.125502  0  0.979956  0  0  0.126626  0  0.979314  0  0.130423  0  0.121491  0.124582  0  0.980547  0
H  H22  1  0.29972266  0.39821366  0.71784695  1  0  0.091493  0  0.956266  0  0  0.102507  0  1.01431  0  0  0.105523  0  1.01312  0  0.057489  0  0.099907  0.10037  0  1.015208  0
H  H23  1  0.29972521  0.60178622  0.78215269  1  0  0.091508  0  0.956284  0  0  0.102475  0  1.014364  0  0  0.105488  0  1.013181  0  0.05754  0  0.099902  0.100337  0  1.015262  0
H  H24  1  0.70027843  0.60178885  0.28215288  1  0  0.091499  0  0.956245  0  0  0.102486  0  1.014318  0  0  0.105502  0  1.013129  0  0.057659  0  0.099897  0.100349  0  1.015216  0
H  H25  1  0.70027843  0.39821453  0.21784819  1  0  0.091493  0  0.956297  0  0  0.102479  0  1.014363  0  0  0.105493  0  1.013178  0  0.057508  0  0.099891  0.100341  0  1.015262  0
H  H26  1  0.84925864  0.39721220  0.71823758  1  0  0.093676  0  0.936119  0  0  0.110341  0  0.985944  0  0  0.113157  0  0.984963  0  0.056272  0  0.105168  0.108278  0  0.9868  0
H  H27  1  0.84926247  0.60278504  0.78176069  1  0  0.093674  0  0.93616  0  0  0.110341  0  0.985975  0  0  0.113156  0  0.984996  0  0.056263  0  0.105173  0.108269  0  0.986842  0
H  H28  1  0.15074117  0.60278855  0.28176271  1  0  0.093739  0  0.936116  0  0  0.110405  0  0.985925  0  0  0.113221  0  0.984944  0  0.056273  0  0.105209  0.108342  0  0.98678  0
H  H29  1  0.15074117  0.39721571  0.21823901  1  0  0.093687  0  0.936177  0  0  0.110387  0  0.985958  0  0  0.113202  0  0.984978  0  0.056307  0  0.105206  0.108316  0  0.986824  0
H  H30  1  0.77912374  0.69695421  0.63062037  1  0  0.093293  0  0.960856  0  0  0.102096  0  1.026504  0  0  0.105474  0  1.023854  0  0.08504  0  0.09923  0.099622  0  1.028503  0
H  H31  1  0.77912374  0.30304654  0.86937816  1  0  0.093294  0  0.960839  0  0  0.102111  0  1.026477  0  0  0.10549  0  1.023825  0  0.084978  0  0.099235  0.099634  0  1.028472  0
H  H32  1  0.22087735  0.30304742  0.36937940  1  0  0.093314  0  0.960819  0  0  0.102116  0  1.026472  0  0  0.105493  0  1.023825  0  0.085013  0  0.099241  0.09964  0  1.028469  0
H  H33  1  0.22087353  0.69695596  0.13062050  1  0  0.093295  0  0.960814  0  0  0.102085  0  1.02648  0  0  0.105466  0  1.023828  0  0.085045  0  0.099218  0.09961  0  1.028477  0
H  H34  1  0.55507665  0.55814177  0.57185763  1  0  0.119367  0  0.949197  0  0  0.124971  0  1.015825  0  0  0.129363  0  1.013538  0  0.081499  0  0.103987  0.121868  0  1.017499  0
H  H35  1  0.55507665  0.44185547  0.92814064  1  0  0.119333  0  0.949298  0  0  0.124985  0  1.015871  0  0  0.129374  0  1.013589  0  0.081537  0  0.103972  0.121882  0  1.017545  0
H  H36  1  0.44492572  0.44185635  0.42814246  1  0  0.119348  0  0.949289  0  0  0.12497  0  1.0159  0  0  0.129363  0  1.013608  0  0.081532  0  0.103966  0.121866  0  1.017573  0
H  H37  1  0.44492317  0.55814528  0.07185789  1  0  0.1193  0  0.949286  0  0  0.124948  0  1.015866  0  0  0.129341  0  1.013572  0  0.081562  0  0.103951  0.121842  0  1.017548  0
H  H38  1  0.47891873  0.98899880  0.57375132  1  0  0.097961  0  0.967029  0  0  0.103946  0  1.035602  0  0  0.106692  0  1.034657  0  0.118392  0  0.100383  0.101969  0  1.036315  0
H  H39  1  0.47892001  0.01100020  0.92624767  1  0  0.097988  0  0.967011  0  0  0.103967  0  1.035628  0  0  0.10671  0  1.034685  0  0.118415  0  0.100383  0.101999  0  1.036316  0
H  H40  1  0.52108108  0.01100108  0.42624890  1  0  0.097982  0  0.967043  0  0  0.103977  0  1.035611  0  0  0.106723  0  1.034666  0  0.11836  0  0.100382  0.102  0  1.036325  0
H  H41  1  0.52108236  0.98900143  0.07375093  1  0  0.097957  0  0.967065  0  0  0.103951  0  1.035645  0  0  0.106695  0  1.034702  0  0.118369  0  0.100375  0.101973  0  1.036359  0
H  H42  1  0.24991286  0.85492154  0.52016657  1  0  0.116078  0  0.95643  0  0  0.126062  0  1.0178  0  0  0.129789  0  1.015906  0  0.092906  0  0.105638  0.123403  0  1.019282  0
H  H43  1  0.24991414  0.14507745  0.97983183  1  0  0.116039  0  0.956379  0  0  0.12602  0  1.017767  0  0  0.129747  0  1.015873  0  0.092908  0  0.105617  0.123359  0  1.019251  0
H  H44  1  0.75008695  0.14507745  0.47983242  1  0  0.116046  0  0.956382  0  0  0.126028  0  1.01777  0  0  0.129754  0  1.015877  0  0.092872  0  0.105614  0.123368  0  1.019253  0
H  H45  1  0.75008695  0.85492330  0.02016670  1  0  0.116077  0  0.956434  0  0  0.126059  0  1.017807  0  0  0.129786  0  1.015912  0  0.092851  0  0.10563  0.123398  0  1.019291  0
H  H46  1  0.11382598  0.70732597  0.44388488  1  0  0.045756  0  0.939149  0  0  0.060973  0  1.006207  0  0  0.060777  0  1.006181  0  0.027601  0  0.099026  0.06106  0  1.006299  0
H  H47  1  0.11382726  0.29267302  0.05611469  1  0  0.045781  0  0.939132  0  0  0.060983  0  1.006194  0  0  0.06079  0  1.006169  0  0.027609  0  0.099037  0.061075  0  1.006275  0
H  H48  1  0.88617255  0.29267214  0.55611521  1  0  0.045772  0  0.939171  0  0  0.061  0  1.006228  0  0  0.060803  0  1.0062  0  0.027577  0  0.099042  0.061089  0  1.006313  0
H  H49  1  0.88617511  0.70732773  0.94388501  1  0  0.045743  0  0.939144  0  0  0.060952  0  1.006205  0  0  0.060753  0  1.006187  0  0.027585  0  0.099016  0.061046  0  1.00628  0
H  H50  1  0.04972302  0.70328505  0.54397916  1  0  0.05721  0  0.917082  0  0  0.074216  0  0.977793  0  0  0.074168  0  0.977664  0  0.055619  0  0.102598  0.074196  0  0.977914  0
H  H51  1  0.04972302  0.29671482  0.95602107  1  0  0.057219  0  0.917095  0  0  0.074219  0  0.977806  0  0  0.074173  0  0.977679  0  0.055617  0  0.102605  0.074199  0  0.977927  0
H  H52  1  0.95027552  0.29671307  0.45602211  1  0  0.05724  0  0.917052  0  0  0.074239  0  0.977779  0  0  0.07419  0  0.97765  0  0.055631  0  0.102601  0.074219  0  0.977901  0
H  H53  1  0.95027679  0.70328593  0.04397805  1  0  0.057226  0  0.917065  0  0  0.074224  0  0.977784  0  0  0.074177  0  0.977653  0  0.055639  0  0.102602  0.074203  0  0.977906  0
H  H54  1  0.87634050  0.56700214  0.45104643  1  0  0.077884  0  0.940269  0  0  0.093076  0  1.004456  0  0  0.093826  0  1.004892  0  0.053905  0  0.094614  0.092508  0  1.004197  0
H  H55  1  0.87633922  0.43299686  0.04895490  1  0  0.077898  0  0.940332  0  0  0.093106  0  1.004523  0  0  0.093858  0  1.004958  0  0.053889  0  0.094618  0.092539  0  1.004264  0
H  H56  1  0.12366059  0.43299598  0.54895483  1  0  0.077888  0  0.940349  0  0  0.093122  0  1.004516  0  0  0.093873  0  1.004952  0  0.053877  0  0.094647  0.092555  0  1.004254  0
H  H57  1  0.12365804  0.56700214  0.95104526  1  0  0.077885  0  0.940287  0  0  0.093079  0  1.004474  0  0  0.093829  0  1.004909  0  0.05391  0  0.094609  0.092511  0  1.004215  0
H  H58  1  0.06354149  0.49415227  0.41436513  1  0  0.069985  0  0.931755  0  0  0.088802  0  0.991572  0  0  0.088994  0  0.992643  0  0.002515  0  0.09219  0.088617  0  0.990888  0
H  H59  1  0.06354405  0.50584848  0.08563457  1  0  0.069994  0  0.931753  0  0  0.088824  0  0.991575  0  0  0.089016  0  0.992645  0  0.002497  0  0.092185  0.088639  0  0.990891  0
H  H60  1  0.93645832  0.50584585  0.58563496  1  0  0.069971  0  0.93176  0  0  0.0888  0  0.991594  0  0  0.088992  0  0.992667  0  0.00252  0  0.092193  0.088615  0  0.990911  0
H  H61  1  0.93645577  0.49415227  0.91436455  1  0  0.069974  0  0.931761  0  0  0.088789  0  0.991579  0  0  0.088981  0  0.992649  0  0.002494  0  0.092174  0.088604  0  0.990896  0
C  C62  1  0.34379400  0.13849734  0.71920897  1  0  0.162533  0  3.645868  0  0  0.101775  0  3.909354  0  0  0.115366  0  3.922752  0  0.964177  0  0.14587  0.093052  0  3.899985  0
C  C63  1  0.34379400  0.86150428  0.78078963  1  0  0.16261  0  3.645869  0  0  0.101848  0  3.909356  0  0  0.115439  0  3.92275  0  0.963993  0  0.145903  0.093125  0  3.89999  0
C  C64  1  0.65620837  0.86150428  0.28079021  1  0  0.162572  0  3.645878  0  0  0.101816  0  3.909375  0  0  0.115406  0  3.922769  0  0.964027  0  0.145866  0.093092  0  3.900007  0
C  C65  1  0.65620454  0.13849822  0.21921021  1  0  0.162632  0  3.645853  0  0  0.101873  0  3.909338  0  0  0.115465  0  3.922731  0  0.964153  0  0.145941  0.093151  0  3.899968  0
C  C66  1  0.16638697  0.13895111  0.62057418  1  0  -0.002368  0  3.734545  0  0  -0.034826  0  3.994126  0  0  -0.033567  0  4.013378  0  0.369029  0  -0.001466  -0.035694  0  3.981264  0
C  C67  1  0.16639079  0.86104876  0.87942546  1  0  -0.002503  0  3.734642  0  0  -0.03498  0  3.994251  0  0  -0.033724  0  4.013501  0  0.369184  0  -0.001505  -0.035845  0  3.981396  0
C  C68  1  0.83361795  0.86104700  0.37942475  1  0  -0.00248  0  3.734518  0  0  -0.034913  0  3.994095  0  0  -0.033659  0  4.013351  0  0.369067  0  -0.001489  -0.035776  0  3.981238  0
C  C69  1  0.83361285  0.13895287  0.12057606  1  0  -0.002362  0  3.734572  0  0  -0.034833  0  3.994154  0  0  -0.033577  0  4.013409  0  0.369033  0  -0.001468  -0.035698  0  3.981298  0
C  C70  1  0.30660446  0.20311528  0.60297248  1  0  -0.063148  0  3.67079  0  0  -0.101475  0  3.928531  0  0  -0.100376  0  3.949006  0  0.302249  0  0.003722  -0.10217  0  3.914898  0
C  C71  1  0.30660446  0.79688547  0.89702781  1  0  -0.06303  0  3.670807  0  0  -0.101354  0  3.928535  0  0  -0.100249  0  3.94901  0  0.30223  0  0.003728  -0.102052  0  3.914902  0
C  C72  1  0.69339408  0.79688723  0.39702911  1  0  -0.063115  0  3.670753  0  0  -0.101437  0  3.928481  0  0  -0.10034  0  3.948951  0  0.302328  0  0.003703  -0.102132  0  3.914847  0
C  C73  1  0.69339280  0.20311440  0.10297300  1  0  -0.063031  0  3.670715  0  0  -0.101348  0  3.92846  0  0  -0.100253  0  3.948927  0  0.302332  0  0.003759  -0.102043  0  3.914826  0
C  C74  1  0.58284502  0.25899484  0.67459101  1  0  -0.047553  0  3.643917  0  0  -0.114422  0  3.894399  0  0  -0.109943  0  3.904219  0  0.283528  0  -0.044081  -0.117248  0  3.887684  0
C  C75  1  0.58284375  0.74100327  0.82540733  1  0  -0.047577  0  3.643949  0  0  -0.114439  0  3.894447  0  0  -0.10996  0  3.904266  0  0.283542  0  -0.044114  -0.117259  0  3.887728  0
C  C76  1  0.41715607  0.74100503  0.32540804  1  0  -0.047594  0  3.643869  0  0  -0.114464  0  3.894341  0  0  -0.109986  0  3.90416  0  0.283566  0  -0.044086  -0.117281  0  3.887618  0
C  C77  1  0.41715351  0.25899660  0.17459407  1  0  -0.04772  0  3.644122  0  0  -0.11452  0  3.894545  0  0  -0.110042  0  3.904365  0  0.283427  0  -0.044116  -0.117343  0  3.887827  0
C  C78  1  0.57435028  0.38380448  0.71308545  1  0  0.072558  0  3.755611  0  0  0.088539  0  4.001369  0  0  0.087637  0  4.026509  0  -0.054765  0  -0.012146  0.089115  0  3.984276  0
C  C79  1  0.57435283  0.61619452  0.78691354  1  0  0.0726  0  3.755399  0  0  0.088531  0  4.001198  0  0  0.087628  0  4.026338  0  -0.054744  0  -0.01218  0.089109  0  3.984102  0
C  C80  1  0.42564953  0.61619452  0.28691588  1  0  0.072625  0  3.755529  0  0  0.088638  0  4.001224  0  0  0.087736  0  4.026366  0  -0.054796  0  -0.012145  0.089213  0  3.984132  0
C  C81  1  0.42564953  0.38380623  0.21308617  1  0  0.072646  0  3.755545  0  0  0.088565  0  4.001346  0  0  0.087662  0  4.026487  0  -0.054756  0  -0.01217  0.089143  0  3.98425  0
C  C82  1  0.42111313  0.44241105  0.73163601  1  0  -0.115383  0  3.767607  0  0  -0.134762  0  4.015041  0  0  -0.13725  0  4.036512  0  0.012112  0  -0.09533  -0.133032  0  4.000477  0
C  C83  1  0.42111313  0.55758531  0.76836161  1  0  -0.115392  0  3.767524  0  0  -0.134704  0  4.01497  0  0  -0.13719  0  4.036442  0  -0.058032  0  -0.095287  -0.132974  0  4.000406  0
C  C84  1  0.57888796  0.55758882  0.26836363  1  0  -0.115395  0  3.767605  0  0  -0.134755  0  4.015026  0  0  -0.137243  0  4.036499  0  -0.05826  0  -0.095325  -0.133025  0  4.000463  0
C  C85  1  0.57888923  0.44241369  0.23163914  1  0  -0.115413  0  3.767628  0  0  -0.134752  0  4.015077  0  0  -0.137239  0  4.036551  0  0.01215  0  -0.095276  -0.133022  0  4.000513  0
C  C86  1  0.72847685  0.44265769  0.73182061  1  0  -0.116188  0  3.763657  0  0  -0.135337  0  4.01394  0  0  -0.138083  0  4.035865  0  -0.006128  0  -0.090023  -0.133394  0  3.999001  0
C  C87  1  0.72847812  0.55734131  0.76817604  1  0  -0.11614  0  3.7636  0  0  -0.13527  0  4.013898  0  0  -0.138016  0  4.035822  0  -0.076843  0  -0.089975  -0.133321  0  3.998963  0
C  C88  1  0.27152424  0.55734306  0.26817910  1  0  -0.116246  0  3.763619  0  0  -0.135405  0  4.013898  0  0  -0.138152  0  4.035824  0  -0.006085  0  -0.09003  -0.133462  0  3.99896  0
C  C89  1  0.27152552  0.44265944  0.23182425  1  0  -0.116183  0  3.763645  0  0  -0.135351  0  4.013969  0  0  -0.138097  0  4.035894  0  -0.076874  0  -0.090049  -0.133403  0  3.999034  0
C  C90  1  0.78067160  0.93423303  0.63830630  1  0  0.63206  0  3.956053  0  0  0.588841  0  4.241487  0  0  0.622753  0  4.234315  0  1.564982  0  0.191272  0.565831  0  4.245668  0
C  C91  1  0.78067670  0.06576772  0.86169223  1  0  0.632047  0  3.95606  0  0  0.588823  0  4.241501  0  0  0.622736  0  4.234328  0  1.564841  0  0.191298  0.56582  0  4.245685  0
C  C92  1  0.21932311  0.06576860  0.36169464  1  0  0.632081  0  3.955986  0  0  0.588878  0  4.241391  0  0  0.622791  0  4.234216  0  1.56483  0  0.191254  0.565864  0  4.245573  0
C  C93  1  0.21932566  0.93423479  0.13830643  1  0  0.632104  0  3.955981  0  0  0.588908  0  4.241396  0  0  0.62282  0  4.23422  0  1.564594  0  0.191275  0.565906  0  4.245581  0
C  C94  1  0.64392627  0.85177763  0.60529226  1  0  -0.110587  0  3.806247  0  0  -0.088471  0  4.039357  0  0  -0.098754  0  4.063128  0  -0.087628  0  -0.039364  -0.081884  0  4.023395  0
C  C95  1  0.64392500  0.14821961  0.89470543  1  0  -0.110522  0  3.806072  0  0  -0.088403  0  4.039189  0  0  -0.098683  0  4.062958  0  -0.087557  0  -0.03934  -0.081843  0  4.023259  0
C  C96  1  0.35607227  0.14822137  0.39470731  1  0  -0.11058  0  3.806197  0  0  -0.088454  0  4.039289  0  0  -0.098736  0  4.06306  0  -0.087566  0  -0.039328  -0.081853  0  4.023309  0
C  C97  1  0.35607354  0.85178114  0.10529193  1  0  -0.110527  0  3.806179  0  0  -0.088432  0  4.039297  0  0  -0.098711  0  4.063063  0  -0.087779  0  -0.039304  -0.081876  0  4.023372  0
C  C98  1  0.66382773  0.72989336  0.60506381  1  0  -0.060358  0  3.783098  0  0  -0.08374  0  4.033693  0  0  -0.081056  0  4.053299  0  -0.067642  0  -0.091222  -0.085266  0  4.020369  0
C  C99  1  0.66382901  0.27010563  0.89493342  1  0  -0.060375  0  3.78302  0  0  -0.083766  0  4.033611  0  0  -0.081084  0  4.053219  0  -0.067539  0  -0.091252  -0.085278  0  4.020286  0
C  C100  1  0.33617464  0.27010651  0.39493583  1  0  -0.060344  0  3.783013  0  0  -0.083726  0  4.033616  0  0  -0.081043  0  4.053222  0  -0.067566  0  -0.091217  -0.085254  0  4.020285  0
C  C101  1  0.33617081  0.72989687  0.10506407  1  0  -0.060335  0  3.78299  0  0  -0.08368  0  4.033562  0  0  -0.080998  0  4.053169  0  -0.067654  0  -0.091217  -0.085193  0  4.020242  0
C  C102  1  0.53919223  0.65281737  0.57339804  1  0  -0.190185  0  3.750812  0  0  -0.210165  0  4.010027  0  0  -0.216243  0  4.027661  0  0.006764  0  -0.107248  -0.206201  0  3.99822  0
C  C103  1  0.53919095  0.34718074  0.92659912  1  0  -0.190194  0  3.750876  0  0  -0.210225  0  4.010093  0  0  -0.216305  0  4.02773  0  0.006688  0  -0.107232  -0.206261  0  3.998282  0
C  C104  1  0.46081141  0.34718162  0.42660153  1  0  -0.190132  0  3.7508  0  0  -0.210149  0  4.010021  0  0  -0.216227  0  4.027656  0  0.006684  0  -0.107192  -0.206185  0  3.998215  0
C  C105  1  0.46080631  0.65282089  0.07339831  1  0  -0.19017  0  3.750865  0  0  -0.210197  0  4.010107  0  0  -0.216274  0  4.027742  0  0.006751  0  -0.10723  -0.206233  0  3.998295  0
C  C106  1  0.49383589  0.89464004  0.57445365  1  0  -0.053856  0  3.772042  0  0  -0.074765  0  4.02271  0  0  -0.072073  0  4.04233  0  0.004715  0  -0.088184  -0.076253  0  4.009311  0
C  C107  1  0.49383461  0.10535807  0.92554528  1  0  -0.053933  0  3.771995  0  0  -0.074868  0  4.022653  0  0  -0.072177  0  4.042273  0  0.00457  0  -0.088204  -0.076346  0  4.009269  0
C  C108  1  0.50616520  0.10535807  0.42554645  1  0  -0.053908  0  3.771928  0  0  -0.074836  0  4.022594  0  0  -0.072145  0  4.042214  0  0.004867  0  -0.088199  -0.076329  0  4.009196  0
C  C109  1  0.50616265  0.89464268  0.07445325  1  0  -0.053905  0  3.772073  0  0  -0.074825  0  4.022725  0  0  -0.072133  0  4.042344  0  0.00513  0  -0.088195  -0.076304  0  4.009341  0
C  C110  1  0.36463081  0.81878493  0.54422581  1  0  -0.220744  0  3.766739  0  0  -0.240524  0  4.023494  0  0  -0.247447  0  4.042125  0  -0.052217  0  -0.112889  -0.235977  0  4.010958  0
C  C111  1  0.36462954  0.18121406  0.95577084  1  0  -0.2207  0  3.766542  0  0  -0.240474  0  4.023281  0  0  -0.247396  0  4.041916  0  -0.052021  0  -0.112906  -0.235928  0  4.010746  0
C  C112  1  0.63536773  0.18121494  0.45577325  1  0  -0.220692  0  3.766648  0  0  -0.240474  0  4.023393  0  0  -0.247395  0  4.042025  0  -0.052235  0  -0.112889  -0.235928  0  4.010859  0
C  C113  1  0.63536900  0.81878669  0.04422594  1  0  -0.220636  0  3.76656  0  0  -0.2404  0  4.023314  0  0  -0.247321  0  4.041946  0  -0.052104  0  -0.112816  -0.235854  0  4.010778  0
C  C114  1  0.38878411  0.69717012  0.54300845  1  0  0.269087  0  3.832738  0  0  0.257777  0  4.093185  0  0  0.271009  0  4.107678  0  0.383009  0  0.080906  0.248778  0  4.083253  0
C  C115  1  0.38878156  0.30282975  0.95699061  1  0  0.269132  0  3.83271  0  0  0.257842  0  4.093141  0  0  0.271076  0  4.107632  0  0.382957  0  0.080945  0.248844  0  4.08321  0
C  C116  1  0.61121953  0.30282887  0.45699230  1  0  0.269021  0  3.832907  0  0  0.257737  0  4.093319  0  0  0.27097  0  4.107812  0  0.382959  0  0.080875  0.248737  0  4.083388  0
C  C117  1  0.61121571  0.69717276  0.04300806  1  0  0.269022  0  3.832647  0  0  0.257674  0  4.09317  0  0  0.270906  0  4.107663  0  0.38297  0  0.080843  0.248676  0  4.083238  0
C  C118  1  0.10674256  0.65127438  0.49222314  1  0  0.09639  0  3.625446  0  0  0.032319  0  3.901099  0  0  0.040405  0  3.907856  0  0.410182  0  -0.065913  0.026902  0  3.896221  0
C  C119  1  0.10674384  0.34872549  0.00777708  1  0  0.096382  0  3.625435  0  0  0.032358  0  3.901076  0  0  0.040435  0  3.907848  0  0.410196  0  -0.065908  0.026942  0  3.8962  0
C  C120  1  0.89325597  0.34872549  0.50777767  1  0  0.09635  0  3.625443  0  0  0.032258  0  3.90118  0  0  0.040351  0  3.907927  0  0.41019  0  -0.065938  0.026839  0  3.896303  0
C  C121  1  0.89325597  0.65127438  0.99222255  1  0  0.096374  0  3.625499  0  0  0.032321  0  3.901141  0  0  0.040407  0  3.907897  0  0.410163  0  -0.06591  0.026905  0  3.896265  0
C  C122  1  0.00524844  0.54090289  0.46759178  1  0  -0.135321  0  3.699838  0  0  -0.178703  0  3.966618  0  0  -0.179772  0  3.979451  0  -0.001426  0  -0.167576  -0.177834  0  3.957664  0
C  C123  1  0.00524717  0.45909611  0.03240897  1  0  -0.135306  0  3.699867  0  0  -0.178786  0  3.966709  0  0  -0.179854  0  3.979548  0  -0.001472  0  -0.167563  -0.177916  0  3.957755  0
C  C124  1  0.99475265  0.45909523  0.53240949  1  0  -0.135194  0  3.699854  0  0  -0.178688  0  3.966719  0  0  -0.179761  0  3.979555  0  0.031125  0  -0.16756  -0.17782  0  3.957766  0
C  C125  1  0.99475010  0.54090465  0.96759074  1  0  -0.135228  0  3.699835  0  0  -0.178618  0  3.966597  0  0  -0.179686  0  3.979429  0  0.031214  0  -0.1675  -0.17775  0  3.957645  0
N  N126  1  0.19144882  0.09931424  0.69324713  1  0  -0.3796  0  3.316616  0  0  -0.298539  0  3.615567  0  0  -0.317808  0  3.626696  0  -1.232313  0  -0.357826  -0.285528  0  3.607846  0
N  N127  1  0.19145265  0.90068651  0.80675316  1  0  -0.379589  0  3.316646  0  0  -0.298527  0  3.615607  0  0  -0.317793  0  3.626733  0  -1.232446  0  -0.357847  -0.285517  0  3.607886  0
N  N128  1  0.80855227  0.90068475  0.30675244  1  0  -0.379591  0  3.31663  0  0  -0.298548  0  3.615603  0  0  -0.317814  0  3.626731  0  -1.232508  0  -0.357841  -0.285537  0  3.607881  0
N  N129  1  0.80854972  0.09931512  0.19324837  1  0  -0.379692  0  3.316668  0  0  -0.298632  0  3.615636  0  0  -0.317898  0  3.626758  0  -1.232318  0  -0.357877  -0.28562  0  3.607915  0
N  N130  1  0.41762183  0.20122472  0.66575820  1  0  -0.049182  0  3.595106  0  0  0.043336  0  3.812836  0  0  0.029135  0  3.838111  0  -1.233128  0  -0.23966  0.052677  0  3.795644  0
N  N131  1  0.41762183  0.79877340  0.83424189  1  0  -0.049228  0  3.595067  0  0  0.043289  0  3.812799  0  0  0.029088  0  3.838071  0  -1.233083  0  -0.239648  0.05263  0  3.795609  0
N  N132  1  0.58237799  0.79877516  0.33424202  1  0  -0.049206  0  3.595083  0  0  0.043314  0  3.81281  0  0  0.029113  0  3.838085  0  -1.233073  0  -0.239651  0.052654  0  3.795618  0
N  N133  1  0.58237671  0.20122647  0.16575950  1  0  -0.049213  0  3.595348  0  0  0.043293  0  3.813055  0  0  0.029091  0  3.838332  0  -1.233151  0  -0.239682  0.052636  0  3.795862  0
O  O134  1  0.89234487  0.88746398  0.68202465  1  0  -0.666222  0  2.037036  0  0  -0.594499  0  2.307851  0  0  -0.622012  0  2.290244  0  -1.174293  0  -0.351412  -0.575228  0  2.319294  0
O  O135  1  0.89234997  0.11253238  0.81797473  1  0  -0.666178  0  2.037187  0  0  -0.594455  0  2.308001  0  0  -0.621965  0  2.290393  0  -1.174199  0  -0.351407  -0.575185  0  2.319443  0
O  O136  1  0.10764857  0.11253677  0.31797739  1  0  -0.666246  0  2.036973  0  0  -0.594529  0  2.307782  0  0  -0.622042  0  2.290173  0  -1.1742  0  -0.35143  -0.575258  0  2.319226  0
O  O137  1  0.10765495  0.88746837  0.18202439  1  0  -0.66621  0  2.037133  0  0  -0.594495  0  2.307948  0  0  -0.622008  0  2.290339  0  -1.174112  0  -0.351382  -0.575224  0  2.319388  0
O  O138  1  0.78112843  0.03908743  0.62411085  1  0  -0.624896  0  1.916325  0  0  -0.582787  0  2.141775  0  0  -0.604779  0  2.133013  0  -1.194788  0  -0.332037  -0.567464  0  2.147336  0
O  O139  1  0.78112843  0.96090805  0.87588963  1  0  -0.624974  0  1.916188  0  0  -0.582861  0  2.141641  0  0  -0.604855  0  2.132881  0  -1.194821  0  -0.332094  -0.567536  0  2.147196  0
O  O140  1  0.21886628  0.96090981  0.37589035  1  0  -0.624942  0  1.916242  0  0  -0.582846  0  2.141696  0  0  -0.604838  0  2.132934  0  -1.194798  0  -0.332046  -0.56752  0  2.147257  0
O  O141  1  0.21887266  0.03909446  0.12410961  1  0  -0.624993  0  1.916193  0  0  -0.5829  0  2.14165  0  0  -0.604896  0  2.132892  0  -1.194907  0  -0.332099  -0.567574  0  2.147206  0
O  O142  1  0.27519930  0.61434960  0.51230658  1  0  -0.293323  0  2.33384  0  0  -0.216311  0  2.569531  0  0  -0.235288  0  2.572307  0  -1.082211  0  -0.18163  -0.202879  0  2.567054  0
O  O143  1  0.27520185  0.38564940  0.98769182  1  0  -0.293335  0  2.333878  0  0  -0.216335  0  2.569547  0  0  -0.235308  0  2.572326  0  -1.082215  0  -0.181646  -0.202904  0  2.567072  0
O  O144  1  0.72479924  0.38565028  0.48769306  1  0  -0.29331  0  2.333937  0  0  -0.216273  0  2.569588  0  0  -0.235251  0  2.572363  0  -1.082235  0  -0.181613  -0.202835  0  2.567106  0
O  O145  1  0.72479924  0.61435135  0.01230671  1  0  -0.293312  0  2.333818  0  0  -0.216284  0  2.569512  0  0  -0.23526  0  2.572288  0  -1.08218  0  -0.181625  -0.202851  0  2.567034  0
