# generated using pymatgen
data_ZnH18C27(NO4)2
_symmetry_space_group_name_H-M   'P 1'
_cell_length_a   9.81683858
_cell_length_b   10.02676111
_cell_length_c   14.01840000
_cell_angle_alpha   96.29532192
_cell_angle_beta   107.00414512
_cell_angle_gamma   110.52662541
_symmetry_Int_Tables_number   1
_chemical_formula_structural   ZnH18C27(NO4)2
_chemical_formula_sum   'Zn2 H36 C54 N4 O16'
_cell_volume   1200.55849830
_cell_formula_units_Z   2
loop_
 _symmetry_equiv_pos_site_id
 _symmetry_equiv_pos_as_xyz
  1  'x, y, z'
loop_
 _atom_site_type_symbol
 _atom_site_label
 _atom_site_symmetry_multiplicity
 _atom_site_fract_x
 _atom_site_fract_y
 _atom_site_fract_z
 _atom_site_occupancy
 _atom_site_hle17_bader_spin_density
 _atom_site_hle17_ddec_charge
 _atom_site_hle17_ddec_spin_density
 _atom_site_hle17_ddec_sum_bond_order
 _atom_site_hle17_magmom
 _atom_site_hse06_10hf_bader_spin_density
 _atom_site_hse06_10hf_ddec_charge
 _atom_site_hse06_10hf_ddec_spin_density
 _atom_site_hse06_10hf_ddec_sum_bond_order
 _atom_site_hse06_10hf_magmom
 _atom_site_hse06_bader_spin_density
 _atom_site_hse06_ddec_charge
 _atom_site_hse06_ddec_spin_density
 _atom_site_hse06_ddec_sum_bond_order
 _atom_site_hse06_magmom
 _atom_site_pbe_bader_charge
 _atom_site_pbe_bader_spin_density
 _atom_site_pbe_cm5_charge
 _atom_site_pbe_ddec_charge
 _atom_site_pbe_ddec_spin_density
 _atom_site_pbe_ddec_sum_bond_order
 _atom_site_pbe_magmom
Zn  Zn0  1  0.99247706  0.34813894  0.16169354  1  0  1.040209  0  1.787411  0  0  0.857387  0  2.237358  0  0  0.90749  0  2.181604  0  1.304862  0  0.674138  0.821123  0  2.276134  0
Zn  Zn1  1  0.00752459  0.65186482  0.83830574  1  0  1.040157  0  1.787496  0  0  0.857355  0  2.237418  0  0  0.907457  0  2.181659  0  1.305003  0  0.674104  0.82109  0  2.276195  0
H  H2  1  0.63452626  0.51239286  0.74230904  1  0  0.119384  0  0.944882  0  0  0.127232  0  1.007273  0  0  0.13096  0  1.003941  0  0.1494  0  0.113902  0.124403  0  1.009912  0
H  H3  1  0.36546818  0.48760652  0.25769269  1  0  0.119431  0  0.944782  0  0  0.127282  0  1.007169  0  0  0.131012  0  1.003836  0  0.149402  0  0.113892  0.124451  0  1.009811  0
H  H4  1  0.17438745  0.22292472  0.71972889  1  0  0.107249  0  0.962982  0  0  0.113728  0  1.029558  0  0  0.116273  0  1.028048  0  0.109275  0  0.106992  0.112042  0  1.030346  0
H  H5  1  0.82560486  0.77707466  0.28026813  1  0  0.107316  0  0.962976  0  0  0.113741  0  1.029601  0  0  0.116293  0  1.02809  0  0.108871  0  0.107007  0.112056  0  1.030389  0
H  H6  1  0.10693672  0.13176158  0.53225947  1  0  0.114159  0  0.941535  0  0  0.125953  0  0.997006  0  0  0.129128  0  0.996385  0  0.083874  0  0.107975  0.123631  0  0.997649  0
H  H7  1  0.89305513  0.86823670  0.46773666  1  0  0.114199  0  0.941555  0  0  0.125978  0  0.997031  0  0  0.129154  0  0.996408  0  0.083993  0  0.107968  0.123643  0  0.99769  0
H  H8  1  0.56630004  0.42317101  0.55676909  1  0  0.122352  0  0.930351  0  0  0.133974  0  0.987452  0  0  0.137448  0  0.985994  0  0.116752  0  0.11133  0.131387  0  0.98886  0
H  H9  1  0.43369866  0.57682836  0.44323423  1  0  0.12228  0  0.930435  0  0  0.133927  0  0.987519  0  0  0.137406  0  0.98606  0  0.116672  0  0.111319  0.131341  0  0.988926  0
H  H10  1  0.98107978  0.83520396  0.16220513  1  0  0.115219  0  0.943338  0  0  0.121918  0  1.009604  0  0  0.126606  0  1.005047  0  0.121648  0  0.111195  0.118459  0  1.013058  0
H  H11  1  0.01892838  0.16479761  0.83779389  1  0  0.115155  0  0.943432  0  0  0.121879  0  1.009683  0  0  0.126565  0  1.00513  0  0.121613  0  0.111191  0.118432  0  1.013123  0
H  H12  1  0.39505666  0.03810248  0.50718333  1  0  0.108113  0  0.963011  0  0  0.119436  0  1.021827  0  0  0.122438  0  1.021609  0  0.071651  0  0.102095  0.11719  0  1.022263  0
H  H13  1  0.60494511  0.96189909  0.49281865  1  0  0.108152  0  0.962985  0  0  0.119472  0  1.021807  0  0  0.122473  0  1.021588  0  0.071703  0  0.102121  0.117225  0  1.022244  0
H  H14  1  0.31134221  0.77813026  0.41511606  1  0  0.094162  0  0.964664  0  0  0.100952  0  1.034083  0  0  0.104368  0  1.03129  0  0.079321  0  0.100172  0.098688  0  1.035736  0
H  H15  1  0.68866203  0.22187460  0.58488597  1  0  0.09415  0  0.964647  0  0  0.100947  0  1.034068  0  0  0.104364  0  1.031273  0  0.079303  0  0.100163  0.098682  0  1.035722  0
H  H16  1  0.99654897  0.40597338  0.39593973  1  0  0.08089  0  0.927502  0  0  0.090318  0  0.988326  0  0  0.093195  0  0.985533  0  0.0906  0  0.118849  0.087913  0  0.990801  0
H  H17  1  0.00345101  0.59403148  0.60406000  1  0  0.080968  0  0.927501  0  0  0.090379  0  0.988331  0  0  0.093255  0  0.985539  0  0.090598  0  0.118872  0.087975  0  0.990805  0
H  H18  1  0.79525936  0.37820877  0.47895224  1  0  0.102443  0  0.956679  0  0  0.113073  0  1.01642  0  0  0.116281  0  1.015233  0  0.093451  0  0.106523  0.11065  0  1.017494  0
H  H19  1  0.20473840  0.62178841  0.52104430  1  0  0.102548  0  0.956628  0  0  0.11317  0  1.016361  0  0  0.116387  0  1.015159  0  0.09357  0  0.106577  0.110746  0  1.017435  0
H  H20  1  0.51370807  0.28346009  0.36576578  1  0  0.104907  0  0.958972  0  0  0.112752  0  1.024066  0  0  0.115885  0  1.021971  0  0.107835  0  0.108216  0.110527  0  1.02536  0
H  H21  1  0.48628995  0.71653271  0.63423190  1  0  0.10491  0  0.958938  0  0  0.112763  0  1.024026  0  0  0.1159  0  1.021925  0  0.107675  0  0.108232  0.110538  0  1.02532  0
H  H22  1  0.31269138  0.18935267  0.18562713  1  0  0.110691  0  0.965772  0  0  0.118787  0  1.029246  0  0  0.121461  0  1.029181  0  0.104118  0  0.104865  0.117506  0  1.028549  0
H  H23  1  0.68730826  0.81064890  0.81437085  1  0  0.110659  0  0.965834  0  0  0.118793  0  1.029279  0  0  0.121434  0  1.029253  0  0.104046  0  0.104872  0.117512  0  1.028583  0
H  H24  1  0.25137354  0.11160760  0.99769968  1  0  0.120078  0  0.932293  0  0  0.132479  0  0.986587  0  0  0.135625  0  0.985096  0  0.120866  0  0.112545  0.130289  0  0.987484  0
H  H25  1  0.74862990  0.88839287  0.00230042  1  0  0.120094  0  0.932247  0  0  0.1325  0  0.986533  0  0  0.135643  0  0.985046  0  0.120843  0  0.112552  0.130308  0  0.987431  0
H  H26  1  0.34130078  0.07980365  0.85137555  1  0  0.12736  0  0.961824  0  0  0.137406  0  1.023063  0  0  0.14125  0  1.019481  0  0.181753  0  0.112435  0.134668  0  1.025414  0
H  H27  1  0.65870138  0.92019134  0.14862172  1  0  0.127356  0  0.961887  0  0  0.137393  0  1.023126  0  0  0.141238  0  1.019543  0  0.181617  0  0.112428  0.134651  0  1.025474  0
H  H28  1  0.56783605  0.11372319  0.79081308  1  0  0.102842  0  0.939921  0  0  0.116729  0  0.992242  0  0  0.118997  0  0.99348  0  0.102922  0  0.107775  0.114998  0  0.991834  0
H  H29  1  0.43216811  0.88627400  0.20918834  1  0  0.102864  0  0.939909  0  0  0.116741  0  0.992223  0  0  0.119005  0  0.993472  0  0.102968  0  0.107785  0.115  0  0.991827  0
H  H30  1  0.83676233  0.21925259  0.92037863  1  0  0.076852  0  0.970514  0  0  0.08661  0  1.034288  0  0  0.087916  0  1.033466  0  0.113413  0  0.11861  0.085533  0  1.034964  0
H  H31  1  0.16324003  0.78074788  0.07962268  1  0  0.076924  0  0.97042  0  0  0.086665  0  1.034214  0  0  0.087972  0  1.03339  0  0.113107  0  0.118653  0.085589  0  1.034888  0
H  H32  1  0.21645203  0.40899330  0.07743569  1  0  0.430299  0  0.864682  0  0  0.40142  0  0.923985  0  0  0.411973  0  0.908542  0  0.622071  0  0.298142  0.394015  0  0.934835  0
H  H33  1  0.78354360  0.59100389  0.92256398  1  0  0.430283  0  0.864699  0  0  0.401387  0  0.924027  0  0  0.411939  0  0.90859  0  0.622037  0  0.298123  0.393982  0  0.934878  0
H  H34  1  0.06670765  0.38236760  0.98316552  1  0  0.437631  0  0.860123  0  0  0.406892  0  0.923415  0  0  0.417807  0  0.907426  0  0.65895  0  0.293235  0.399014  0  0.934922  0
H  H35  1  0.93329259  0.61763288  0.01683464  1  0  0.437687  0  0.86004  0  0  0.406958  0  0.923314  0  0  0.417873  0  0.907326  0  0.65905  0  0.293268  0.399081  0  0.934819  0
H  H36  1  0.36846594  0.43147113  0.96467332  1  0  0.399382  0  0.878694  0  0  0.366847  0  0.958245  0  0  0.379913  0  0.944051  0  0.64001  0  0.309418  0.357766  0  0.968018  0
H  H37  1  0.63151423  0.56851729  0.03532535  1  0  0.399418  0  0.878611  0  0  0.366896  0  0.958109  0  0  0.379966  0  0.943907  0  0.640013  0  0.309447  0.357814  0  0.967882  0
C  C38  1  0.44981090  0.42717747  0.85503370  1  0  0.666727  0  3.799415  0  0  0.608544  0  4.105709  0  0  0.643185  0  4.097266  0  1.479248  0  0.240506  0.584292  0  4.112839  0
C  C39  1  0.55019407  0.57282410  0.14497250  1  0  0.666577  0  3.799167  0  0  0.608402  0  4.105454  0  0  0.643035  0  4.097034  0  1.479226  0  0.240464  0.584168  0  4.112561  0
C  C40  1  0.40890497  0.37318179  0.74395106  1  0  -0.11733  0  3.797527  0  0  -0.098461  0  4.040067  0  0  -0.110762  0  4.065614  0  0.046021  0  -0.027957  -0.090008  0  4.022781  0
C  C41  1  0.59108922  0.62682198  0.25605240  1  0  -0.117362  0  3.797785  0  0  -0.098511  0  4.040308  0  0  -0.110811  0  4.065867  0  0.045882  0  -0.027942  -0.090064  0  4.023019  0
C  C42  1  0.51887203  0.42918454  0.69760350  1  0  -0.015337  0  3.700739  0  0  -0.043562  0  3.9563  0  0  -0.039095  0  3.973959  0  -0.096956  0  -0.06967  -0.046284  0  3.944028  0
C  C43  1  0.48112536  0.57081922  0.30240061  1  0  -0.015339  0  3.700734  0  0  -0.043567  0  3.956295  0  0  -0.039101  0  3.973961  0  -0.097062  0  -0.069616  -0.046289  0  3.944025  0
C  C44  1  0.25996849  0.26599171  0.68388961  1  0  -0.021341  0  3.71182  0  0  -0.043987  0  3.955771  0  0  -0.039957  0  3.975353  0  -0.054562  0  -0.072377  -0.046665  0  3.942361  0
C  C45  1  0.74002996  0.73401206  0.31610901  1  0  -0.021309  0  3.711793  0  0  -0.043923  0  3.955738  0  0  -0.039899  0  3.975324  0  -0.053898  0  -0.072384  -0.046602  0  3.942328  0
C  C46  1  0.22224557  0.21430891  0.57947041  1  0  -0.195076  0  3.755434  0  0  -0.213752  0  4.003649  0  0  -0.221827  0  4.024449  0  -0.011114  0  -0.102202  -0.208571  0  3.990101  0
C  C47  1  0.77774781  0.78569046  0.42052826  1  0  -0.195152  0  3.755505  0  0  -0.213825  0  4.003681  0  0  -0.221899  0  4.024479  0  -0.01134  0  -0.102198  -0.208632  0  3.990138  0
C  C48  1  0.48111334  0.37926218  0.59284139  1  0  -0.175573  0  3.718443  0  0  -0.200504  0  3.98194  0  0  -0.20746  0  4.000609  0  0.064976  0  -0.093776  -0.196194  0  3.969657  0
C  C49  1  0.51888110  0.62073720  0.40716178  1  0  -0.17549  0  3.718415  0  0  -0.200461  0  3.981911  0  0  -0.207419  0  4.000578  0  0.065047  0  -0.093806  -0.196151  0  3.969627  0
C  C50  1  0.33345183  0.27156348  0.53434082  1  0  0.282986  0  3.797849  0  0  0.272316  0  4.062064  0  0  0.284132  0  4.078227  0  0.363139  0  0.09321  0.264197  0  4.051309  0
C  C51  1  0.66654628  0.72843699  0.46565605  1  0  0.28301  0  3.797751  0  0  0.27239  0  4.061914  0  0  0.284206  0  4.078074  0  0.363107  0  0.093276  0.264275  0  4.051151  0
C  C52  1  0.03846324  0.11263580  0.23070117  1  0  0.652571  0  3.940466  0  0  0.603953  0  4.23586  0  0  0.638673  0  4.227207  0  1.624846  0  0.197702  0.580359  0  4.240456  0
C  C53  1  0.96154185  0.88736358  0.76929847  1  0  0.652616  0  3.940511  0  0  0.603966  0  4.235935  0  0  0.638685  0  4.227287  0  1.624472  0  0.197773  0.58036  0  4.240523  0
C  C54  1  0.12237800  0.02697537  0.28527484  1  0  -0.152654  0  3.725094  0  0  -0.136363  0  3.967402  0  0  -0.145916  0  3.986654  0  0.011523  0  -0.022471  -0.130452  0  3.954782  0
C  C55  1  0.87762837  0.97302949  0.71472621  1  0  -0.152852  0  3.725285  0  0  -0.136518  0  3.967571  0  0  -0.14607  0  3.98682  0  0.011507  0  -0.022503  -0.130557  0  3.954883  0
C  C56  1  0.24021506  0.08273916  0.38287815  1  0  0.266908  0  3.75459  0  0  0.246951  0  4.022705  0  0  0.260056  0  4.03704  0  0.390986  0  0.091103  0.23835  0  4.012515  0
C  C57  1  0.75979143  0.91726350  0.61712346  1  0  0.267019  0  3.754592  0  0  0.247092  0  4.022662  0  0  0.260198  0  4.036998  0  0.390994  0  0.091134  0.238481  0  4.012456  0
C  C58  1  0.07559647  0.88045230  0.23652721  1  0  -0.061822  0  3.719765  0  0  -0.094326  0  3.968397  0  0  -0.09079  0  3.985304  0  -0.026428  0  -0.074765  -0.096392  0  3.957774  0
C  C59  1  0.92441250  0.11955366  0.76347159  1  0  -0.061626  0  3.719868  0  0  -0.094189  0  3.968502  0  0  -0.090644  0  3.985418  0  -0.026096  0  -0.074791  -0.096278  0  3.957858  0
C  C60  1  0.30616821  0.99284475  0.43054632  1  0  -0.209268  0  3.787486  0  0  -0.227976  0  4.042279  0  0  -0.235375  0  4.062303  0  -7.7e-05  0  -0.110311  -0.222945  0  4.028273  0
C  C61  1  0.69383449  0.00715901  0.56945603  1  0  -0.209356  0  3.787426  0  0  -0.228066  0  4.042229  0  0  -0.235465  0  4.062251  0  0.000121  0  -0.110341  -0.223036  0  4.028224  0
C  C62  1  0.25925794  0.84839842  0.37956789  1  0  -0.048144  0  3.762697  0  0  -0.072484  0  4.013456  0  0  -0.068398  0  4.030774  0  -0.047237  0  -0.086958  -0.07438  0  4.000804  0
C  C63  1  0.74074583  0.15160534  0.62043324  1  0  -0.048064  0  3.76276  0  0  -0.072425  0  4.013494  0  0  -0.068327  0  4.03082  0  -0.047498  0  -0.086954  -0.074321  0  4.000843  0
C  C64  1  0.14373025  0.79070320  0.28116608  1  0  -0.084935  0  3.781583  0  0  -0.064867  0  4.02099  0  0  -0.074213  0  4.043494  0  -0.059491  0  -0.029625  -0.059186  0  4.00595  0
C  C65  1  0.85627459  0.20930056  0.71883599  1  0  -0.085069  0  3.781725  0  0  -0.064938  0  4.021088  0  0  -0.074317  0  4.043629  0  -0.059491  0  -0.029588  -0.059259  0  4.006055  0
C  C66  1  0.08877901  0.63443809  0.22627360  1  0  0.627567  0  3.936549  0  0  0.579504  0  4.227067  0  0  0.613156  0  4.221263  0  1.57374  0  0.194411  0.55687  0  4.229826  0
C  C67  1  0.91122204  0.36556677  0.77372635  1  0  0.627672  0  3.936562  0  0  0.579575  0  4.227084  0  0  0.613236  0  4.221284  0  1.573735  0  0.194458  0.556941  0  4.229846  0
C  C68  1  0.87272369  0.36315193  0.34996845  1  0  0.150479  0  3.692891  0  0  0.119271  0  3.944009  0  0  0.127259  0  3.960674  0  0.506475  0  0.059632  0.11393  0  3.932877  0
C  C69  1  0.12727701  0.63684964  0.65002904  1  0  0.150358  0  3.693018  0  0  0.119171  0  3.944138  0  0  0.127158  0  3.960805  0  0.506105  0  0.059585  0.113829  0  3.933006  0
C  C70  1  0.75948154  0.34760621  0.39556618  1  0  -0.133742  0  3.751318  0  0  -0.145439  0  4.001633  0  0  -0.153061  0  4.024148  0  -0.033548  0  -0.087277  -0.140497  0  3.986759  0
C  C71  1  0.24051869  0.65239426  0.60443183  1  0  -0.133802  0  3.751458  0  0  -0.145492  0  4.001781  0  0  -0.153121  0  4.024296  0  -0.033333  0  -0.087302  -0.140552  0  3.986908  0
C  C72  1  0.60433320  0.29409612  0.33334301  1  0  -0.048743  0  3.690302  0  0  -0.071489  0  3.936985  0  0  -0.069472  0  3.956383  0  -0.057045  0  -0.066172  -0.072548  0  3.923648  0
C  C73  1  0.39566490  0.70590435  0.66665457  1  0  -0.048767  0  3.690442  0  0  -0.071513  0  3.937133  0  0  -0.069497  0  3.956533  0  -0.056968  0  -0.066213  -0.072569  0  3.923794  0
C  C74  1  0.56212210  0.25361169  0.22555091  1  0  0.025345  0  3.787883  0  0  0.040293  0  4.02066  0  0  0.0378  0  4.045557  0  -0.050795  0  -0.002969  0.041844  0  4.004302  0
C  C75  1  0.43787920  0.74638879  0.77444661  1  0  0.025326  0  3.78786  0  0  0.040242  0  4.02065  0  0  0.037747  0  4.045542  0  -0.050559  0  -0.002998  0.041791  0  4.004292  0
C  C76  1  0.68468862  0.27187479  0.18712991  1  0  0.137753  0  3.746223  0  0  0.130841  0  3.982878  0  0  0.135086  0  4.004118  0  0.501552  0  0.122337  0.12776  0  3.968898  0
C  C77  1  0.31531341  0.72812240  0.81287035  1  0  0.137725  0  3.746207  0  0  0.130909  0  3.982796  0  0  0.135155  0  4.004035  0  0.501538  0  0.122325  0.127827  0  3.968816  0
C  C78  1  0.40483120  0.19694576  0.15516484  1  0  -0.104623  0  3.719963  0  0  -0.126148  0  3.977082  0  0  -0.130499  0  4.00065  0  0.086018  0  -0.086149  -0.123828  0  3.961884  0
C  C79  1  0.59517402  0.80305143  0.84483465  1  0  -0.104557  0  3.719902  0  0  -0.126117  0  3.97701  0  0  -0.130441  0  4.000593  0  0.085822  0  -0.086133  -0.123797  0  3.961813  0
C  C80  1  0.37098869  0.15610288  0.05176488  1  0  -0.079647  0  3.700927  0  0  -0.104086  0  3.955595  0  0  -0.106047  0  3.97689  0  -0.153303  0  -0.077811  -0.102455  0  3.941804  0
C  C81  1  0.62901240  0.84389211  0.94823431  1  0  -0.079666  0  3.700776  0  0  -0.104105  0  3.95546  0  0  -0.106064  0  3.976744  0  -0.153206  0  -0.077822  -0.102472  0  3.94167  0
C  C82  1  0.64908697  0.22988204  0.07828822  1  0  0.138158  0  3.741794  0  0  0.128918  0  3.980276  0  0  0.133641  0  4.001447  0  0.509567  0  0.121986  0.125807  0  3.965965  0
C  C83  1  0.35091599  0.77011734  0.92171170  1  0  0.138093  0  3.741888  0  0  0.128757  0  3.980422  0  0  0.13348  0  4.001592  0  0.509537  0  0.121911  0.125647  0  3.966113  0
C  C84  1  0.49180750  0.17030471  0.01078706  1  0  0.023861  0  3.772376  0  0  0.039594  0  4.008959  0  0  0.036995  0  4.032948  0  -0.001808  0  -0.002556  0.041202  0  3.993033  0
C  C85  1  0.50819026  0.82969247  0.98921090  1  0  0.023938  0  3.772428  0  0  0.039667  0  4.009021  0  0  0.037065  0  4.033013  0  -0.001861  0  -0.00253  0.04127  0  3.993101  0
C  C86  1  0.46173372  0.12750300  0.90450702  1  0  -0.046147  0  3.655535  0  0  -0.076898  0  3.911388  0  0  -0.073673  0  3.927793  0  -0.095344  0  -0.064442  -0.078742  0  3.900865  0
C  C87  1  0.53826771  0.87249528  0.09549179  1  0  -0.046291  0  3.655664  0  0  -0.077011  0  3.911474  0  0  -0.073782  0  3.927877  0  -0.095216  0  -0.064484  -0.078844  0  3.900941  0
C  C88  1  0.58545799  0.14558633  0.87178753  1  0  -0.116942  0  3.740231  0  0  -0.130876  0  3.99828  0  0  -0.13862  0  4.020631  0  0.032272  0  -0.08421  -0.126194  0  3.984459  0
C  C89  1  0.41454216  0.85440647  0.12821272  1  0  -0.116869  0  3.740159  0  0  -0.130792  0  3.998201  0  0  -0.13854  0  4.020549  0  0.032287  0  -0.084129  -0.126104  0  3.984381  0
C  C90  1  0.73775740  0.20551224  0.94429256  1  0  0.160383  0  3.66873  0  0  0.127352  0  3.919018  0  0  0.136517  0  3.935957  0  0.479152  0  0.063077  0.121481  0  3.907638  0
C  C91  1  0.26224275  0.79448056  0.05570769  1  0  0.160395  0  3.668544  0  0  0.127331  0  3.918856  0  0  0.136496  0  3.935792  0  0.479476  0  0.062975  0.121459  0  3.907474  0
N  N92  1  0.76911445  0.24729891  0.04441984  1  0  -0.338475  0  3.269054  0  0  -0.265582  0  3.537745  0  0  -0.283842  0  3.55171  0  -1.238198  0  -0.314348  -0.252992  0  3.527434  0
N  N93  1  0.23088711  0.75269718  0.95557953  1  0  -0.338513  0  3.269009  0  0  -0.265521  0  3.537641  0  0  -0.283778  0  3.551603  0  -1.238232  0  -0.314266  -0.252928  0  3.527328  0
N  N94  1  0.83604159  0.32710694  0.24894986  1  0  -0.32974  0  3.269436  0  0  -0.261891  0  3.53094  0  0  -0.278887  0  3.54715  0  -1.199245  0  -0.306308  -0.250734  0  3.519755  0
N  N95  1  0.16396078  0.67289353  0.75104859  1  0  -0.329681  0  3.26942  0  0  -0.26187  0  3.530912  0  0  -0.278865  0  3.54712  0  -1.199166  0  -0.306248  -0.250711  0  3.519726  0
O  O96  1  0.14347749  0.55190939  0.27347039  1  0  -0.628198  0  1.991764  0  0  -0.568058  0  2.240504  0  0  -0.595897  0  2.231009  0  -1.165749  0  -0.320895  -0.547889  0  2.246733  0
O  O97  1  0.85652462  0.44809547  0.72653407  1  0  -0.628209  0  1.991855  0  0  -0.568087  0  2.240644  0  0  -0.595925  0  2.231147  0  -1.165818  0  -0.320912  -0.547919  0  2.246875  0
O  O98  1  0.98721395  0.58554940  0.13581792  1  0  -0.65308  0  2.01057  0  0  -0.595847  0  2.245547  0  0  -0.621758  0  2.23511  0  -1.20238  0  -0.323264  -0.576793  0  2.251448  0
O  O99  1  0.01278922  0.41445546  0.86418247  1  0  -0.65315  0  2.010522  0  0  -0.595902  0  2.24551  0  0  -0.621808  0  2.235061  0  -1.202428  0  -0.323317  -0.576848  0  2.251418  0
O  O100  1  0.89529066  0.04671938  0.18191642  1  0  -0.617755  0  1.932447  0  0  -0.57952  0  2.160339  0  0  -0.603558  0  2.152494  0  -1.194984  0  -0.322839  -0.561583  0  2.164354  0
O  O101  1  0.10471904  0.95328328  0.81808371  1  0  -0.617792  0  1.932417  0  0  -0.579531  0  2.160286  0  0  -0.603573  0  2.152443  0  -1.194874  0  -0.322882  -0.5616  0  2.164311  0
O  O102  1  0.12198102  0.24720354  0.23645569  1  0  -0.631972  0  2.034552  0  0  -0.562299  0  2.292907  0  0  -0.590842  0  2.27879  0  -1.163349  0  -0.32807  -0.541901  0  2.301776  0
O  O103  1  0.87802842  0.75280351  0.76354615  1  0  -0.631901  0  2.034648  0  0  -0.562282  0  2.293119  0  0  -0.590817  0  2.27899  0  -1.163109  0  -0.328077  -0.541887  0  2.301993  0
O  O104  1  0.29663817  0.23018677  0.42943522  1  0  -0.290254  0  2.362806  0  0  -0.224061  0  2.594179  0  0  -0.241744  0  2.594593  0  -1.099599  0  -0.149687  -0.21128  0  2.593278  0
O  O105  1  0.70336407  0.76981589  0.57056551  1  0  -0.290293  0  2.362684  0  0  -0.224156  0  2.594066  0  0  -0.241843  0  2.594482  0  -1.099731  0  -0.149749  -0.211379  0  2.593168  0
O  O106  1  0.58645700  0.50420675  0.91484302  1  0  -0.602155  0  2.066352  0  0  -0.540218  0  2.285485  0  0  -0.564945  0  2.278252  0  -1.186811  0  -0.278335  -0.523475  0  2.291856  0
O  O107  1  0.41352649  0.49577948  0.08515759  1  0  -0.602111  0  2.065804  0  0  -0.540247  0  2.284986  0  0  -0.564973  0  2.277766  0  -1.18675  0  -0.278399  -0.523508  0  2.291346  0
O  O108  1  0.10233852  0.35684683  0.05021964  1  0  -0.830898  0  1.8772  0  0  -0.771494  0  2.077408  0  0  -0.791546  0  2.041414  0  -1.254366  0  -0.584611  -0.757803  0  2.102712  0
O  O109  1  0.89765972  0.64315145  0.94977851  1  0  -0.830925  0  1.877146  0  0  -0.771527  0  2.07737  0  0  -0.791581  0  2.041372  0  -1.254411  0  -0.584602  -0.757835  0  2.102673  0
O  O110  1  0.33127887  0.38873738  0.88750812  1  0  -0.513116  0  2.11195  0  0  -0.461248  0  2.337168  0  0  -0.483335  0  2.323482  0  -1.149944  0  -0.312346  -0.446112  0  2.346796  0
O  O111  1  0.66871302  0.61125104  0.11249224  1  0  -0.513121  0  2.112201  0  0  -0.461142  0  2.337231  0  0  -0.483232  0  2.323554  0  -1.149847  0  -0.312267  -0.446014  0  2.34685  0
