# generated using pymatgen
data_ZnH21C25(NO2)5
_symmetry_space_group_name_H-M   'P 1'
_cell_length_a   10.27314423
_cell_length_b   12.70105189
_cell_length_c   13.26330000
_cell_angle_alpha   112.28751678
_cell_angle_beta   108.42700981
_cell_angle_gamma   90.16955711
_symmetry_Int_Tables_number   1
_chemical_formula_structural   ZnH21C25(NO2)5
_chemical_formula_sum   'Zn2 H42 C50 N10 O20'
_cell_volume   1504.25254774
_cell_formula_units_Z   2
loop_
 _symmetry_equiv_pos_site_id
 _symmetry_equiv_pos_as_xyz
  1  'x, y, z'
loop_
 _atom_site_type_symbol
 _atom_site_label
 _atom_site_symmetry_multiplicity
 _atom_site_fract_x
 _atom_site_fract_y
 _atom_site_fract_z
 _atom_site_occupancy
 _atom_site_hle17_bader_spin_density
 _atom_site_hle17_ddec_charge
 _atom_site_hle17_ddec_spin_density
 _atom_site_hle17_ddec_sum_bond_order
 _atom_site_hle17_magmom
 _atom_site_hse06_10hf_bader_spin_density
 _atom_site_hse06_10hf_ddec_charge
 _atom_site_hse06_10hf_ddec_spin_density
 _atom_site_hse06_10hf_ddec_sum_bond_order
 _atom_site_hse06_10hf_magmom
 _atom_site_hse06_bader_spin_density
 _atom_site_hse06_ddec_charge
 _atom_site_hse06_ddec_spin_density
 _atom_site_hse06_ddec_sum_bond_order
 _atom_site_hse06_magmom
 _atom_site_pbe_bader_charge
 _atom_site_pbe_bader_spin_density
 _atom_site_pbe_cm5_charge
 _atom_site_pbe_ddec_charge
 _atom_site_pbe_ddec_spin_density
 _atom_site_pbe_ddec_sum_bond_order
 _atom_site_pbe_magmom
Zn  Zn0  1  0.70815062  0.33922751  0.73055993  1  0  0.901241  0  1.876544  0  0  0.699397  0  2.316152  0  0  0.749689  0  2.269352  0  1.266822  0  0.676975  0.664158  0  2.348054  0
Zn  Zn1  1  0.29184826  0.66077196  0.26943546  1  0  0.901327  0  1.876444  0  0  0.699421  0  2.316078  0  0  0.749709  0  2.269294  0  1.266828  0  0.676989  0.664186  0  2.34797  0
H  H2  1  0.27509900  0.19049794  0.01217460  1  0  0.138305  0  0.973046  0  0  0.143408  0  1.04112  0  0  0.148058  0  1.037222  0  0.135508  0  0.11065  0.140099  0  1.04392  0
H  H3  1  0.72490310  0.80950239  0.98782490  1  0  0.13827  0  0.97302  0  0  0.14339  0  1.041062  0  0  0.148038  0  1.037165  0  0.135537  0  0.110639  0.140081  0  1.043862  0
H  H4  1  0.11496065  0.90425379  0.67620058  1  0  0.122628  0  0.937635  0  0  0.13064  0  0.999351  0  0  0.13562  0  0.995459  0  0.114008  0  0.106601  0.127006  0  1.002302  0
H  H5  1  0.88504013  0.09574482  0.32380477  1  0  0.122616  0  0.937607  0  0  0.13064  0  0.999319  0  0  0.135607  0  0.995444  0  0.11392  0  0.1066  0.127007  0  1.002269  0
H  H6  1  0.36187897  0.84996883  0.97785564  1  0  0.116368  0  0.964329  0  0  0.121417  0  1.037143  0  0  0.125333  0  1.034659  0  0.116419  0  0.105098  0.118581  0  1.039056  0
H  H7  1  0.63811726  0.15003322  0.02215285  1  0  0.116352  0  0.964235  0  0  0.121409  0  1.037058  0  0  0.125328  0  1.034572  0  0.116351  0  0.105093  0.118573  0  1.038968  0
H  H8  1  0.52838177  0.96450959  0.15475129  1  0  0.061436  0  0.945907  0  0  0.06997  0  1.021314  0  0  0.068908  0  1.024007  0  0.070206  0  0.101866  0.070761  0  1.019415  0
H  H9  1  0.47161255  0.03549332  0.84525101  1  0  0.061343  0  0.946056  0  0  0.069877  0  1.021455  0  0  0.068817  0  1.024149  0  0.070105  0  0.101833  0.070667  0  1.019559  0
H  H10  1  0.36598111  0.94677582  0.17467118  1  0  0.080774  0  0.939544  0  0  0.090395  0  1.007623  0  0  0.091223  0  1.006146  0  0.09657  0  0.107418  0.089777  0  1.00875  0
H  H11  1  0.63401732  0.05322709  0.82533741  1  0  0.080753  0  0.939509  0  0  0.090354  0  1.007619  0  0  0.091177  0  1.00615  0  0.096539  0  0.107403  0.089739  0  1.008742  0
H  H12  1  0.57448878  0.95038256  0.36587481  1  0  0.102235  0  0.969947  0  0  0.112205  0  1.030866  0  0  0.114653  0  1.032008  0  0.088862  0  0.103001  0.110483  0  1.030176  0
H  H13  1  0.42551492  0.04962121  0.63412709  1  0  0.102258  0  0.969885  0  0  0.11223  0  1.030816  0  0  0.114677  0  1.03196  0  0.088856  0  0.103003  0.110508  0  1.030126  0
H  H14  1  0.67570938  0.08088132  0.57525148  1  0  0.095808  0  0.961852  0  0  0.105815  0  1.022963  0  0  0.108593  0  1.019995  0  0.136554  0  0.118259  0.103813  0  1.025113  0
H  H15  1  0.32429212  0.91912159  0.42474957  1  0  0.095831  0  0.961902  0  0  0.10585  0  1.022986  0  0  0.108628  0  1.020016  0  0.136671  0  0.118261  0.103847  0  1.025136  0
H  H16  1  0.57076028  0.36706994  0.50532918  1  0  0.095392  0  0.935601  0  0  0.106484  0  0.99396  0  0  0.109441  0  0.99066  0  0.091333  0  0.121404  0.104317  0  0.996347  0
H  H17  1  0.42923711  0.63293898  0.49467681  1  0  0.095393  0  0.935637  0  0  0.106479  0  0.993977  0  0  0.109431  0  0.990696  0  0.091192  0  0.121394  0.104312  0  0.996364  0
H  H18  1  0.46644717  0.24898174  0.29305402  1  0  0.136125  0  0.969919  0  0  0.135184  0  1.043974  0  0  0.140482  0  1.03987  0  0.169227  0  0.111223  0.131333  0  1.047135  0
H  H19  1  0.53354980  0.75101859  0.70694724  1  0  0.136135  0  0.969914  0  0  0.135189  0  1.043975  0  0  0.140491  0  1.039863  0  0.16897  0  0.111224  0.131338  0  1.047136  0
H  H20  1  0.17085608  0.27999865  0.92650290  1  0  0.085438  0  0.936154  0  0  0.093103  0  1.003975  0  0  0.094881  0  1.001303  0  0.120295  0  0.109557  0.091797  0  1.005875  0
H  H21  1  0.82914103  0.72000254  0.07349117  1  0  0.085368  0  0.936152  0  0  0.093063  0  1.004  0  0  0.094841  0  1.001327  0  0.120162  0  0.109518  0.091757  0  1.005899  0
H  H22  1  0.07143740  0.27812868  0.78910119  1  0  0.080868  0  0.937372  0  0  0.090684  0  1.002544  0  0  0.090727  0  1.003795  0  0.106789  0  0.108433  0.090673  0  1.001613  0
H  H23  1  0.92855957  0.72186564  0.21089035  1  0  0.080849  0  0.937402  0  0  0.090723  0  1.002545  0  0  0.090767  0  1.003793  0  0.106792  0  0.108446  0.090713  0  1.001616  0
H  H24  1  0.42407079  0.33778723  0.99289124  1  0  0.123478  0  0.964286  0  0  0.125222  0  1.035737  0  0  0.129346  0  1.033535  0  0.134969  0  0.109646  0.122197  0  1.037588  0
H  H25  1  0.57592574  0.66221053  0.00710219  1  0  0.123525  0  0.964237  0  0  0.125263  0  1.035692  0  0  0.129384  0  1.033488  0  0.134848  0  0.109647  0.122238  0  1.037543  0
H  H26  1  0.63353069  0.37057012  0.94301925  1  0  0.087841  0  0.947099  0  0  0.09568  0  1.011068  0  0  0.098199  0  1.008905  0  0.109629  0  0.118985  0.093897  0  1.012485  0
H  H27  1  0.36646995  0.62942764  0.05697293  1  0  0.087761  0  0.947169  0  0  0.095617  0  1.011136  0  0  0.098124  0  1.008972  0  0.109656  0  0.118978  0.093833  0  1.012552  0
H  H28  1  0.40373399  0.24904963  0.59317679  1  0  0.080033  0  0.9439  0  0  0.090487  0  1.00113  0  0  0.092339  0  1.000463  0  0.108225  0  0.118965  0.089127  0  1.001738  0
H  H29  1  0.59626520  0.75093953  0.40681870  1  0  0.079931  0  0.943831  0  0  0.090411  0  1.00105  0  0  0.092262  0  1.000385  0  0.10831  0  0.118943  0.089051  0  1.001658  0
H  H30  1  0.18659710  0.20915638  0.62689221  1  0  0.116758  0  0.926982  0  0  0.130253  0  0.977845  0  0  0.133489  0  0.977101  0  0.098257  0  0.115794  0.127896  0  0.978542  0
H  H31  1  0.81340192  0.79084395  0.37310202  1  0  0.116821  0  0.927007  0  0  0.130295  0  0.977882  0  0  0.133533  0  0.977137  0  0.098321  0  0.115831  0.127945  0  0.97857  0
H  H32  1  0.35975964  0.52615653  0.77915743  1  0  0.083998  0  0.91564  0  0  0.096957  0  0.977284  0  0  0.097016  0  0.977866  0  0.088227  0  0.112051  0.096743  0  0.977294  0
H  H33  1  0.64024583  0.47384552  0.22085106  1  0  0.084086  0  0.915475  0  0  0.097058  0  0.977121  0  0  0.097118  0  0.977701  0  0.088448  0  0.112073  0.096845  0  0.977135  0
H  H34  1  0.27404641  0.54012028  0.64563076  1  0  0.085687  0  0.911799  0  0  0.097014  0  0.973441  0  0  0.098995  0  0.970489  0  0.084347  0  0.114441  0.09549  0  0.975817  0
H  H35  1  0.72595715  0.45988263  0.35437306  1  0  0.085661  0  0.911816  0  0  0.096982  0  0.973476  0  0  0.098962  0  0.970528  0  0.084292  0  0.11445  0.095477  0  0.975838  0
H  H36  1  0.16375548  0.60972679  0.90885648  1  0  0.118269  0  0.963092  0  0  0.122566  0  1.032121  0  0  0.126644  0  1.029642  0  0.129701  0  0.108009  0.11962  0  1.034049  0
H  H37  1  0.83624177  0.39028128  0.09114917  1  0  0.118271  0  0.963179  0  0  0.122606  0  1.032153  0  0  0.126681  0  1.029679  0  0.129286  0  0.107986  0.119661  0  1.034082  0
H  H38  1  0.94738574  0.51610201  0.89903469  1  0  0.098682  0  0.942602  0  0  0.106393  0  1.006138  0  0  0.109244  0  1.00297  0  0.142829  0  0.122274  0.10421  0  1.008656  0
H  H39  1  0.05260769  0.48390778  0.10096386  1  0  0.098821  0  0.942407  0  0  0.106429  0  1.006058  0  0  0.109287  0  1.00287  0  0.142804  0  0.122281  0.104246  0  1.008576  0
H  H40  1  0.85316976  0.30790295  0.54914903  1  0  0.083278  0  0.963511  0  0  0.089458  0  1.029688  0  0  0.091767  0  1.027968  0  0.108673  0  0.115167  0.08781  0  1.030885  0
H  H41  1  0.14684099  0.69209394  0.45085436  1  0  0.083261  0  0.963459  0  0  0.089472  0  1.029603  0  0  0.091783  0  1.027881  0  0.108603  0  0.115138  0.087824  0  1.0308  0
H  H42  1  0.06711831  0.39100314  0.54472560  1  0  0.123278  0  0.933506  0  0  0.134714  0  0.987309  0  0  0.138345  0  0.985972  0  0.104395  0  0.114429  0.132091  0  0.988495  0
H  H43  1  0.93289347  0.60899375  0.45527503  1  0  0.123327  0  0.933412  0  0  0.134789  0  0.987188  0  0  0.138422  0  0.985849  0  0.104538  0  0.11444  0.132168  0  0.988376  0
C  C44  1  0.32354306  0.02558403  0.00596449  1  0  0.306331  0  3.808707  0  0  0.298672  0  4.070577  0  0  0.310717  0  4.085799  0  0.494039  0  0.091079  0.29023  0  4.06028  0
C  C45  1  0.67645756  0.97441974  0.99403891  1  0  0.306268  0  3.808761  0  0  0.29873  0  4.070471  0  0  0.310776  0  4.085692  0  0.49447  0  0.091179  0.290286  0  4.060172  0
C  C46  1  0.26198119  0.10012413  0.95505518  1  0  -0.279191  0  3.678619  0  0  -0.312061  0  3.932305  0  0  -0.318884  0  3.948071  0  0.029509  0  -0.107927  -0.307218  0  3.92163  0
C  C47  1  0.73801710  0.89987793  0.04494552  1  0  -0.279208  0  3.678563  0  0  -0.312045  0  3.932194  0  0  -0.318872  0  3.94797  0  0.029128  0  -0.107941  -0.307199  0  3.921515  0
C  C48  1  0.18606835  0.05612485  0.83676158  1  0  0.287136  0  3.837299  0  0  0.282111  0  4.100717  0  0  0.293599  0  4.116259  0  0.352825  0  0.080628  0.27408  0  4.089956  0
C  C49  1  0.81393376  0.94386947  0.16324177  1  0  0.287171  0  3.837453  0  0  0.281994  0  4.101062  0  0  0.293483  0  4.1166  0  0.353221  0  0.080531  0.273962  0  4.090296  0
C  C50  1  0.17388189  0.93880525  0.76861778  1  0  -0.199463  0  3.722835  0  0  -0.237176  0  3.977187  0  0  -0.240897  0  3.994569  0  0.073234  0  -0.103655  -0.234543  0  3.965462  0
C  C51  1  0.82611538  0.06119078  0.23138652  1  0  -0.199481  0  3.722639  0  0  -0.237189  0  3.97707  0  0  -0.240893  0  3.994456  0  0.072956  0  -0.103648  -0.234555  0  3.965348  0
C  C52  1  0.23769765  0.86634309  0.82046188  1  0  -0.025562  0  3.82945  0  0  -0.003444  0  4.066051  0  0  -0.008518  0  4.089269  0  -0.045139  0  -0.018961  3.9e-05  0  4.050246  0
C  C53  1  0.76229903  0.13365552  0.17954472  1  0  -0.025613  0  3.829338  0  0  -0.003478  0  4.065949  0  0  -0.008561  0  4.089189  0  -0.045263  0  -0.018975  2e-06  0  4.050138  0
C  C54  1  0.31368216  0.90841997  0.93984365  1  0  -0.213483  0  3.719551  0  0  -0.256069  0  3.985887  0  0  -0.259724  0  4.003628  0  -0.021004  0  -0.110462  -0.253521  0  3.974003  0
C  C55  1  0.68632199  0.09158036  0.06016013  1  0  -0.213351  0  3.719432  0  0  -0.255996  0  3.98575  0  0  -0.259651  0  4.003495  0  -0.020848  0  -0.110478  -0.253466  0  3.973915  0
C  C56  1  0.44803078  0.01062428  0.18539414  1  0  0.040502  0  3.644203  0  0  -0.01907  0  3.897703  0  0  -0.011973  0  3.902641  0  0.445678  0  -0.055286  -0.023875  0  3.894108  0
C  C57  1  0.55196648  0.98937778  0.81461008  1  0  0.040669  0  3.64408  0  0  -0.018859  0  3.89755  0  0  -0.011766  0  3.902499  0  0.445744  0  -0.055235  -0.023669  0  3.893958  0
C  C58  1  0.51083637  0.08873158  0.31149144  1  0  0.143448  0  3.693707  0  0  0.155942  0  3.931969  0  0  0.161466  0  3.952839  0  -0.016763  0  0.020826  0.152307  0  3.917968  0
C  C59  1  0.48916793  0.91126961  0.68851344  1  0  0.143483  0  3.693684  0  0  0.155968  0  3.931953  0  0  0.161491  0  3.952823  0  -0.016825  0  0.020886  0.152337  0  3.917946  0
C  C60  1  0.57142404  0.04248852  0.39299355  1  0  -0.165869  0  3.72117  0  0  -0.181688  0  3.967782  0  0  -0.190689  0  3.990565  0  0.021973  0  -0.085014  -0.175753  0  3.952355  0
C  C61  1  0.42858070  0.95750924  0.60700642  1  0  -0.165972  0  3.72117  0  0  -0.181792  0  3.967804  0  0  -0.190798  0  3.990599  0  0.022014  0  -0.085052  -0.175856  0  3.95237  0
C  C62  1  0.62788608  0.11425545  0.50982991  1  0  0.11291  0  3.718035  0  0  0.07956  0  3.969679  0  0  0.086864  0  3.988039  0  0.42306  0  0.038601  0.074599  0  3.957628  0
C  C63  1  0.37211660  0.88574832  0.49017023  1  0  0.112819  0  3.718114  0  0  0.079464  0  3.969763  0  0  0.086772  0  3.988111  0  0.422846  0  0.038551  0.074507  0  3.957711  0
C  C64  1  0.56945550  0.27411461  0.47088326  1  0  0.123282  0  3.685816  0  0  0.091169  0  3.939741  0  0  0.098486  0  3.957711  0  0.434142  0  0.04546  0.086559  0  3.927448  0
C  C65  1  0.43054336  0.72589088  0.52911958  1  0  0.123235  0  3.685852  0  0  0.09114  0  3.939778  0  0  0.098453  0  3.957746  0  0.434468  0  0.045438  0.08653  0  3.927483  0
C  C66  1  0.51087050  0.20778313  0.35240389  1  0  -0.153493  0  3.664913  0  0  -0.17474  0  3.916512  0  0  -0.182967  0  3.936464  0  -0.005799  0  -0.081272  -0.169577  0  3.903492  0
C  C67  1  0.48912309  0.79222151  0.64760037  1  0  -0.153468  0  3.66494  0  0  -0.174703  0  3.916523  0  0  -0.182931  0  3.936477  0  -0.005547  0  -0.081226  -0.16954  0  3.903503  0
C  C68  1  0.15799453  0.24363308  0.83394179  1  0  0.033384  0  3.612517  0  0  -0.025493  0  3.870602  0  0  -0.01823  0  3.87435  0  0.377223  0  -0.060813  -0.03057  0  3.868137  0
C  C69  1  0.84200553  0.75636124  0.16605051  1  0  0.033523  0  3.612481  0  0  -0.025534  0  3.870846  0  0  -0.018272  0  3.874593  0  0.377432  0  -0.060804  -0.030618  0  3.868385  0
C  C70  1  0.28783545  0.27101060  0.81340229  1  0  0.120818  0  3.716201  0  0  0.13285  0  3.957068  0  0  0.136777  0  3.979512  0  0.018492  0  0.010465  0.130265  0  3.941958  0
C  C71  1  0.71216475  0.72898458  0.18659036  1  0  0.120994  0  3.716018  0  0  0.132972  0  3.957021  0  0  0.1369  0  3.979466  0  0.018162  0  0.010502  0.130393  0  3.941913  0
C  C72  1  0.41540605  0.31682054  0.90306125  1  0  -0.160938  0  3.680788  0  0  -0.175551  0  3.927343  0  0  -0.18383  0  3.948598  0  -0.053258  0  -0.078944  -0.17051  0  3.91353  0
C  C73  1  0.58459108  0.68317464  0.09693290  1  0  -0.161156  0  3.680705  0  0  -0.175739  0  3.927295  0  0  -0.184013  0  3.948538  0  -0.053289  0  -0.07899  -0.170703  0  3.913486  0
C  C74  1  0.53201645  0.33475454  0.87615062  1  0  0.137066  0  3.68415  0  0  0.104186  0  3.933435  0  0  0.111433  0  3.952224  0  0.474318  0  0.046251  0.099431  0  3.920681  0
C  C75  1  0.46797467  0.66524150  0.12384011  1  0  0.137248  0  3.683922  0  0  0.104343  0  3.93321  0  0  0.11161  0  3.951975  0  0.474288  0  0.046262  0.099591  0  3.920458  0
C  C76  1  0.40395312  0.26658403  0.68029113  1  0  0.115696  0  3.728904  0  0  0.085758  0  3.982544  0  0  0.092557  0  4.001047  0  0.426082  0  0.04176  0.081363  0  3.969734  0
C  C77  1  0.59604327  0.73341287  0.31970121  1  0  0.115725  0  3.728784  0  0  0.085755  0  3.982423  0  0  0.092555  0  4.000929  0  0.426882  0  0.041741  0.081361  0  3.969615  0
C  C78  1  0.28344884  0.24560273  0.69983081  1  0  -0.161016  0  3.720565  0  0  -0.181784  0  3.972509  0  0  -0.188923  0  3.993032  0  -0.031342  0  -0.079682  -0.176794  0  3.958297  0
C  C79  1  0.71655151  0.75439330  0.30016445  1  0  -0.161154  0  3.720467  0  0  -0.181855  0  3.972432  0  0  -0.188996  0  3.992956  0  -0.032012  0  -0.07973  -0.176875  0  3.958223  0
C  C80  1  0.22035750  0.74297326  0.74415637  1  0  0.584187  0  3.791333  0  0  0.540005  0  4.077796  0  0  0.572664  0  4.069981  0  1.465501  0  0.236236  0.517757  0  4.082647  0
C  C81  1  0.77964899  0.25702880  0.25585086  1  0  0.584075  0  3.791566  0  0  0.53991  0  4.078002  0  0  0.57255  0  4.070202  0  1.465475  0  0.236177  0.517667  0  4.082847  0
C  C82  1  0.27174018  0.55830951  0.73273180  1  0  0.048791  0  3.618597  0  0  -0.019842  0  3.890492  0  0  -0.010993  0  3.892295  0  0.419581  0  -0.058675  -0.025924  0  3.889599  0
C  C83  1  0.72826690  0.44168996  0.26727238  1  0  0.048813  0  3.618419  0  0  -0.019878  0  3.890382  0  0  -0.011041  0  3.892188  0  0.419424  0  -0.058683  -0.025985  0  3.889508  0
C  C84  1  0.13744937  0.50558086  0.72796727  1  0  0.111134  0  3.742804  0  0  0.124565  0  3.984377  0  0  0.128028  0  4.007899  0  -0.0255  0  0.007328  0.122518  0  3.968212  0
C  C85  1  0.86255404  0.49442120  0.27203393  1  0  0.111059  0  3.742785  0  0  0.124581  0  3.98427  0  0  0.128044  0  4.007794  0  -0.025491  0  0.007295  0.122537  0  3.968111  0
C  C86  1  0.10047296  0.54129503  0.82745979  1  0  -0.150354  0  3.680339  0  0  -0.168148  0  3.926246  0  0  -0.176456  0  3.947371  0  0.003098  0  -0.08099  -0.162776  0  3.912155  0
C  C87  1  0.89952209  0.45871218  0.17253973  1  0  -0.150425  0  3.680554  0  0  -0.168275  0  3.926411  0  0  -0.176584  0  3.947537  0  0.003595  0  -0.080996  -0.162902  0  3.912316  0
C  C88  1  0.97799746  0.49023697  0.82268532  1  0  0.144103  0  3.675804  0  0  0.110742  0  3.925049  0  0  0.118404  0  3.942993  0  0.424748  0  0.049383  0.10579  0  3.91288  0
C  C89  1  0.02199890  0.50977196  0.17731665  1  0  0.144071  0  3.675763  0  0  0.110732  0  3.924943  0  0  0.118397  0  3.942887  0  0.424847  0  0.049381  0.105781  0  3.912774  0
C  C90  1  0.92554078  0.37344039  0.62804191  1  0  0.13362  0  3.694081  0  0  0.10137  0  3.946849  0  0  0.109208  0  3.964699  0  0.457919  0  0.046568  0.096306  0  3.93465  0
C  C91  1  0.07446763  0.62655479  0.37195802  1  0  0.133639  0  3.694167  0  0  0.101296  0  3.946911  0  0  0.109133  0  3.964761  0  0.457892  0  0.046575  0.096231  0  3.934711  0
C  C92  1  0.04701243  0.42023344  0.62629131  1  0  -0.16263  0  3.710371  0  0  -0.182124  0  3.960098  0  0  -0.190329  0  3.98125  0  0.008487  0  -0.080906  -0.176799  0  3.945723  0
C  C93  1  0.95299847  0.57976432  0.37371168  1  0  -0.162516  0  3.710116  0  0  -0.182073  0  3.959834  0  0  -0.190278  0  3.980985  0  0.008386  0  -0.080846  -0.176755  0  3.945471  0
N  N94  1  0.62685851  0.22910043  0.54950131  1  0  -0.340158  0  3.30197  0  0  -0.259267  0  3.57402  0  0  -0.279509  0  3.59163  0  -1.275098  0  -0.329945  -0.245477  0  3.561589  0
N  N95  1  0.37314300  0.77090248  0.45050049  1  0  -0.340032  0  3.301944  0  0  -0.259171  0  3.57402  0  0  -0.279408  0  3.591624  0  -1.275054  0  -0.32991  -0.245382  0  3.561589  0
N  N96  1  0.52708439  0.30961050  0.76675378  1  0  -0.32259  0  3.322236  0  0  -0.241307  0  3.586618  0  0  -0.261629  0  3.606499  0  -1.236863  0  -0.326609  -0.227404  0  3.572913  0
N  N97  1  0.47291420  0.69038725  0.23324091  1  0  -0.3226  0  3.322221  0  0  -0.241301  0  3.586609  0  0  -0.261628  0  3.606489  0  -1.236713  0  -0.326582  -0.227398  0  3.572905  0
N  N98  1  0.89117656  0.40717803  0.72448404  1  0  -0.332083  0  3.312479  0  0  -0.248235  0  3.577844  0  0  -0.269082  0  3.596168  0  -1.258017  0  -0.330684  -0.234078  0  3.565041  0
N  N99  1  0.10883183  0.59282316  0.27551732  1  0  -0.332314  0  3.31281  0  0  -0.248279  0  3.577983  0  0  -0.269125  0  3.596302  0  -1.258142  0  -0.330716  -0.234122  0  3.565183  0
N  N100  1  0.83568776  0.21854146  0.86375870  1  0  0.709849  0  4.100282  0  0  0.726039  0  4.415867  0  0  0.754628  0  4.420714  0  0.802171  0  0.09404  0.70676  0  4.41224  0
N  N101  1  0.16430774  0.78146231  0.13623968  1  0  0.709612  0  4.100124  0  0  0.725788  0  4.415744  0  0  0.754374  0  4.420593  0  0.801968  0  0.094002  0.706509  0  4.41212  0
N  N102  1  0.63732911  0.56056534  0.79800395  1  0  0.684731  0  4.145799  0  0  0.724924  0  4.425921  0  0  0.753467  0  4.431485  0  0.842657  0  0.093262  0.705701  0  4.421981  0
N  N103  1  0.36266816  0.43943070  0.20198979  1  0  0.684679  0  4.145727  0  0  0.724723  0  4.42603  0  0  0.753264  0  4.431597  0  0.843157  0  0.093147  0.705503  0  4.422088  0
O  O104  1  0.39148355  0.07864870  0.12267092  1  0  -0.265515  0  2.351614  0  0  -0.189118  0  2.576605  0  0  -0.207959  0  2.580144  0  -1.083155  0  -0.169061  -0.175693  0  2.573629  0
O  O105  1  0.60851122  0.92135078  0.87733025  1  0  -0.265524  0  2.351471  0  0  -0.189208  0  2.576459  0  0  -0.208044  0  2.579995  0  -1.083127  0  -0.169136  -0.175782  0  2.573485  0
O  O106  1  0.11648550  0.12097480  0.77999526  1  0  -0.280822  0  2.264214  0  0  -0.21731  0  2.493005  0  0  -0.234321  0  2.493267  0  -1.057929  0  -0.185676  -0.205075  0  2.492612  0
O  O107  1  0.88352071  0.87901952  0.22000005  1  0  -0.280812  0  2.264572  0  0  -0.217159  0  2.493403  0  0  -0.234168  0  2.493664  0  -1.058137  0  -0.185542  -0.20492  0  2.493004  0
O  O108  1  0.14778880  0.69926187  0.64121236  1  0  -0.536374  0  1.949597  0  0  -0.498516  0  2.163257  0  0  -0.518372  0  2.156684  0  -1.167667  0  -0.281545  -0.484742  0  2.167521  0
O  O109  1  0.85221419  0.30073159  0.35878713  1  0  -0.536287  0  1.949857  0  0  -0.498421  0  2.163499  0  0  -0.518272  0  2.156932  0  -1.167663  0  -0.281517  -0.484649  0  2.167761  0
O  O110  1  0.29465034  0.68077186  0.80064771  1  0  -0.307959  0  2.273188  0  0  -0.236841  0  2.50832  0  0  -0.257552  0  2.506279  0  -1.035786  0  -0.162654  -0.222472  0  2.50927  0
O  O111  1  0.70535469  0.31922761  0.19935447  1  0  -0.307959  0  2.273129  0  0  -0.23686  0  2.508279  0  0  -0.257543  0  2.506228  0  -1.035667  0  -0.162614  -0.222486  0  2.509236  0
O  O112  1  0.83802854  0.32870378  0.88995170  1  0  -0.519668  0  1.826089  0  0  -0.48435  0  2.074021  0  0  -0.505606  0  2.065665  0  -0.595173  0  -0.209794  -0.46922  0  2.078814  0
O  O113  1  0.16197517  0.67129999  0.11005020  1  0  -0.51963  0  1.826141  0  0  -0.484311  0  2.074122  0  0  -0.505564  0  2.065764  0  -0.595074  0  -0.209779  -0.469169  0  2.078887  0
O  O114  1  0.76614500  0.15190061  0.75971288  1  0  -0.494209  0  1.748793  0  0  -0.482508  0  1.976348  0  0  -0.497228  0  1.967009  0  -0.566215  0  -0.203899  -0.472427  0  1.982992  0
O  O115  1  0.23385341  0.84810832  0.24028356  1  0  -0.494139  0  1.748685  0  0  -0.482418  0  1.976204  0  0  -0.497158  0  1.966912  0  -0.566174  0  -0.203873  -0.47234  0  1.982847  0
O  O116  1  0.89742012  0.18346064  0.93883517  1  0  -0.395251  0  1.688091  0  0  -0.39161  0  1.878941  0  0  -0.401555  0  1.873669  0  -0.46669  0  -0.166428  -0.384856  0  1.882771  0
O  O117  1  0.10256571  0.81654056  0.06116444  1  0  -0.395127  0  1.687957  0  0  -0.391486  0  1.878811  0  0  -0.401429  0  1.873546  0  -0.466646  0  -0.166428  -0.384736  0  1.882636  0
O  O118  1  0.60443471  0.48760647  0.69220705  1  0  -0.495512  0  1.77909  0  0  -0.485825  0  2.004299  0  0  -0.503784  0  1.995904  0  -0.586669  0  -0.212111  -0.473399  0  2.010179  0
O  O119  1  0.39556359  0.51238957  0.30778770  1  0  -0.49543  0  1.778891  0  0  -0.485705  0  2.004159  0  0  -0.503665  0  1.99577  0  -0.586864  0  -0.212031  -0.473281  0  2.010036  0
O  O120  1  0.71383174  0.53220815  0.87760425  1  0  -0.477555  0  1.775422  0  0  -0.461893  0  1.991901  0  0  -0.478741  0  1.985219  0  -0.57314  0  -0.190489  -0.449876  0  1.996207  0
O  O121  1  0.28616201  0.46778531  0.12239072  1  0  -0.477609  0  1.775375  0  0  -0.461858  0  1.991875  0  0  -0.478702  0  1.985189  0  -0.573388  0  -0.190458  -0.449845  0  1.996184  0
O  O122  1  0.59344134  0.65540869  0.82180098  1  0  -0.415235  0  1.786734  0  0  -0.411393  0  1.993314  0  0  -0.423553  0  1.985912  0  -0.51537  0  -0.160646  -0.403027  0  1.998445  0
O  O123  1  0.40656163  0.34459078  0.17819390  1  0  -0.415215  0  1.786797  0  0  -0.411331  0  1.993438  0  0  -0.423492  0  1.986043  0  -0.515466  0  -0.160647  -0.402961  0  1.998558  0
