# generated using pymatgen
data_ZnSiH16C24S4N4(O2F)6
_symmetry_space_group_name_H-M   'P 1'
_cell_length_a   7.61375444
_cell_length_b   14.00701160
_cell_length_c   13.98622829
_cell_angle_alpha   88.98534154
_cell_angle_beta   93.14582925
_cell_angle_gamma   93.18099180
_symmetry_Int_Tables_number   1
_chemical_formula_structural   ZnSiH16C24S4N4(O2F)6
_chemical_formula_sum   'Zn1 Si1 H16 C24 S4 N4 O12 F6'
_cell_volume   1486.87133649
_cell_formula_units_Z   1
loop_
 _symmetry_equiv_pos_site_id
 _symmetry_equiv_pos_as_xyz
  1  'x, y, z'
loop_
 _atom_site_type_symbol
 _atom_site_label
 _atom_site_symmetry_multiplicity
 _atom_site_fract_x
 _atom_site_fract_y
 _atom_site_fract_z
 _atom_site_occupancy
 _atom_site_pbe_bader_charge
 _atom_site_pbe_bader_spin_density
 _atom_site_pbe_cm5_charge
 _atom_site_pbe_ddec_charge
 _atom_site_pbe_ddec_spin_density
 _atom_site_pbe_ddec_sum_bond_order
 _atom_site_pbe_magmom
Zn  Zn0  1  0.49525819  0.50330802  0.50192681  1  1.332986  0  0.707301  0.740353  0  2.391147  0
Si  Si1  1  0.99548676  0.50366814  0.50214507  1  3.242077  0  0.262809  1.708527  0  3.97165  0
H  H2  1  0.26123003  0.66139137  0.54877998  1  0.217718  0  0.124039  0.115416  0  1.027058  0
H  H3  1  0.25809979  0.83736422  0.55107594  1  0.140701  0  0.117818  0.132322  0  1.007072  0
H  H4  1  0.77959594  0.67294798  0.46424032  1  0.213951  0  0.127651  0.114049  0  1.035755  0
H  H5  1  0.21114235  0.33262912  0.53719848  1  0.210678  0  0.127636  0.113505  0  1.034662  0
H  H6  1  0.73242591  0.34579790  0.45731516  1  0.197763  0  0.123238  0.114296  0  1.030654  0
H  H7  1  0.73782645  0.16997325  0.45555755  1  0.127582  0  0.117792  0.132672  0  1.008533  0
H  H8  1  0.24804739  0.45803884  0.66195613  1  0.203201  0  0.12131  0.110579  0  1.043148  0
H  H9  1  0.24691830  0.45290427  0.83807844  1  0.135097  0  0.11783  0.132565  0  1.008478  0
H  H10  1  0.78393187  0.54134488  0.66932973  1  0.216804  0  0.128355  0.118885  0  1.027274  0
H  H11  1  0.20608373  0.46390728  0.33477904  1  0.209092  0  0.128249  0.118428  0  1.027839  0
H  H12  1  0.74275178  0.54523754  0.34171904  1  0.201054  0  0.121905  0.111489  0  1.042707  0
H  H13  1  0.74590011  0.54452472  0.16573303  1  0.14066  0  0.117462  0.131963  0  1.011082  0
H  H14  1  0.02211157  0.95108912  0.57475499  1  0.666361  0  0.314131  0.390397  0  0.944379  0
H  H15  1  0.97178474  0.05438068  0.42717609  1  0.678539  0  0.314234  0.391092  0  0.943361  0
H  H16  1  0.00543456  0.42667362  0.95135541  1  0.688503  0  0.314512  0.390842  0  0.942519  0
H  H17  1  0.98567605  0.57299401  0.05259251  1  0.684809  0  0.314229  0.390347  0  0.943786  0
C  C18  1  0.37784415  0.70511673  0.53017376  1  0.421175  0  0.070489  0.123498  0  3.860899  0
C  C19  1  0.37612753  0.80403770  0.53141875  1  0.068809  0  -0.056038  -0.126372  0  3.839289  0
C  C20  1  0.52498332  0.86073022  0.50586535  1  0.034285  0  0.035013  0.170534  0  4.064553  0
C  C21  1  0.67379813  0.81096723  0.48287132  1  -0.066582  0  -0.002217  -0.172203  0  3.874938  0
C  C22  1  0.66516900  0.71124684  0.48230545  1  0.450701  0  0.068149  0.098899  0  3.882361  0
C  C23  1  0.51406499  0.96109905  0.50313241  1  -0.247643  0  -0.017225  -0.058954  0  4.029919  0
C  C24  1  0.48167871  0.04539770  0.50141758  1  0.036776  0  -0.016096  -0.057871  0  4.030447  0
C  C25  1  0.46970853  0.14568130  0.49852875  1  0.137457  0  0.03447  0.170287  0  4.064807  0
C  C26  1  0.31947702  0.19493244  0.52015694  1  -0.1927  0  -0.002359  -0.172468  0  3.874128  0
C  C27  1  0.32675499  0.29468108  0.52038051  1  0.563577  0  0.067985  0.098202  0  3.883764  0
C  C28  1  0.61570899  0.30172741  0.47508517  1  0.490747  0  0.07039  0.124301  0  3.857842  0
C  C29  1  0.61870659  0.20286847  0.47410700  1  -0.003981  0  -0.056233  -0.127084  0  3.839398  0
C  C30  1  0.36961135  0.47495336  0.70477924  1  0.518863  0  0.066998  0.117568  0  3.870863  0
C  C31  1  0.36868131  0.47231823  0.80385047  1  -0.040824  0  -0.057748  -0.128096  0  3.844727  0
C  C32  1  0.52361724  0.49634306  0.85951970  1  0.145515  0  0.034238  0.169292  0  4.067241  0
C  C33  1  0.67665478  0.51974302  0.80877292  1  -0.169919  0  -0.000961  -0.170354  0  3.867147  0
C  C34  1  0.66707631  0.52187806  0.70882224  1  0.534226  0  0.070849  0.105083  0  3.866505  0
C  C35  1  0.51346366  0.49775820  0.95998810  1  -0.162251  0  -0.017214  -0.059242  0  4.031816  0
C  C36  1  0.47950867  0.49871718  0.04411057  1  -0.116709  0  -0.016745  -0.057386  0  4.031766  0
C  C37  1  0.46874834  0.50199404  0.14445969  1  0.115637  0  0.034236  0.16889  0  4.066827  0
C  C38  1  0.31502028  0.48073738  0.19525450  1  -0.175673  0  -0.001311  -0.171661  0  3.868564  0
C  C39  1  0.32355156  0.48169996  0.29519473  1  0.560315  0  0.070434  0.105356  0  3.866359  0
C  C40  1  0.62150764  0.52739650  0.29897795  1  0.451093  0  0.067185  0.116839  0  3.872613  0
C  C41  1  0.62351619  0.52678968  0.19998039  1  0.052649  0  -0.057898  -0.12749  0  3.844179  0
S  S42  1  0.88029238  0.86929709  0.46020140  1  3.106966  0  0.558447  1.184856  0  5.981272  0
S  S43  1  0.11308950  0.13611154  0.54196570  1  3.091548  0  0.558986  1.183323  0  5.981156  0
S  S44  1  0.88774479  0.54168823  0.86680926  1  3.092933  0  0.558824  1.184189  0  5.977194  0
S  S45  1  0.10393333  0.45818764  0.13734136  1  3.093632  0  0.559229  1.184893  0  5.977324  0
N  N46  1  0.51877060  0.65911159  0.50466959  1  -1.23586  0  -0.306984  -0.21901  0  3.478446  0
N  N47  1  0.47324633  0.34727721  0.49916831  1  -1.217731  0  -0.306652  -0.218778  0  3.477025  0
N  N48  1  0.51541681  0.50022528  0.65769381  1  -1.228217  0  -0.307407  -0.219526  0  3.481722  0
N  N49  1  0.47489355  0.50439682  0.34619439  1  -1.237581  0  -0.3073  -0.219032  0  3.482206  0
O  O50  1  0.95362115  0.88624774  0.56633202  1  -1.253626  0  -0.351801  -0.533213  0  2.195047  0
O  O51  1  0.98505941  0.80475806  0.41297471  1  -1.270615  0  -0.285503  -0.496962  0  2.14669  0
O  O52  1  0.85059975  0.96224396  0.41433634  1  -1.311388  0  -0.312084  -0.567711  0  2.232503  0
O  O53  1  0.04077946  0.11908905  0.43567280  1  -1.261587  0  -0.351844  -0.533114  0  2.193783  0
O  O54  1  0.14296856  0.04321828  0.58790319  1  -1.313324  0  -0.311696  -0.566346  0  2.232016  0
O  O55  1  0.00735370  0.20036969  0.58892495  1  -1.272217  0  -0.285717  -0.497127  0  2.148082  0
O  O56  1  0.93994751  0.43545165  0.88606858  1  -1.267892  0  -0.351631  -0.532224  0  2.192885  0
O  O57  1  0.00239365  0.58932754  0.80127940  1  -1.275059  0  -0.285644  -0.497526  0  2.147981  0
O  O58  1  0.86720567  0.58647250  0.95903305  1  -1.309645  0  -0.311943  -0.567916  0  2.230725  0
O  O59  1  0.05091414  0.56424048  0.11800130  1  -1.267567  0  -0.351529  -0.531804  0  2.194014  0
O  O60  1  0.12431921  0.41326691  0.04518797  1  -1.309536  0  -0.312218  -0.568722  0  2.231611  0
O  O61  1  0.98993138  0.41048118  0.20317972  1  -1.274028  0  -0.286031  -0.497775  0  2.145355  0
F  F62  1  0.22649392  0.50773587  0.50426062  1  -0.828876  0  -0.19397  -0.493703  0  1.388838  0
F  F63  1  0.76436646  0.49945111  0.50000386  1  -0.824362  0  -0.19375  -0.494159  0  1.39043  0
F  F64  1  0.99086557  0.57526122  0.40304591  1  -0.835779  0  -0.228327  -0.519594  0  1.117681  0
F  F65  1  0.99969021  0.43188477  0.60112730  1  -0.832422  0  -0.228154  -0.519559  0  1.118626  0
F  F66  1  0.00292826  0.60150500  0.57242522  1  -0.835611  0  -0.227421  -0.520642  0  1.118514  0
F  F67  1  0.98807957  0.40576946  0.43180782  1  -0.835282  0  -0.226772  -0.520111  0  1.12155  0
