# generated using pymatgen
data_AlH10(C7O3)2
_symmetry_space_group_name_H-M   'P 1'
_cell_length_a   6.67312461
_cell_length_b   19.25608268
_cell_length_c   20.13880285
_cell_angle_alpha   98.72226791
_cell_angle_beta   90.00185749
_cell_angle_gamma   90.00197992
_symmetry_Int_Tables_number   1
_chemical_formula_structural   AlH10(C7O3)2
_chemical_formula_sum   'Al4 H40 C56 O24'
_cell_volume   2557.87285058
_cell_formula_units_Z   4
loop_
 _symmetry_equiv_pos_site_id
 _symmetry_equiv_pos_as_xyz
  1  'x, y, z'
loop_
 _atom_site_type_symbol
 _atom_site_label
 _atom_site_symmetry_multiplicity
 _atom_site_fract_x
 _atom_site_fract_y
 _atom_site_fract_z
 _atom_site_occupancy
 _atom_site_pbe_bader_charge
 _atom_site_pbe_bader_spin_density
 _atom_site_pbe_cm5_charge
 _atom_site_pbe_ddec_charge
 _atom_site_pbe_ddec_spin_density
 _atom_site_pbe_ddec_sum_bond_order
 _atom_site_pbe_magmom
Al  Al0  1  0.20334472  0.25033086  0.24984009  1  2.500199  0  0.398534  1.64245  0  2.581721  0
Al  Al1  1  0.78709671  0.75080097  0.75131564  1  2.501998  0  0.3994  1.651003  0  2.578089  0
Al  Al2  1  0.70334136  0.24966295  0.25016348  1  2.500146  0  0.398385  1.642402  0  2.581965  0
Al  Al3  1  0.28709685  0.74919709  0.74868862  1  2.502118  0  0.399281  1.650786  0  2.578205  0
H  H4  1  0.17553803  0.10115576  0.53229187  1  0.064813  0  0.103206  0.103545  0  1.016249  0
H  H5  1  0.71006097  0.93537722  0.50455483  1  0.083761  0  0.107168  0.113601  0  1.020373  0
H  H6  1  0.67547788  0.39884105  0.96771058  1  0.065581  0  0.103211  0.103618  0  1.016234  0
H  H7  1  0.21004586  0.56462526  0.99545047  1  0.083727  0  0.107128  0.113553  0  1.020337  0
H  H8  1  0.15807587  0.18725160  0.45326853  1  0.059024  0  0.107664  0.113259  0  0.987802  0
H  H9  1  0.72004748  0.85498290  0.59017335  1  0.089389  0  0.108355  0.117811  0  0.995112  0
H  H10  1  0.65801546  0.31274428  0.04673848  1  0.05811  0  0.107665  0.113249  0  0.987841  0
H  H11  1  0.22006647  0.64501687  0.90982705  1  0.08953  0  0.108421  0.117882  0  0.995079  0
H  H12  1  0.77060172  0.04635976  0.32487561  1  0.083383  0  0.112824  0.128881  0  0.984864  0
H  H13  1  0.33753409  0.90778593  0.62984587  1  0.119675  0  0.11015  0.127046  0  1.011172  0
H  H14  1  0.27059855  0.45364539  0.17512884  1  0.083535  0  0.11289  0.129011  0  0.984974  0
H  H15  1  0.83755075  0.59220486  0.87015450  1  0.120016  0  0.110216  0.127163  0  1.01085  0
H  H16  1  0.24381918  0.06577423  0.10393152  1  0.129541  0  0.11095  0.119366  0  0.993303  0
H  H17  1  0.75429024  0.93319926  0.89761001  1  0.087123  0  0.10725  0.111701  0  1.001901  0
H  H18  1  0.74382148  0.43423157  0.39607259  1  0.129525  0  0.110936  0.119481  0  0.993141  0
H  H19  1  0.25427290  0.56680870  0.60236374  1  0.086497  0  0.107121  0.111539  0  1.002257  0
H  H20  1  0.64021078  0.13017003  0.07068824  1  0.098251  0  0.110834  0.119232  0  0.992221  0
H  H21  1  0.35685709  0.86751579  0.93107803  1  0.115362  0  0.109706  0.11726  0  0.994331  0
H  H22  1  0.14023159  0.36982008  0.42930648  1  0.098597  0  0.11094  0.11953  0  0.992382  0
H  H23  1  0.85687381  0.63250558  0.56892719  1  0.114917  0  0.109714  0.117181  0  0.994187  0
H  H24  1  0.38880877  0.96139556  0.03042369  1  0.091182  0  0.102902  0.104603  0  1.006238  0
H  H25  1  0.61031060  0.03730018  0.97014897  1  0.045041  0  0.101515  0.102075  0  1.009991  0
H  H26  1  0.88880883  0.53862255  0.46958069  1  0.090785  0  0.102938  0.104629  0  1.006178  0
H  H27  1  0.11030313  0.46270381  0.52983459  1  0.05119  0  0.101451  0.102081  0  1.009946  0
H  H28  1  0.04348830  0.88055325  0.39951983  1  0.061546  0  0.094873  0.093512  0  1.006202  0
H  H29  1  0.98964924  0.90078395  0.31702496  1  0.036223  0  0.093956  0.089084  0  0.990886  0
H  H30  1  0.83133541  0.84110275  0.35362154  1  0.05697  0  0.107368  0.113392  0  0.97025  0
H  H31  1  0.55157264  0.99091691  0.62464178  1  0.060783  0  0.095956  0.094817  0  1.017953  0
H  H32  1  0.38154518  0.06421962  0.63539449  1  0.038914  0  0.09481  0.088413  0  0.993459  0
H  H33  1  0.59162230  0.06204529  0.57887272  1  0.086775  0  0.109168  0.118866  0  0.973414  0
H  H34  1  0.54350380  0.61944692  0.10049265  1  0.06151  0  0.094843  0.093483  0  1.006083  0
H  H35  1  0.48965200  0.59920927  0.18298516  1  0.035833  0  0.093954  0.089032  0  0.990986  0
H  H36  1  0.33135402  0.65889584  0.14638859  1  0.056298  0  0.107363  0.113435  0  0.970177  0
H  H37  1  0.05155824  0.50908552  0.87537205  1  0.061115  0  0.096032  0.094972  0  1.017955  0
H  H38  1  0.88153707  0.43578059  0.86460055  1  0.039165  0  0.094849  0.088408  0  0.993464  0
H  H39  1  0.09159815  0.43795246  0.92113217  1  0.086111  0  0.109136  0.118931  0  0.973369  0
H  H40  1  0.45223562  0.16723320  0.27311761  1  0.624348  0  0.353682  0.430847  0  0.854349  0
H  H41  1  0.53350130  0.84242080  0.76895083  1  0.604742  0  0.356651  0.433663  0  0.846949  0
H  H42  1  0.95223826  0.33275506  0.22688108  1  0.624576  0  0.353719  0.430903  0  0.854298  0
H  H43  1  0.03348759  0.65758075  0.73103214  1  0.604358  0  0.35664  0.433571  0  0.847054  0
C  C44  1  0.45326394  0.34267433  0.34631916  1  1.562546  0  0.262591  0.633489  0  4.111316  0
C  C45  1  0.54044573  0.65980646  0.65161057  1  1.557317  0  0.26711  0.643099  0  4.094624  0
C  C46  1  0.95325695  0.15732124  0.15368308  1  1.561742  0  0.262451  0.63306  0  4.111717  0
C  C47  1  0.04046317  0.84019697  0.84838052  1  1.55685  0  0.267065  0.642935  0  4.094693  0
C  C48  1  0.45437820  0.32654215  0.16507140  1  1.584657  0  0.274361  0.656273  0  4.078894  0
C  C49  1  0.53571669  0.67041910  0.83266714  1  1.578521  0  0.263203  0.637701  0  4.102045  0
C  C50  1  0.95444896  0.17345886  0.33493238  1  1.587738  0  0.274773  0.656855  0  4.078068  0
C  C51  1  0.03568242  0.82957627  0.66733592  1  1.578601  0  0.263295  0.637758  0  4.102119  0
C  C52  1  0.09076674  0.08822615  0.48597976  1  -0.047062  0  -0.08903  -0.111211  0  4.012785  0
C  C53  1  0.84788802  0.92965725  0.53208906  1  -0.0163  0  -0.090445  -0.120363  0  4.008819  0
C  C54  1  0.59070700  0.41177171  0.01402187  1  -0.047168  0  -0.088911  -0.111078  0  4.012793  0
C  C55  1  0.34789626  0.57034659  0.96791098  1  -0.016345  0  -0.090374  -0.120366  0  4.00863  0
C  C56  1  0.07877716  0.13734186  0.44226492  1  0.024661  0  -0.0917  -0.116963  0  4.014778  0
C  C57  1  0.85260104  0.88462162  0.57981337  1  -0.067092  0  -0.094783  -0.120014  0  4.012504  0
C  C58  1  0.57871530  0.36265559  0.05774158  1  0.025497  0  -0.091838  -0.117369  0  4.014957  0
C  C59  1  0.35261060  0.61538408  0.92018824  1  -0.067468  0  -0.094983  -0.120253  0  4.01296  0
C  C60  1  0.96205398  0.12296465  0.38406208  1  -0.019799  0  -0.013878  -0.019009  0  4.017534  0
C  C61  1  0.02969405  0.87712712  0.61541230  1  -0.028095  0  -0.019159  -0.026144  0  4.020884  0
C  C62  1  0.46200892  0.37703003  0.11594379  1  -0.019781  0  -0.013883  -0.018413  0  4.017167  0
C  C63  1  0.52968221  0.62287424  0.88458969  1  -0.027627  0  -0.019111  -0.026012  0  4.020902  0
C  C64  1  0.86214337  0.05874354  0.36996813  1  -0.049934  0  -0.091793  -0.210267  0  3.977714  0
C  C65  1  0.19992294  0.91534756  0.60275568  1  0.009579  0  -0.099604  -0.220414  0  3.982443  0
C  C66  1  0.36211807  0.44125785  0.13003849  1  -0.050198  0  -0.091766  -0.21059  0  3.977373  0
C  C67  1  0.69989654  0.58464411  0.89725097  1  0.009714  0  -0.099612  -0.220382  0  3.981706  0
C  C68  1  0.88535989  0.00784770  0.41183109  1  0.474517  0  0.082209  0.207088  0  4.016748  0
C  C69  1  0.19313007  0.96209288  0.55614795  1  0.436762  0  0.082455  0.201348  0  4.02943  0
C  C70  1  0.38534157  0.49215130  0.08817179  1  0.473579  0  0.082344  0.207323  0  4.015976  0
C  C71  1  0.69311556  0.53789201  0.94385910  1  0.436222  0  0.082461  0.200811  0  4.030102  0
C  C72  1  0.99876466  0.02168497  0.47186179  1  0.054285  0  -0.009812  -0.015597  0  3.966582  0
C  C73  1  0.01517607  0.97033104  0.51946837  1  -0.020515  0  -0.011719  -0.020182  0  3.971296  0
C  C74  1  0.49873460  0.47831282  0.02813450  1  0.054385  0  -0.009888  -0.015821  0  3.966744  0
C  C75  1  0.51517631  0.52966276  0.98053292  1  -0.0205  0  -0.011752  -0.019907  0  3.971558  0
C  C76  1  0.94450421  0.10257217  0.09267624  1  0.028275  0  -0.014189  -0.035482  0  3.987293  0
C  C77  1  0.05293680  0.89561114  0.90861020  1  -0.044569  0  -0.016856  -0.042488  0  3.997232  0
C  C78  1  0.44452113  0.39742814  0.40733042  1  0.028414  0  -0.014087  -0.035453  0  3.987433  0
C  C79  1  0.55290945  0.60440820  0.59138209  1  -0.044918  0  -0.016943  -0.042426  0  3.997177  0
C  C80  1  0.25128377  0.95585707  0.00075654  1  -0.00039  0  -0.089468  -0.135577  0  4.002396  0
C  C81  1  0.74768726  0.04293257  0.99990875  1  0.021756  0  -0.09118  -0.138344  0  4.008604  0
C  C82  1  0.75127379  0.54415459  0.49923703  1  0.000108  0  -0.089463  -0.135525  0  4.002634  0
C  C83  1  0.24767182  0.45706568  0.50007403  1  0.015773  0  -0.091016  -0.138353  0  4.008106  0
C  C84  1  0.23403861  0.90376821  0.94619131  1  -0.09673  0  -0.087958  -0.103432  0  3.99769  0
C  C85  1  0.76391490  0.09453841  0.05486344  1  -0.077936  0  -0.085979  -0.099899  0  3.993377  0
C  C86  1  0.73402027  0.59624907  0.55380379  1  -0.097022  0  -0.087936  -0.103466  0  3.997197  0
C  C87  1  0.26391383  0.40545208  0.44513084  1  -0.078571  0  -0.086204  -0.100303  0  3.993875  0
C  C88  1  0.89299315  0.94026516  0.92654484  1  0.003967  0  -0.076418  -0.136086  0  3.933502  0
C  C89  1  0.10574563  0.05853072  0.07459351  1  -0.075823  0  -0.075539  -0.137596  0  3.924064  0
C  C90  1  0.39297527  0.55975141  0.57343672  1  0.005645  0  -0.076263  -0.136117  0  3.933659  0
C  C91  1  0.60575152  0.44147227  0.42540984  1  -0.075954  0  -0.075542  -0.137773  0  3.924121  0
C  C92  1  0.90827477  0.99548927  0.98130499  1  -0.074112  0  -0.005756  0.076676  0  4.002256  0
C  C93  1  0.09116981  0.00355983  0.01947898  1  -0.038194  0  -0.004156  0.077926  0  3.999593  0
C  C94  1  0.40827452  0.50452161  0.51868228  1  -0.074004  0  -0.005809  0.076796  0  4.001202  0
C  C95  1  0.59118057  0.49645222  0.48051367  1  -0.038294  0  -0.00418  0.078033  0  3.999608  0
C  C96  1  0.92306894  0.88872573  0.36409370  1  0.385512  0  -0.136321  -0.168173  0  3.932404  0
C  C97  1  0.47676248  0.03040045  0.59917515  1  0.366925  0  -0.137248  -0.173998  0  3.927809  0
C  C98  1  0.42306680  0.61126697  0.13591156  1  0.387081  0  -0.136362  -0.168305  0  3.933004  0
C  C99  1  0.97675379  0.46959885  0.90082662  1  0.367209  0  -0.137239  -0.174137  0  3.927552  0
O  O100  1  0.62284329  0.30458791  0.18305192  1  -1.256219  0  -0.231265  -0.590869  0  2.335105  0
O  O101  1  0.36693204  0.68847453  0.81116717  1  -1.259252  0  -0.237397  -0.595643  0  2.36081  0
O  O102  1  0.12288670  0.19542537  0.31697277  1  -1.256222  0  -0.23128  -0.59092  0  2.335991  0
O  O103  1  0.86691087  0.81150983  0.68882301  1  -1.259324  0  -0.23746  -0.595712  0  2.361235  0
O  O104  1  0.28398568  0.32124223  0.32232339  1  -1.257246  0  -0.236278  -0.591655  0  2.371458  0
O  O105  1  0.70745081  0.68264012  0.67657853  1  -1.264718  0  -0.234368  -0.594182  0  2.363848  0
O  O106  1  0.78394420  0.17876247  0.17766717  1  -1.256613  0  -0.236206  -0.591608  0  2.370795  0
O  O107  1  0.20749202  0.81734849  0.82343123  1  -1.264504  0  -0.234224  -0.594004  0  2.363671  0
O  O108  1  0.28364582  0.31029956  0.18638395  1  -1.259991  0  -0.233644  -0.592531  0  2.318608  0
O  O109  1  0.70723449  0.68843931  0.81305337  1  -1.254759  0  -0.240189  -0.595317  0  2.331462  0
O  O110  1  0.78368464  0.18968213  0.31359902  1  -1.263163  0  -0.234008  -0.592937  0  2.317292  0
O  O111  1  0.20722132  0.81156415  0.68695842  1  -1.254527  0  -0.240249  -0.595446  0  2.331369  0
O  O112  1  0.12471619  0.17700660  0.17743910  1  -1.258491  0  -0.239538  -0.594252  0  2.32321  0
O  O113  1  0.86770175  0.82070010  0.82562378  1  -1.262643  0  -0.237214  -0.594894  0  2.321905  0
O  O114  1  0.62475718  0.32297635  0.32257750  1  -1.258459  0  -0.239684  -0.594673  0  2.32231  0
O  O115  1  0.36767568  0.67930702  0.67436246  1  -1.262877  0  -0.237174  -0.594872  0  2.321396  0
O  O116  1  0.45297522  0.20727877  0.24913366  1  -1.427868  0  -0.448896  -0.989384  0  2.189581  0
O  O117  1  0.53643822  0.79225769  0.75405382  1  -1.40833  0  -0.449006  -0.996564  0  2.217537  0
O  O118  1  0.95297172  0.29271288  0.25087008  1  -1.428015  0  -0.448915  -0.989444  0  2.189551  0
O  O119  1  0.03643846  0.70774008  0.74595126  1  -1.407934  0  -0.449036  -0.996473  0  2.217568  0
O  O120  1  0.79018480  0.94413540  0.39230242  1  -1.073042  0  -0.212  -0.203483  0  2.532964  0
O  O121  1  0.36000962  0.99950075  0.54253314  1  -1.089113  0  -0.195893  -0.1775  0  2.572106  0
O  O122  1  0.29018188  0.55587325  0.10770219  1  -1.072987  0  -0.212103  -0.203507  0  2.533214  0
O  O123  1  0.85996873  0.50049015  0.95746953  1  -1.089425  0  -0.195894  -0.177279  0  2.572354  0
