# generated using pymatgen
data_ZnH19C19N4O5
_symmetry_space_group_name_H-M   'P 1'
_cell_length_a   7.30807671
_cell_length_b   16.58289397
_cell_length_c   17.09361272
_cell_angle_alpha   89.99979442
_cell_angle_beta   95.52813772
_cell_angle_gamma   89.99973334
_symmetry_Int_Tables_number   1
_chemical_formula_structural   ZnH19C19N4O5
_chemical_formula_sum   'Zn4 H76 C76 N16 O20'
_cell_volume   2061.92407737
_cell_formula_units_Z   4
loop_
 _symmetry_equiv_pos_site_id
 _symmetry_equiv_pos_as_xyz
  1  'x, y, z'
loop_
 _atom_site_type_symbol
 _atom_site_label
 _atom_site_symmetry_multiplicity
 _atom_site_fract_x
 _atom_site_fract_y
 _atom_site_fract_z
 _atom_site_occupancy
 _atom_site_pbe_bader_charge
 _atom_site_pbe_bader_spin_density
 _atom_site_pbe_cm5_charge
 _atom_site_pbe_ddec_charge
 _atom_site_pbe_ddec_spin_density
 _atom_site_pbe_ddec_sum_bond_order
 _atom_site_pbe_magmom
Zn  Zn0  1  0.06726884  0.20090810  0.68883837  1  1.254668  0  0.691414  0.775487  0  2.449277  0
Zn  Zn1  1  0.43273154  0.70091009  0.81116156  1  1.254813  0  0.691382  0.775448  0  2.44928  0
Zn  Zn2  1  0.93272939  0.79909119  0.31116374  1  1.25475  0  0.691421  0.775511  0  2.44934  0
Zn  Zn3  1  0.56727219  0.29909342  0.18883901  1  1.254743  0  0.691386  0.775486  0  2.449313  0
H  H4  1  0.40232899  0.06666480  0.58245838  1  0.105198  0  0.105352  0.119871  0  1.030459  0
H  H5  1  0.09767292  0.56666648  0.91754442  1  0.105285  0  0.105367  0.119895  0  1.030465  0
H  H6  1  0.59766786  0.93333510  0.41754075  1  0.105195  0  0.105355  0.119883  0  1.030418  0
H  H7  1  0.90232944  0.43333522  0.08245961  1  0.105216  0  0.105348  0.119885  0  1.030391  0
H  H8  1  0.06504944  0.06808111  0.55741400  1  0.054972  0  0.100075  0.072169  0  1.014732  0
H  H9  1  0.43494971  0.56807959  0.94258576  1  0.054814  0  0.10005  0.07214  0  1.0147  0
H  H10  1  0.93495429  0.93192301  0.44258541  1  0.052643  0  0.100036  0.072121  0  1.014756  0
H  H11  1  0.56504853  0.43192211  0.05741517  1  0.052616  0  0.100047  0.072153  0  1.014724  0
H  H12  1  0.18450708  0.97503971  0.54423393  1  0.068779  0  0.098941  0.067606  0  1.013241  0
H  H13  1  0.31549293  0.47503984  0.95576913  1  0.06881  0  0.098939  0.067617  0  1.01327  0
H  H14  1  0.81549802  0.02496259  0.45576319  1  0.068759  0  0.09893  0.067588  0  1.013293  0
H  H15  1  0.68449981  0.52496066  0.04423626  1  0.068776  0  0.098927  0.067607  0  1.013174  0
H  H16  1  0.76196921  0.32569284  0.55780261  1  0.082683  0  0.111853  0.096778  0  0.982401  0
H  H17  1  0.73803493  0.82569354  0.94219734  1  0.082713  0  0.111864  0.096764  0  0.98244  0
H  H18  1  0.23803588  0.67430645  0.44219276  1  0.082787  0  0.111846  0.09673  0  0.98242  0
H  H19  1  0.26196468  0.17430454  0.05780248  1  0.082728  0  0.111842  0.09671  0  0.982458  0
H  H20  1  0.75018307  0.33460486  0.65977260  1  0.087701  0  0.117869  0.105991  0  0.994904  0
H  H21  1  0.74982786  0.83460893  0.84023052  1  0.087749  0  0.117795  0.105915  0  0.994963  0
H  H22  1  0.24982341  0.66539383  0.34022633  1  0.087619  0  0.117848  0.105976  0  0.99493  0
H  H23  1  0.25017587  0.16538976  0.15976947  1  0.087212  0  0.117787  0.105879  0  0.994974  0
H  H24  1  0.79317698  0.20400071  0.46537845  1  0.092791  0  0.099506  0.108092  0  1.036204  0
H  H25  1  0.70683255  0.70400238  0.03462144  1  0.09297  0  0.099487  0.108004  0  1.03622  0
H  H26  1  0.20682537  0.79599918  0.53462148  1  0.092825  0  0.099479  0.108023  0  1.036219  0
H  H27  1  0.29316843  0.29599872  0.96537785  1  0.092822  0  0.09949  0.108013  0  1.036215  0
H  H28  1  0.28291173  0.13226550  0.33802047  1  0.084137  0  0.107816  0.124483  0  1.002416  0
H  H29  1  0.21709069  0.63226668  0.16198026  1  0.084038  0  0.107822  0.124514  0  1.002449  0
H  H30  1  0.71709199  0.86773560  0.66197718  1  0.0841  0  0.107837  0.12455  0  1.002432  0
H  H31  1  0.78290618  0.36773623  0.83802296  1  0.084067  0  0.107847  0.124554  0  1.002414  0
H  H32  1  0.55237973  0.51305676  0.80202194  1  0.146241  0  0.118861  0.1199  0  1.036501  0
H  H33  1  0.94762110  0.01305456  0.69797487  1  0.146761  0  0.118864  0.119884  0  1.036481  0
H  H34  1  0.44761988  0.48694554  0.19797613  1  0.146734  0  0.118887  0.119938  0  1.036619  0
H  H35  1  0.05237712  0.98694352  0.30201905  1  0.146311  0  0.118858  0.11992  0  1.036457  0
H  H36  1  0.59598836  0.47411208  0.63275395  1  0.044023  0  0.091711  0.086187  0  1.002685  0
H  H37  1  0.90401822  0.97411453  0.86724792  1  0.043844  0  0.09174  0.086236  0  1.00257  0
H  H38  1  0.40401674  0.52588721  0.36724434  1  0.043948  0  0.091735  0.08625  0  1.002567  0
H  H39  1  0.09597313  0.02588476  0.13275040  1  0.043769  0  0.091704  0.086225  0  1.00261  0
H  H40  1  0.64815363  0.46473206  0.53412977  1  0.029817  0  0.090841  0.081466  0  0.996263  0
H  H41  1  0.85185581  0.96473244  0.96587401  1  0.029718  0  0.09084  0.081475  0  0.996157  0
H  H42  1  0.35185148  0.53526843  0.46586969  1  0.029732  0  0.090844  0.081516  0  0.996217  0
H  H43  1  0.14813967  0.03526625  0.03412565  1  0.029878  0  0.090883  0.081605  0  0.996154  0
H  H44  1  0.09342695  0.27070080  0.51390479  1  0.131043  0  0.123892  0.124544  0  0.999172  0
H  H45  1  0.40657814  0.77069797  0.98609451  1  0.131097  0  0.123877  0.12456  0  0.999132  0
H  H46  1  0.90656991  0.72929910  0.48609609  1  0.131223  0  0.123888  0.124551  0  0.999139  0
H  H47  1  0.59342834  0.22930554  0.01390618  1  0.131104  0  0.123897  0.124597  0  0.999144  0
H  H48  1  0.41055803  0.34698759  0.47295669  1  0.135798  0  0.130041  0.134905  0  0.982906  0
H  H49  1  0.08944608  0.84698471  0.02704511  1  0.135771  0  0.129996  0.134798  0  0.982944  0
H  H50  1  0.58944295  0.65301109  0.52704202  1  0.13581  0  0.130043  0.134867  0  0.9829  0
H  H51  1  0.91055078  0.15301639  0.97295518  1  0.135799  0  0.130005  0.134786  0  0.98294  0
H  H52  1  0.48396520  0.27696371  0.71219991  1  0.177797  0  0.145812  0.122974  0  0.979388  0
H  H53  1  0.01603844  0.77696725  0.78779872  1  0.17782  0  0.145821  0.122987  0  0.979379  0
H  H54  1  0.51603715  0.72303618  0.28779885  1  0.177788  0  0.145789  0.122958  0  0.979375  0
H  H55  1  0.98396392  0.22303264  0.21220122  1  0.177811  0  0.145811  0.122956  0  0.979396  0
H  H56  1  0.98859067  0.44717256  0.58614310  1  0.029416  0  0.090259  0.084405  0  0.991304  0
H  H57  1  0.51141760  0.94717504  0.91386186  1  0.029411  0  0.090277  0.084457  0  0.991282  0
H  H58  1  0.01141307  0.55282613  0.41385807  1  0.029418  0  0.09029  0.084481  0  0.991265  0
H  H59  1  0.48857651  0.05282305  0.08613890  1  0.029501  0  0.090253  0.084442  0  0.991317  0
H  H60  1  0.89295549  0.54353156  0.60095677  1  0.041457  0  0.094534  0.088966  0  0.982787  0
H  H61  1  0.60705188  0.04353414  0.89904663  1  0.04133  0  0.094549  0.089025  0  0.982749  0
H  H62  1  0.10704687  0.45646833  0.39904492  1  0.04144  0  0.094555  0.089008  0  0.982771  0
H  H63  1  0.39294360  0.95646455  0.10095303  1  0.041339  0  0.094531  0.088999  0  0.982799  0
H  H64  1  0.83924112  0.50464973  0.73930394  1  0.116025  0  0.114952  0.109767  0  0.994551  0
H  H65  1  0.66075844  0.00465090  0.76069986  1  0.116075  0  0.114945  0.109788  0  0.994537  0
H  H66  1  0.16075849  0.49535077  0.26069705  1  0.116054  0  0.114944  0.109786  0  0.99454  0
H  H67  1  0.33923705  0.99534598  0.23930096  1  0.115979  0  0.114924  0.109739  0  0.99448  0
H  H68  1  0.94156862  0.40891907  0.72559862  1  0.096723  0  0.11051  0.095364  0  1.028075  0
H  H69  1  0.55843322  0.90892016  0.77440621  1  0.096733  0  0.110568  0.095388  0  1.028018  0
H  H70  1  0.05842824  0.59108263  0.27440227  1  0.096687  0  0.110543  0.095375  0  1.028141  0
H  H71  1  0.44156089  0.09107732  0.22559397  1  0.096782  0  0.110526  0.095246  0  1.028025  0
H  H72  1  0.05387062  0.63220790  0.73112295  1  0.160104  0  0.143462  0.121571  0  0.984437  0
H  H73  1  0.44612505  0.13220845  0.76888170  1  0.160006  0  0.143516  0.121544  0  0.984547  0
H  H74  1  0.94612349  0.36779139  0.26888015  1  0.159835  0  0.143523  0.121579  0  0.984502  0
H  H75  1  0.55387181  0.86778963  0.23111918  1  0.160026  0  0.143512  0.121527  0  0.984498  0
H  H76  1  0.28416136  0.39823519  0.75372353  1  0.159034  0  0.120315  0.125869  0  1.044357  0
H  H77  1  0.21584089  0.89823787  0.74627579  1  0.159078  0  0.120329  0.125889  0  1.04435  0
H  H78  1  0.71584099  0.60176470  0.24627465  1  0.159028  0  0.12034  0.125864  0  1.04438  0
H  H79  1  0.78415458  0.10175780  0.25372035  1  0.15915  0  0.120321  0.125899  0  1.044361  0
C  C80  1  0.43906462  0.09550301  0.52898081  1  -0.040513  0  -0.096472  -0.219173  0  3.94555  0
C  C81  1  0.06094934  0.59550638  0.97102121  1  -0.041051  0  -0.096466  -0.219136  0  3.945702  0
C  C82  1  0.56093911  0.90449568  0.47101860  1  -0.040535  0  -0.096474  -0.21917  0  3.945616  0
C  C83  1  0.93905165  0.40449713  0.02898042  1  -0.040878  0  -0.096468  -0.219129  0  3.945584  0
C  C84  1  0.32528683  0.09277092  0.45826118  1  0.467987  0  0.084633  0.259524  0  4.078368  0
C  C85  1  0.17471605  0.59277203  0.04174263  1  0.467829  0  0.084635  0.259497  0  4.078581  0
C  C86  1  0.67470728  0.90722776  0.54174017  1  0.467828  0  0.084663  0.259536  0  4.078351  0
C  C87  1  0.82528218  0.40723148  0.95825714  1  0.468092  0  0.084714  0.259658  0  4.078144  0
C  C88  1  0.08953098  0.01989958  0.51533956  1  0.451936  0  -0.070232  0.001517  0  3.886756  0
C  C89  1  0.41046734  0.51989977  0.98466267  1  0.452093  0  -0.070211  0.001524  0  3.886836  0
C  C90  1  0.91047000  0.98010333  0.48465973  1  0.421204  0  -0.070211  0.001587  0  3.886594  0
C  C91  1  0.58952540  0.48010314  0.01534038  1  0.421507  0  -0.070247  0.001527  0  3.886645  0
C  C92  1  0.68629492  0.35502487  0.60245307  1  0.278242  0  -0.050265  -0.066423  0  3.861234  0
C  C93  1  0.81371302  0.85502679  0.89754928  1  0.278329  0  -0.050245  -0.06633  0  3.861363  0
C  C94  1  0.31371018  0.64497382  0.39754523  1  0.278309  0  -0.050241  -0.066253  0  3.861205  0
C  C95  1  0.18628522  0.14497311  0.10245108  1  0.27887  0  -0.050184  -0.066145  0  3.861295  0
C  C96  1  0.66104260  0.17373171  0.46407632  1  -0.019865  0  -0.097756  -0.151328  0  3.990571  0
C  C97  1  0.83896591  0.67373310  0.03592305  1  -0.019968  0  -0.097658  -0.151021  0  3.990426  0
C  C98  1  0.33896113  0.82626819  0.53592191  1  -0.019723  0  -0.097683  -0.151192  0  3.990497  0
C  C99  1  0.16103645  0.32626921  0.96407805  1  -0.019756  0  -0.09763  -0.15099  0  3.99049  0
C  C100  1  0.37645118  0.13248059  0.39154362  1  0.008884  0  -0.095768  -0.203281  0  3.947918  0
C  C101  1  0.12355811  0.63248216  0.10845798  1  0.008821  0  -0.095767  -0.203291  0  3.947912  0
C  C102  1  0.62355392  0.86751689  0.60845585  1  0.008969  0  -0.095781  -0.203419  0  3.947935  0
C  C103  1  0.87644287  0.36751774  0.89154424  1  0.00918  0  -0.095744  -0.203342  0  3.947812  0
C  C104  1  0.60720034  0.13660724  0.53154616  1  -0.009299  0  -0.023849  -0.018422  0  3.997416  0
C  C105  1  0.89281145  0.63660873  0.96845242  1  -0.008797  0  -0.023837  -0.018566  0  3.997939  0
C  C106  1  0.39280476  0.86339266  0.46845272  1  -0.00931  0  -0.02384  -0.01842  0  3.997494  0
C  C107  1  0.10718541  0.36339117  0.03154846  1  -0.009403  0  -0.02393  -0.018681  0  3.997928  0
C  C108  1  0.73075757  0.14137152  0.60716660  1  1.566938  0  0.198436  0.568991  0  4.21952  0
C  C109  1  0.76924730  0.64137173  0.89283461  1  1.56686  0  0.198449  0.569028  0  4.219788  0
C  C110  1  0.26924204  0.85862838  0.39283264  1  1.566969  0  0.198403  0.568929  0  4.219401  0
C  C111  1  0.23075093  0.35862816  0.10716750  1  1.56693  0  0.198424  0.568944  0  4.219666  0
C  C112  1  0.41033232  0.52016669  0.77829171  1  0.425326  0  -0.004424  -0.040665  0  4.004442  0
C  C113  1  0.08967011  0.02016634  0.72170659  1  0.424849  0  -0.004392  -0.040629  0  4.004371  0
C  C114  1  0.58966591  0.47983441  0.22170689  1  0.425088  0  -0.004433  -0.040758  0  4.00461  0
C  C115  1  0.91032537  0.97983174  0.27829306  1  0.425304  0  -0.004372  -0.040732  0  4.004427  0
C  C116  1  0.54465576  0.17241916  0.39417788  1  -0.054196  0  -0.02725  -0.027477  0  4.04611  0
C  C117  1  0.95535138  0.67242427  0.10582144  1  -0.053969  0  -0.027281  -0.027583  0  4.045877  0
C  C118  1  0.45534384  0.82757652  0.60582135  1  -0.054301  0  -0.027223  -0.027396  0  4.045879  0
C  C119  1  0.04465510  0.32757743  0.89417808  1  -0.054123  0  -0.027241  -0.02754  0  4.045895  0
C  C120  1  0.69334168  0.44688761  0.59498072  1  -0.027998  0  -0.162085  -0.165382  0  3.944559  0
C  C121  1  0.80666522  0.94689072  0.90502243  1  -0.027841  0  -0.162065  -0.165422  0  3.94431  0
C  C122  1  0.30666343  0.55311047  0.40501816  1  -0.027982  0  -0.16207  -0.165511  0  3.944499  0
C  C123  1  0.19332889  0.05310917  0.09497717  1  -0.028072  0  -0.162072  -0.165613  0  3.944458  0
C  C124  1  0.60001672  0.21576571  0.32338172  1  1.510846  0  0.190826  0.552558  0  4.234139  0
C  C125  1  0.89998856  0.71576826  0.17661972  1  1.510529  0  0.19076  0.552468  0  4.233956  0
C  C126  1  0.39999251  0.78423419  0.67661792  1  1.510771  0  0.190757  0.552561  0  4.234109  0
C  C127  1  0.10001105  0.28423284  0.82338069  1  1.510523  0  0.190812  0.55261  0  4.23383  0
C  C128  1  0.22028664  0.28511726  0.54928487  1  0.405889  0  0.000141  -0.03418  0  4.004764  0
C  C129  1  0.27971553  0.78511664  0.95071367  1  0.40592  0  0.000155  -0.034223  0  4.004798  0
C  C130  1  0.77971160  0.71488323  0.45071782  1  0.405552  0  0.000204  -0.034097  0  4.004472  0
C  C131  1  0.72028682  0.21488687  0.04928334  1  0.405669  0  0.000211  -0.034153  0  4.004584  0
C  C132  1  0.37568313  0.32297664  0.52852568  1  0.288769  0  0.003429  -0.108709  0  3.934362  0
C  C133  1  0.12431861  0.82297626  0.97147447  1  0.288842  0  0.003505  -0.10852  0  3.934359  0
C  C134  1  0.62431235  0.67702325  0.47147222  1  0.288867  0  0.003456  -0.108572  0  3.934428  0
C  C135  1  0.87568237  0.17702484  0.02852658  1  0.288899  0  0.003488  -0.108513  0  3.934454  0
C  C136  1  0.41803158  0.28592855  0.65324767  1  0.958586  0  0.150695  0.09389  0  3.913751  0
C  C137  1  0.08196371  0.78592932  0.84675234  1  0.958549  0  0.150688  0.093905  0  3.913727  0
C  C138  1  0.58196665  0.71407074  0.34675151  1  0.958546  0  0.150704  0.09392  0  3.913772  0
C  C139  1  0.91803590  0.21407118  0.15324807  1  0.958543  0  0.150709  0.093978  0  3.913807  0
C  C140  1  0.88721202  0.47966271  0.61814970  1  -0.025091  0  -0.159323  -0.156099  0  3.934258  0
C  C141  1  0.61279037  0.97966510  0.88185315  1  -0.02505  0  -0.159393  -0.156274  0  3.93442  0
C  C142  1  0.11279033  0.52033658  0.38185082  1  -0.025081  0  -0.159413  -0.156268  0  3.934513  0
C  C143  1  0.38720374  0.02033299  0.11814761  1  -0.025014  0  -0.159371  -0.156271  0  3.934414  0
C  C144  1  0.93890060  0.47217646  0.70680177  1  0.255163  0  -0.055911  -0.080434  0  3.857377  0
C  C145  1  0.56110051  0.97217748  0.79320223  1  0.255173  0  -0.055913  -0.080383  0  3.857446  0
C  C146  1  0.06109901  0.52782463  0.29319981  1  0.25518  0  -0.055947  -0.08046  0  3.857562  0
C  C147  1  0.43889360  0.02782000  0.20679795  1  0.255113  0  -0.055847  -0.080079  0  3.857182  0
C  C148  1  0.15569930  0.58520030  0.74236380  1  1.000077  0  0.150467  0.10768  0  3.895028  0
C  C149  1  0.34429829  0.08520110  0.75764169  1  1.000144  0  0.150297  0.107536  0  3.895344  0
C  C150  1  0.84429894  0.41480020  0.25763948  1  1.000361  0  0.150348  0.107629  0  3.895155  0
C  C151  1  0.65569857  0.91479638  0.24235919  1  1.000026  0  0.150414  0.107744  0  3.895166  0
C  C152  1  0.27956300  0.46349884  0.75463061  1  0.227814  0  -0.002215  -0.111023  0  3.905382  0
C  C153  1  0.22044127  0.96350030  0.74536974  1  0.227758  0  -0.002258  -0.111084  0  3.905507  0
C  C154  1  0.72043661  0.53650166  0.24536980  1  0.227787  0  -0.002289  -0.110991  0  3.905517  0
C  C155  1  0.77955695  0.03649839  0.25462535  1  0.227789  0  -0.002352  -0.111114  0  3.905693  0
N  N156  1  0.49937453  0.32297156  0.59506225  1  -1.227752  0  -0.24193  0.042959  0  3.787873  0
N  N157  1  0.00062996  0.82297349  0.90493918  1  -1.227847  0  -0.241974  0.042846  0  3.78807  0
N  N158  1  0.50062645  0.67702531  0.40493763  1  -1.227892  0  -0.241964  0.042818  0  3.788086  0
N  N159  1  0.99936965  0.17702700  0.09506064  1  -1.227893  0  -0.241969  0.042837  0  3.788126  0
N  N160  1  0.24848364  0.26247147  0.62738899  1  -1.241128  0  -0.357013  -0.288672  0  3.595772  0
N  N161  1  0.25151604  0.76246998  0.87261128  1  -1.241205  0  -0.356986  -0.288648  0  3.5958  0
N  N162  1  0.75151322  0.73752782  0.37261131  1  -1.240955  0  -0.35705  -0.288799  0  3.595783  0
N  N163  1  0.74848769  0.23753232  0.12738929  1  -1.240997  0  -0.357086  -0.288829  0  3.595773  0
N  N164  1  0.33073563  0.59585683  0.77023815  1  -1.24985  0  -0.365423  -0.295444  0  3.634394  0
N  N165  1  0.16926595  0.09585810  0.72976220  1  -1.249684  0  -0.365399  -0.295376  0  3.634383  0
N  N166  1  0.66926260  0.40414366  0.22976220  1  -1.249971  0  -0.365411  -0.295418  0  3.634399  0
N  N167  1  0.83073366  0.90414059  0.27023645  1  -1.249787  0  -0.365406  -0.295387  0  3.634344  0
N  N168  1  0.11956206  0.50577272  0.73222750  1  -1.218877  0  -0.240027  0.055229  0  3.761051  0
N  N169  1  0.38043918  0.00577402  0.76777724  1  -1.218895  0  -0.239968  0.055317  0  3.761247  0
N  N170  1  0.88043617  0.49422777  0.26777460  1  -1.218889  0  -0.23994  0.055261  0  3.761186  0
N  N171  1  0.61955631  0.99422346  0.23222183  1  -1.218866  0  -0.239974  0.055153  0  3.761482  0
O  O172  1  0.88044397  0.18248844  0.60085728  1  -1.188714  0  -0.34196  -0.57076  0  2.383628  0
O  O173  1  0.61956044  0.68249015  0.89914552  1  -1.188642  0  -0.341956  -0.570763  0  2.383561  0
O  O174  1  0.11955426  0.81751205  0.39914366  1  -1.188678  0  -0.341952  -0.570763  0  2.383553  0
O  O175  1  0.38044055  0.31751155  0.10085728  1  -1.188688  0  -0.341996  -0.570791  0  2.383666  0
O  O176  1  0.16136829  0.05329790  0.44760956  1  -1.090527  0  -0.179703  -0.197817  0  2.560685  0
O  O177  1  0.33863641  0.55329864  0.05239329  1  -1.090584  0  -0.179712  -0.197819  0  2.560702  0
O  O178  1  0.83862719  0.94670440  0.55238951  1  -1.090051  0  -0.179707  -0.197772  0  2.560457  0
O  O179  1  0.66135908  0.44670668  0.94760695  1  -1.090493  0  -0.17975  -0.197895  0  2.560516  0
O  O180  1  0.76133529  0.24082148  0.32094856  1  -1.182969  0  -0.33711  -0.569441  0  2.115162  0
O  O181  1  0.73866696  0.74082255  0.17905267  1  -1.182931  0  -0.337146  -0.569446  0  2.114966  0
O  O182  1  0.23867395  0.75917962  0.67905225  1  -1.183121  0  -0.337143  -0.569533  0  2.114941  0
O  O183  1  0.26133402  0.25917854  0.82094545  1  -1.182916  0  -0.337188  -0.569528  0  2.114898  0
O  O184  1  0.68803152  0.10881259  0.66875976  1  -1.185842  0  -0.331532  -0.571274  0  2.143053  0
O  O185  1  0.81197235  0.60880993  0.83124269  1  -1.185816  0  -0.331579  -0.571283  0  2.143099  0
O  O186  1  0.31196671  0.89118851  0.33124001  1  -1.185879  0  -0.331528  -0.57125  0  2.143034  0
O  O187  1  0.18803139  0.39118694  0.16876198  1  -1.18591  0  -0.331486  -0.571162  0  2.142963  0
O  O188  1  0.47019098  0.22528479  0.26603945  1  -1.165961  0  -0.346397  -0.572758  0  2.314869  0
O  O189  1  0.02981039  0.72528790  0.23396384  1  -1.165729  0  -0.346331  -0.572683  0  2.314934  0
O  O190  1  0.52981825  0.77471631  0.73396019  1  -1.165779  0  -0.346349  -0.572733  0  2.314974  0
O  O191  1  0.97018784  0.27471622  0.76603768  1  -1.165744  0  -0.346356  -0.572753  0  2.31486  0
