# generated using pymatgen
data_CuH8C10(NO)4
_symmetry_space_group_name_H-M   'P 1'
_cell_length_a   4.93669704
_cell_length_b   13.20056875
_cell_length_c   17.31368561
_cell_angle_alpha   90.00167200
_cell_angle_beta   93.94071697
_cell_angle_gamma   89.99993599
_symmetry_Int_Tables_number   1
_chemical_formula_structural   CuH8C10(NO)4
_chemical_formula_sum   'Cu4 H32 C40 N16 O16'
_cell_volume   1125.61695085
_cell_formula_units_Z   4
loop_
 _symmetry_equiv_pos_site_id
 _symmetry_equiv_pos_as_xyz
  1  'x, y, z'
loop_
 _atom_site_type_symbol
 _atom_site_label
 _atom_site_symmetry_multiplicity
 _atom_site_fract_x
 _atom_site_fract_y
 _atom_site_fract_z
 _atom_site_occupancy
 _atom_site_pbe_bader_charge
 _atom_site_pbe_bader_spin_density
 _atom_site_pbe_cm5_charge
 _atom_site_pbe_ddec_charge
 _atom_site_pbe_ddec_spin_density
 _atom_site_pbe_ddec_sum_bond_order
 _atom_site_pbe_magmom
Cu  Cu0  1  0.13037924  0.62238892  0.26885986  1  1.078996  -0.55665  0.753572  0.784037  -0.737444  2.22088  -0.555
Cu  Cu1  1  0.36965455  0.12238924  0.23114333  1  1.078781  0.556644  0.75359  0.784113  0.737447  2.220811  0.555
Cu  Cu2  1  0.86968182  0.37760667  0.73113344  1  1.078904  0.556645  0.753542  0.784065  0.737451  2.220692  0.555
Cu  Cu3  1  0.63030482  0.87760711  0.76886812  1  1.078937  -0.556646  0.753534  0.783925  -0.737454  2.220843  -0.555
H  H4  1  0.88986500  0.81388997  0.32660299  1  0.164551  -0.000877  0.121626  0.101707  -0.000356  1.044919  -0.001
H  H5  1  0.61017143  0.31388363  0.17339916  1  0.164428  0.000877  0.121689  0.101878  0.000356  1.044768  0.001
H  H6  1  0.11016970  0.18607608  0.67338458  1  0.16483  0.000877  0.121656  0.101743  0.000356  1.0448  0.001
H  H7  1  0.38981236  0.68608469  0.82660528  1  0.164948  -0.000878  0.121661  0.101776  -0.000356  1.04483  -0.001
H  H8  1  0.51473542  0.74397974  0.18534654  1  0.187915  -0.001185  0.12925  0.11755  -0.000569  1.013688  -0.001
H  H9  1  0.98528061  0.24398549  0.31464902  1  0.188021  0.001185  0.129304  0.117581  0.000569  1.013649  0.001
H  H10  1  0.48533784  0.25603101  0.81464470  1  0.18801  0.001185  0.129288  0.117456  0.000569  1.013839  0.001
H  H11  1  0.01463830  0.75603359  0.68534313  1  0.187548  -0.001185  0.129291  0.117494  -0.000569  1.013881  -0.001
H  H12  1  0.60443989  0.93084407  0.16818751  1  0.159564  0.000853  0.122031  0.101621  0.000337  1.033739  0.001
H  H13  1  0.89557855  0.43085051  0.33181052  1  0.15965  -0.000853  0.12204  0.101615  -0.000337  1.033834  -0.001
H  H14  1  0.39556421  0.06917652  0.83181734  1  0.159499  -0.000854  0.121992  0.101593  -0.000338  1.033869  -0.001
H  H15  1  0.10442166  0.56917463  0.66817346  1  0.159611  0.000853  0.12199  0.101539  0.000337  1.033886  0.001
H  H16  1  0.98143561  0.00032621  0.31030874  1  0.186706  0.001227  0.129541  0.117756  0.000598  1.014075  0.001
H  H17  1  0.51860216  0.50032365  0.18969456  1  0.187  -0.001227  0.12961  0.117812  -0.000598  1.01394  -0.001
H  H18  1  0.01855628  0.99964363  0.68969875  1  0.186991  -0.001228  0.129579  0.117765  -0.000599  1.014036  -0.001
H  H19  1  0.48144066  0.49965603  0.81029317  1  0.187069  0.001228  0.129537  0.117783  0.000598  1.014169  0.001
H  H20  1  0.86806939  0.56303141  0.46202129  1  0.122236  -0.000621  0.123961  0.162483  -0.000313  0.968755  0.0
H  H21  1  0.63194214  0.06302593  0.03798056  1  0.122177  0.000621  0.123963  0.162484  0.000313  0.968711  0.0
H  H22  1  0.13193472  0.43697403  0.53798241  1  0.122196  0.000621  0.12396  0.16252  0.000313  0.96868  0.0
H  H23  1  0.36803766  0.93697042  0.96201629  1  0.122366  -0.000621  0.124003  0.162517  -0.000313  0.968697  0.0
H  H24  1  0.84925170  0.69627113  0.46209303  1  0.133115  -0.00049  0.127089  0.167457  -0.000235  0.959741  0.0
H  H25  1  0.65077433  0.19626109  0.03790918  1  0.133401  0.000489  0.127112  0.167518  0.000235  0.959734  0.0
H  H26  1  0.15076455  0.30373204  0.53791553  1  0.133225  0.000489  0.127102  0.167556  0.000235  0.959729  0.0
H  H27  1  0.34923398  0.80372920  0.96207843  1  0.133216  -0.00049  0.127113  0.167571  -0.000235  0.959742  0.0
H  H28  1  0.69319422  0.54969352  0.03442775  1  0.141789  0.000243  0.12546  0.168459  0.000129  0.962585  0.0
H  H29  1  0.80683966  0.04969527  0.46556847  1  0.142022  -0.000243  0.125525  0.168516  -0.000129  0.962633  0.0
H  H30  1  0.30679976  0.45031571  0.96557227  1  0.141624  -0.000242  0.125562  0.168681  -0.000129  0.962402  0.0
H  H31  1  0.19318264  0.95033138  0.53444541  1  0.141818  0.000243  0.125544  0.16856  0.000129  0.962436  0.0
H  H32  1  0.66644587  0.68186517  0.03821835  1  0.154294  0.000167  0.123343  0.167322  6.5e-05  0.969969  0.0
H  H33  1  0.83358824  0.18186677  0.46178544  1  0.154399  -0.000167  0.123293  0.167248  -6.5e-05  0.970017  0.0
H  H34  1  0.33355622  0.31814481  0.96178415  1  0.154396  -0.000167  0.123334  0.167377  -6.5e-05  0.969942  0.0
H  H35  1  0.16638945  0.81815912  0.53822061  1  0.154613  0.000167  0.123258  0.167286  6.5e-05  0.970123  0.0
C  C36  1  0.04982854  0.83970575  0.29107502  1  0.505296  0.007652  0.063021  0.059853  0.00486  3.878496  0.006
C  C37  1  0.45020570  0.33970065  0.20893070  1  0.505198  -0.007654  0.062917  0.059515  -0.004861  3.878313  -0.006
C  C38  1  0.95018782  0.16027469  0.70892084  1  0.50489  -0.007652  0.063065  0.06007  -0.004861  3.877954  -0.006
C  C39  1  0.54978421  0.66027676  0.79107155  1  0.505181  0.007649  0.063092  0.060034  0.004859  3.878383  0.006
C  C40  1  0.39630854  0.80167401  0.21291920  1  0.484984  0.005742  0.067146  0.063384  0.003198  3.859222  0.004
C  C41  1  0.10370739  0.30167733  0.28708010  1  0.484951  -0.005742  0.067124  0.063423  -0.003197  3.859374  -0.004
C  C42  1  0.60373016  0.19832840  0.78707596  1  0.489988  -0.005744  0.067181  0.063628  -0.003199  3.85955  -0.004
C  C43  1  0.89623790  0.69833114  0.71291489  1  0.490453  0.005743  0.067254  0.06354  0.003199  3.859601  0.004
C  C44  1  0.44543844  0.90475651  0.20399735  1  0.514377  -0.007536  0.06176  0.056973  -0.004718  3.880239  -0.006
C  C45  1  0.05457567  0.40475792  0.29600363  1  0.514472  0.007535  0.061729  0.056925  0.004718  3.880408  0.006
C  C46  1  0.55456569  0.09525423  0.79600403  1  0.509545  0.007532  0.061796  0.056918  0.004716  3.880533  0.006
C  C47  1  0.94541025  0.59525207  0.70398873  1  0.509232  -0.007534  0.061691  0.056862  -0.004717  3.880574  -0.006
C  C48  1  0.09945624  0.94278750  0.28236541  1  0.489847  -0.005829  0.066467  0.062849  -0.003303  3.85792  -0.004
C  C49  1  0.40056808  0.44278653  0.21763893  1  0.489422  0.005831  0.066401  0.062844  0.003304  3.857827  0.004
C  C50  1  0.90053365  0.05719219  0.71763857  1  0.48937  0.005832  0.066205  0.062407  0.003305  3.857897  0.004
C  C51  1  0.59944627  0.55719997  0.78235458  1  0.489059  -0.005832  0.066269  0.062367  -0.003304  3.85834  -0.004
C  C52  1  0.57074849  0.62470825  0.37777826  1  1.608934  0.00275  0.212008  0.639896  0.001018  4.175587  0.004
C  C53  1  0.92926524  0.12470059  0.12221922  1  1.608276  -0.002751  0.212071  0.640052  -0.001017  4.175148  -0.004
C  C54  1  0.42927393  0.37529871  0.62222176  1  1.608566  -0.00275  0.212126  0.64016  -0.001017  4.17537  -0.004
C  C55  1  0.07070035  0.87529576  0.87777618  1  1.609333  0.002749  0.212064  0.640211  0.001016  4.175725  0.004
C  C56  1  0.72566431  0.62701194  0.45817980  1  0.013604  -0.010486  -0.132868  -0.357371  -0.007465  3.964553  -0.008
C  C57  1  0.77435746  0.12700125  0.04182829  1  0.014326  0.010477  -0.132801  -0.357329  0.007459  3.964639  0.008
C  C58  1  0.27434785  0.37299350  0.54183214  1  0.013537  0.010478  -0.132853  -0.357493  0.00746  3.964363  0.008
C  C59  1  0.22563658  0.87298828  0.95816538  1  0.013549  -0.010481  -0.132908  -0.357555  -0.007462  3.96459  -0.008
C  C60  1  0.55002542  0.62371712  0.52174152  1  0.861907  -0.000996  0.195188  0.355385  -0.00086  3.958244  0.0
C  C61  1  0.94997286  0.12369885  0.97825925  1  0.860988  0.000997  0.195117  0.355324  0.00086  3.957643  0.0
C  C62  1  0.44997874  0.37628757  0.47825640  1  0.862443  0.000996  0.195182  0.355343  0.00086  3.957618  0.0
C  C63  1  0.05002923  0.87627932  0.02174267  1  0.862008  -0.000997  0.195141  0.355288  -0.00086  3.957782  0.0
C  C64  1  0.01361636  0.62091469  0.10730025  1  1.63994  0.001709  0.205898  0.618878  0.000182  4.203856  0.004
C  C65  1  0.48641948  0.12092192  0.39270006  1  1.639223  -0.001711  0.205698  0.618533  -0.000182  4.204044  -0.004
C  C66  1  0.98638780  0.37908847  0.89269651  1  1.640034  -0.001708  0.205966  0.619107  -0.000181  4.203671  -0.004
C  C67  1  0.51357439  0.87908049  0.60731440  1  1.638952  0.001709  0.20568  0.618763  0.000181  4.20379  0.004
C  C68  1  0.81303669  0.61981624  0.03469681  1  0.003948  -0.010109  -0.136564  -0.356899  -0.007421  3.960218  -0.007
C  C69  1  0.68700136  0.11981878  0.46530510  1  0.002981  0.010108  -0.13651  -0.356799  0.007419  3.960545  0.007
C  C70  1  0.18695528  0.38019299  0.96530087  1  0.003953  0.010106  -0.136666  -0.357286  0.007419  3.960245  0.007
C  C71  1  0.31299863  0.88020181  0.53470602  1  0.003187  -0.010114  -0.136612  -0.35714  -0.007424  3.96022  -0.007
C  C72  1  0.95429513  0.62720265  0.96455581  1  0.860984  -0.001734  0.196288  0.35036  -0.000945  3.970176  -0.001
C  C73  1  0.54573161  0.12720544  0.53544215  1  0.861  0.001732  0.196112  0.350228  0.000944  3.970181  0.001
C  C74  1  0.04568871  0.37280430  0.03544285  1  0.861203  0.001734  0.196278  0.350449  0.000945  3.969817  0.001
C  C75  1  0.45427246  0.87281212  0.46456616  1  0.860798  -0.001733  0.196302  0.35041  -0.000945  3.970008  -0.001
N  N76  1  0.19786937  0.77013382  0.25653269  1  -1.195258  -0.07625  -0.326905  -0.179518  -0.052876  3.611011  -0.067
N  N77  1  0.30215052  0.27013085  0.24347003  1  -1.195308  0.076247  -0.326926  -0.179461  0.052873  3.611077  0.067
N  N78  1  0.80217137  0.22985571  0.74346135  1  -1.194876  0.076252  -0.326964  -0.17963  0.052876  3.610855  0.067
N  N79  1  0.69779876  0.72985641  0.75653313  1  -1.195464  -0.076253  -0.32701  -0.179524  -0.052878  3.611162  -0.067
N  N80  1  0.29840313  0.97434209  0.23899324  1  -1.193962  0.076405  -0.326898  -0.178648  0.053006  3.611631  0.067
N  N81  1  0.20161719  0.47434135  0.26101114  1  -1.193861  -0.07641  -0.326865  -0.178592  -0.053009  3.611692  -0.067
N  N82  1  0.70157659  0.02565956  0.76101285  1  -1.194325  -0.076423  -0.326785  -0.178422  -0.053018  3.611614  -0.067
N  N83  1  0.79840325  0.52566031  0.73898249  1  -1.193687  0.076418  -0.326724  -0.178294  0.053013  3.611553  0.067
N  N84  1  0.40506993  0.62099095  0.57207942  1  -1.17981  8.8e-05  -0.314801  -0.405031  0.000182  2.791239  0.0
N  N85  1  0.09494846  0.12097164  0.92792070  1  -1.179686  -8.8e-05  -0.31473  -0.405003  -0.000182  2.790757  0.0
N  N86  1  0.59492003  0.37901146  0.42791648  1  -1.18015  -8.8e-05  -0.314774  -0.404986  -0.000182  2.791069  0.0
N  N87  1  0.90507190  0.87900577  0.07208159  1  -1.179792  8.8e-05  -0.314746  -0.404942  0.000182  2.791056  0.0
N  N88  1  0.07480102  0.63312119  0.90918798  1  -1.213134  -0.003961  -0.313661  -0.404332  -0.00253  2.833395  -0.003
N  N89  1  0.42520322  0.13311990  0.59080808  1  -1.212805  0.003962  -0.313501  -0.404211  0.002531  2.833312  0.003
N  N90  1  0.92516659  0.36688425  0.09080978  1  -1.213191  0.003961  -0.313655  -0.404387  0.00253  2.833162  0.003
N  N91  1  0.57479883  0.86689311  0.40919961  1  -1.212638  -0.003964  -0.313681  -0.404299  -0.002532  2.833266  -0.003
O  O92  1  0.31078336  0.62446662  0.37686532  1  -1.069944  -0.110943  -0.320823  -0.546881  -0.073885  2.311584  -0.1
O  O93  1  0.18924031  0.12446514  0.12313367  1  -1.069713  0.11095  -0.320898  -0.546963  0.073889  2.311047  0.1
O  O94  1  0.68924721  0.37553427  0.62313083  1  -1.069854  0.110951  -0.320938  -0.547011  0.073891  2.311069  0.1
O  O95  1  0.81073943  0.87553499  0.87686953  1  -1.07007  -0.110943  -0.320899  -0.547051  -0.073885  2.31141  -0.1
O  O96  1  0.89288144  0.62024154  0.17092000  1  -1.090448  -0.122577  -0.3183  -0.525965  -0.081086  2.329639  -0.11
O  O97  1  0.60715667  0.12024571  0.32907557  1  -1.089735  0.122595  -0.318281  -0.525875  0.081095  2.329433  0.11
O  O98  1  0.10713692  0.37975329  0.82907936  1  -1.09049  0.122563  -0.318367  -0.526139  0.081076  2.329686  0.11
O  O99  1  0.39283324  0.87975443  0.67092611  1  -1.089726  -0.12254  -0.318241  -0.525863  -0.081058  2.329671  -0.11
O  O100  1  0.70593612  0.62356549  0.31935607  1  -1.182925  -0.000521  -0.316559  -0.574857  -0.000151  2.29009  -0.002
O  O101  1  0.79408975  0.12355481  0.18064625  1  -1.182617  0.000522  -0.316639  -0.575005  0.000152  2.289843  0.002
O  O102  1  0.29410659  0.37644526  0.68064609  1  -1.182907  0.000519  -0.316644  -0.575003  0.000151  2.290148  0.002
O  O103  1  0.20585751  0.87644002  0.81935571  1  -1.183538  -0.000519  -0.3166  -0.574926  -0.000151  2.290217  -0.002
O  O104  1  0.26260070  0.62192735  0.10043879  1  -1.187429  -0.001121  -0.316245  -0.566512  -0.000444  2.187001  -0.001
O  O105  1  0.23743310  0.12193342  0.39956150  1  -1.187038  0.00112  -0.316071  -0.566267  0.000443  2.186928  0.001
O  O106  1  0.73740145  0.37807885  0.89955620  1  -1.187459  0.001121  -0.316221  -0.566515  0.000444  2.186805  0.001
O  O107  1  0.76256080  0.87806596  0.60044776  1  -1.186945  -0.001123  -0.316051  -0.566359  -0.000445  2.186941  -0.001
