# generated using pymatgen
data_NdH3C2SO5
_symmetry_space_group_name_H-M   'P 1'
_cell_length_a   7.97527471
_cell_length_b   8.32285942
_cell_length_c   9.23557042
_cell_angle_alpha   95.17047384
_cell_angle_beta   90.00033891
_cell_angle_gamma   89.99987170
_symmetry_Int_Tables_number   1
_chemical_formula_structural   NdH3C2SO5
_chemical_formula_sum   'Nd4 H12 C8 S4 O20'
_cell_volume   610.53585375
_cell_formula_units_Z   4
loop_
 _symmetry_equiv_pos_site_id
 _symmetry_equiv_pos_as_xyz
  1  'x, y, z'
loop_
 _atom_site_type_symbol
 _atom_site_label
 _atom_site_symmetry_multiplicity
 _atom_site_fract_x
 _atom_site_fract_y
 _atom_site_fract_z
 _atom_site_occupancy
 _atom_site_hle17_bader_spin_density
 _atom_site_hle17_ddec_charge
 _atom_site_hle17_ddec_spin_density
 _atom_site_hle17_ddec_sum_bond_order
 _atom_site_hle17_magmom
 _atom_site_hse06_10hf_bader_spin_density
 _atom_site_hse06_10hf_ddec_charge
 _atom_site_hse06_10hf_ddec_spin_density
 _atom_site_hse06_10hf_ddec_sum_bond_order
 _atom_site_hse06_10hf_magmom
 _atom_site_hse06_bader_spin_density
 _atom_site_hse06_ddec_charge
 _atom_site_hse06_ddec_spin_density
 _atom_site_hse06_ddec_sum_bond_order
 _atom_site_hse06_magmom
 _atom_site_pbe_bader_spin_density
 _atom_site_pbe_cm5_charge
 _atom_site_pbe_ddec_charge
 _atom_site_pbe_ddec_spin_density
 _atom_site_pbe_ddec_sum_bond_order
 _atom_site_pbe_magmom
Nd  Nd0  1  0.25018040  0.49673281  0.43774658  1  0  2.333439  0  1.658835  0  0  2.186342  0  2.105936  0  0  2.275492  0  1.976125  0  0  1.526334  2.153542  0  2.141873  0
Nd  Nd1  1  0.75018173  0.00326973  0.56225433  1  0  2.333374  0  1.658863  0  0  2.186218  0  2.10602  0  0  2.275408  0  1.976154  0  0  1.526289  2.153437  0  2.141929  0
Nd  Nd2  1  0.74981502  0.50326497  0.56225190  1  0  2.33341  0  1.658804  0  0  2.186274  0  2.105941  0  0  2.275446  0  1.976093  0  0  1.526295  2.153448  0  2.141922  0
Nd  Nd3  1  0.24981996  0.99673170  0.43774876  1  0  2.333417  0  1.658814  0  0  2.186311  0  2.105915  0  0  2.275461  0  1.976108  0  0  1.526308  2.153517  0  2.141841  0
H  H4  1  0.56468661  0.31067566  0.13503150  1  0  0.14999  0  0.930704  0  0  0.168764  0  0.989093  0  0  0.171601  0  0.987397  0  0  0.106913  0.166777  0  0.990117  0
H  H5  1  0.06469018  0.18932839  0.86496751  1  0  0.14996  0  0.930689  0  0  0.1688  0  0.989009  0  0  0.171633  0  0.987316  0  0  0.106935  0.166812  0  0.990034  0
H  H6  1  0.43531508  0.68932697  0.86496952  1  0  0.149976  0  0.930721  0  0  0.168747  0  0.989109  0  0  0.171592  0  0.987403  0  0  0.106903  0.166757  0  0.990134  0
H  H7  1  0.93531401  0.81067420  0.13502809  1  0  0.150007  0  0.930674  0  0  0.16877  0  0.989076  0  0  0.171613  0  0.987374  0  0  0.106921  0.166783  0  0.9901  0
H  H8  1  0.37834031  0.33326358  0.03557918  1  0  0.150945  0  0.949795  0  0  0.166908  0  1.015307  0  0  0.169485  0  1.014545  0  0  0.106709  0.16516  0  1.015646  0
H  H9  1  0.87834026  0.16673634  0.96442327  1  0  0.150969  0  0.949752  0  0  0.16692  0  1.01529  0  0  0.169497  0  1.014526  0  0  0.106707  0.165171  0  1.015629  0
H  H10  1  0.62166263  0.66673665  0.96442382  1  0  0.150966  0  0.949789  0  0  0.166912  0  1.015318  0  0  0.169488  0  1.014559  0  0  0.106699  0.165162  0  1.015657  0
H  H11  1  0.12166268  0.83326386  0.03557648  1  0  0.15099  0  0.949777  0  0  0.166947  0  1.015301  0  0  0.169524  0  1.014539  0  0  0.106716  0.165198  0  1.01564  0
H  H12  1  0.50587421  0.15686521  0.99422492  1  0  0.1484  0  0.959916  0  0  0.162902  0  1.024474  0  0  0.165939  0  1.022952  0  0  0.098355  0.160802  0  1.025302  0
H  H13  1  0.00587277  0.34313652  0.00577253  1  0  0.148394  0  0.959917  0  0  0.162898  0  1.024477  0  0  0.165933  0  1.022958  0  0  0.098366  0.160798  0  1.025305  0
H  H14  1  0.49413124  0.84313619  0.00577384  1  0  0.148416  0  0.959908  0  0  0.162885  0  1.024498  0  0  0.165922  0  1.022976  0  0  0.098352  0.160785  0  1.025326  0
H  H15  1  0.99412515  0.65686365  0.99422072  1  0  0.148398  0  0.959949  0  0  0.162891  0  1.024506  0  0  0.165926  0  1.022989  0  0  0.098367  0.160791  0  1.025335  0
C  C16  1  0.36250083  0.16260894  0.19136047  1  0  0.810344  0  3.761727  0  0  0.776433  0  4.044237  0  0  0.810272  0  4.038459  0  0  0.226022  0.753067  0  4.050682  0
C  C17  1  0.86250434  0.33738619  0.80864153  1  0  0.810583  0  3.761351  0  0  0.776615  0  4.043932  0  0  0.810459  0  4.038153  0  0  0.226115  0.753249  0  4.050378  0
C  C18  1  0.63749960  0.83738887  0.80864126  1  0  0.810575  0  3.761472  0  0  0.77661  0  4.04404  0  0  0.810451  0  4.038266  0  0  0.226138  0.753243  0  4.050485  0
C  C19  1  0.13749985  0.66260920  0.19135893  1  0  0.810316  0  3.761672  0  0  0.776446  0  4.044122  0  0  0.810287  0  4.038346  0  0  0.226063  0.753083  0  4.050565  0
C  C20  1  0.46002427  0.24401160  0.08093101  1  0  -0.469184  0  3.63177  0  0  -0.545669  0  3.859648  0  0  -0.553441  0  3.861103  0  0  -0.238581  -0.539812  0  3.857876  0
C  C21  1  0.96002497  0.25598696  0.91906850  1  0  -0.469217  0  3.631708  0  0  -0.545749  0  3.859642  0  0  -0.553519  0  3.861095  0  0  -0.238627  -0.539891  0  3.857873  0
C  C22  1  0.53997867  0.75598861  0.91906873  1  0  -0.469222  0  3.631836  0  0  -0.545656  0  3.859774  0  0  -0.553436  0  3.861224  0  0  -0.238557  -0.539796  0  3.858004  0
C  C23  1  0.03997798  0.74401321  0.08092583  1  0  -0.469243  0  3.631726  0  0  -0.545714  0  3.859606  0  0  -0.553489  0  3.861052  0  0  -0.238626  -0.539857  0  3.857838  0
S  S24  1  0.61764165  0.73087265  0.31373139  1  0  1.044781  0  4.338612  0  0  0.956649  0  4.824968  0  0  0.995469  0  4.814859  0  0  0.426853  0.92891  0  4.840749  0
S  S25  1  0.11764256  0.76912666  0.68626880  1  0  1.044818  0  4.338583  0  0  0.956689  0  4.824939  0  0  0.995505  0  4.814832  0  0  0.426848  0.928948  0  4.840729  0
S  S26  1  0.38235627  0.26912877  0.68627062  1  0  1.044757  0  4.338629  0  0  0.956618  0  4.824993  0  0  0.995441  0  4.814881  0  0  0.426813  0.928879  0  4.840776  0
S  S27  1  0.88235035  0.23086994  0.31373284  1  0  1.04475  0  4.338661  0  0  0.95661  0  4.825031  0  0  0.995429  0  4.814925  0  0  0.426807  0.92887  0  4.840816  0
O  O28  1  0.53063187  0.58581823  0.37905706  1  0  -0.893628  0  2.084348  0  0  -0.827813  0  2.384475  0  0  -0.860847  0  2.36699  0  0  -0.487132  -0.811833  0  2.396755  0
O  O29  1  0.03063450  0.91418243  0.62094170  1  0  -0.893621  0  2.084306  0  0  -0.827803  0  2.384438  0  0  -0.86084  0  2.366957  0  0  -0.487109  -0.811832  0  2.396723  0
O  O30  1  0.46936354  0.41418318  0.62094278  1  0  -0.893615  0  2.084316  0  0  -0.827795  0  2.384437  0  0  -0.860832  0  2.366956  0  0  -0.487116  -0.811814  0  2.396716  0
O  O31  1  0.96936468  0.08581777  0.37905697  1  0  -0.893589  0  2.084306  0  0  -0.827769  0  2.384426  0  0  -0.860803  0  2.366943  0  0  -0.487081  -0.811795  0  2.396709  0
O  O32  1  0.78776145  0.73650717  0.39427957  1  0  -0.838795  0  2.038898  0  0  -0.783895  0  2.325459  0  0  -0.814804  0  2.313213  0  0  -0.435799  -0.767957  0  2.334609  0
O  O33  1  0.28776307  0.76349307  0.60572263  1  0  -0.838845  0  2.038953  0  0  -0.783958  0  2.325529  0  0  -0.814859  0  2.313283  0  0  -0.4358  -0.76802  0  2.334681  0
O  O34  1  0.21223773  0.26349305  0.60572343  1  0  -0.83881  0  2.039017  0  0  -0.783926  0  2.325601  0  0  -0.814828  0  2.313354  0  0  -0.435777  -0.76799  0  2.334754  0
O  O35  1  0.71223360  0.23650840  0.39428804  1  0  -0.838891  0  2.039034  0  0  -0.783983  0  2.325584  0  0  -0.814892  0  2.313342  0  0  -0.435825  -0.76804  0  2.334732  0
O  O36  1  0.53149297  0.88507665  0.38803969  1  0  -0.894271  0  2.114608  0  0  -0.827653  0  2.411809  0  0  -0.861242  0  2.396982  0  0  -0.492257  -0.810949  0  2.422051  0
O  O37  1  0.03148871  0.61492523  0.61196133  1  0  -0.894311  0  2.114634  0  0  -0.827691  0  2.411833  0  0  -0.861274  0  2.39699  0  0  -0.492268  -0.810964  0  2.422045  0
O  O38  1  0.46850746  0.11492478  0.61196232  1  0  -0.89426  0  2.114616  0  0  -0.827622  0  2.411783  0  0  -0.861225  0  2.396981  0  0  -0.492253  -0.810919  0  2.422026  0
O  O39  1  0.96850671  0.38507375  0.38803399  1  0  -0.894183  0  2.114568  0  0  -0.827557  0  2.411746  0  0  -0.861148  0  2.396926  0  0  -0.492209  -0.810862  0  2.422025  0
O  O40  1  0.32888227  0.24235217  0.31622203  1  0  -0.866588  0  2.088806  0  0  -0.810009  0  2.357313  0  0  -0.846111  0  2.343006  0  0  -0.484729  -0.791986  0  2.365962  0
O  O41  1  0.82888259  0.25764663  0.68378008  1  0  -0.866626  0  2.088772  0  0  -0.81002  0  2.357303  0  0  -0.846134  0  2.342999  0  0  -0.484753  -0.791997  0  2.36595  0
O  O42  1  0.67111817  0.75764564  0.68377970  1  0  -0.866598  0  2.088753  0  0  -0.809983  0  2.357262  0  0  -0.846097  0  2.342959  0  0  -0.484707  -0.79196  0  2.36591  0
O  O43  1  0.17111659  0.74235117  0.31622057  1  0  -0.866545  0  2.088849  0  0  -0.809968  0  2.35733  0  0  -0.846074  0  2.343024  0  0  -0.484718  -0.791948  0  2.365976  0
O  O44  1  0.31334024  0.01817645  0.17074259  1  0  -0.675404  0  1.916771  0  0  -0.62291  0  2.136467  0  0  -0.651777  0  2.127596  0  0  -0.352676  -0.605672  0  2.141555  0
O  O45  1  0.81333728  0.48182356  0.82925629  1  0  -0.675548  0  1.916524  0  0  -0.623025  0  2.136238  0  0  -0.651884  0  2.127341  0  0  -0.352727  -0.605783  0  2.141328  0
O  O46  1  0.68666521  0.98182736  0.82925527  1  0  -0.67559  0  1.916569  0  0  -0.623049  0  2.136269  0  0  -0.651917  0  2.127388  0  0  -0.352787  -0.605813  0  2.141358  0
O  O47  1  0.18665939  0.51817543  0.17074012  1  0  -0.675391  0  1.916703  0  0  -0.622942  0  2.136412  0  0  -0.6518  0  2.127524  0  0  -0.352714  -0.605701  0  2.141502  0
