# generated using pymatgen
data_CoH7C7N7O2
_symmetry_space_group_name_H-M   'P 1'
_cell_length_a   6.18228691
_cell_length_b   8.34296705
_cell_length_c   10.64852694
_cell_angle_alpha   107.59502798
_cell_angle_beta   103.61899842
_cell_angle_gamma   95.63818003
_symmetry_Int_Tables_number   1
_chemical_formula_structural   CoH7C7N7O2
_chemical_formula_sum   'Co2 H14 C14 N14 O4'
_cell_volume   500.23963192
_cell_formula_units_Z   2
loop_
 _symmetry_equiv_pos_site_id
 _symmetry_equiv_pos_as_xyz
  1  'x, y, z'
loop_
 _atom_site_type_symbol
 _atom_site_label
 _atom_site_symmetry_multiplicity
 _atom_site_fract_x
 _atom_site_fract_y
 _atom_site_fract_z
 _atom_site_occupancy
 _atom_site_hle17_ddec_charge
 _atom_site_hle17_ddec_spin_density
 _atom_site_hle17_ddec_sum_bond_order
 _atom_site_hle17_magmom
 _atom_site_hse06_10hf_ddec_charge
 _atom_site_hse06_10hf_ddec_spin_density
 _atom_site_hse06_10hf_ddec_sum_bond_order
 _atom_site_hse06_10hf_magmom
 _atom_site_pbe_cm5_charge
 _atom_site_pbe_ddec_charge
 _atom_site_pbe_ddec_spin_density
 _atom_site_pbe_ddec_sum_bond_order
 _atom_site_pbe_magmom
Co  Co0  1  0.00000309  0.99999840  0.00000169  1  0.969738  2.827456  2.428978  2.486  0.760254  1.045167  2.982508  0.919  0.654045  0.735902  1.128379  3.020387  0.997
Co  Co1  1  0.49999789  0.99999847  0.99999750  1  0.971267  -2.831343  2.444568  -2.491  0.761201  -1.051359  2.999331  -0.928  0.659545  0.737462  -1.130352  3.03639  -0.999
H  H2  1  0.72858755  0.60234015  0.12742861  1  0.120727  0.000143  0.946226  0.0  0.137392  7.1e-05  1.011636  0.0  0.113637  0.13434  7.1e-05  1.014116  0.0
H  H3  1  0.27141086  0.39766042  0.87257163  1  0.120764  0.000143  0.946282  0.0  0.137407  7.1e-05  1.011705  0.0  0.113645  0.134355  7.1e-05  1.014188  0.0
H  H4  1  0.86081685  0.42397500  0.13717895  1  0.130715  2e-05  0.944976  0.0  0.14567  1.8e-05  1.015163  0.0  0.111378  0.142598  2.6e-05  1.016672  0.0
H  H5  1  0.13918552  0.57602812  0.86282244  1  0.130731  2.1e-05  0.944951  0.0  0.145697  1.9e-05  1.01512  0.0  0.111398  0.142629  2.6e-05  1.016626  0.0
H  H6  1  0.02219934  0.61188822  0.13374208  1  0.123815  -0.000196  0.95044  0.0  0.143208  -0.000183  1.014504  0.0  0.115682  0.139828  -0.000243  1.016119  0.0
H  H7  1  0.97780505  0.38811615  0.86625707  1  0.123773  -0.000196  0.950481  0.0  0.14317  -0.000183  1.014554  0.0  0.115655  0.139789  -0.000244  1.016166  0.0
H  H8  1  0.65289989  0.74454457  0.31648952  1  0.106309  0.00032  0.979372  0.0  0.111619  0.000351  1.049158  0.0  0.126878  0.106281  0.000343  1.054813  0.0
H  H9  1  0.34710356  0.25544959  0.68351087  1  0.106282  0.000319  0.979374  0.0  0.11158  0.000351  1.049173  0.0  0.126861  0.106261  0.000343  1.05481  0.0
H  H10  1  0.75031002  0.87514662  0.57077558  1  0.134231  0.000389  0.959188  0.0  0.140195  0.000358  1.025566  0.0  0.115586  0.134751  0.000457  1.029262  0.0
H  H11  1  0.24969143  0.12485264  0.42922197  1  0.134249  0.000389  0.959202  0.0  0.140218  0.000358  1.025577  0.0  0.115588  0.134774  0.000457  1.02927  0.0
H  H12  1  0.37102365  0.67309181  0.59607230  1  0.128301  -0.000119  0.929259  0.0  0.13604  -8.4e-05  0.989284  0.0  0.118169  0.131943  -6.3e-05  0.991916  0.0
H  H13  1  0.62897578  0.32691257  0.40392427  1  0.128322  -0.000119  0.92921  0.0  0.136083  -8.5e-05  0.989211  0.0  0.118205  0.131987  -6.3e-05  0.991841  0.0
H  H14  1  0.24844528  0.54561277  0.33706015  1  0.103565  0.000462  0.974909  0.0  0.107634  0.000123  1.044559  0.0  0.126362  0.103616  0.000152  1.04894  0.0
H  H15  1  0.75155417  0.45438523  0.66293869  1  0.103593  0.000461  0.974903  0.0  0.107665  0.000123  1.044537  0.0  0.126385  0.103659  0.000152  1.048907  0.0
C  C16  1  0.88573540  0.56406319  0.16978129  1  -0.19681  -0.000119  3.563114  0.0  -0.305767  -5.6e-05  3.813321  0.0  -0.13189  -0.305752  -7.5e-05  3.813614  0.0
C  C17  1  0.11426998  0.43593863  0.83022022  1  -0.196837  -0.00012  3.563131  0.0  -0.305778  -5.6e-05  3.813365  0.0  -0.131898  -0.305764  -7.5e-05  3.813662  0.0
C  C18  1  0.80788164  0.72915491  0.38225341  1  0.088619  3e-05  3.582497  0.0  0.051961  0.000483  3.820678  0.001  0.063902  0.042218  -3.9e-05  3.821259  0.0
C  C19  1  0.19211450  0.27083672  0.61774725  1  0.088624  3.1e-05  3.582347  0.0  0.052041  0.000483  3.820518  0.001  0.063953  0.042281  -3.9e-05  3.821088  0.0
C  C20  1  0.86274975  0.79985321  0.52348122  1  -0.11671  0.000117  3.682762  0.0  -0.137156  0.000358  3.926983  0.001  -0.07091  -0.136221  0.000785  3.925592  0.001
C  C21  1  0.13725068  0.20014861  0.47651678  1  -0.116677  0.000116  3.682683  0.0  -0.137144  0.000358  3.926897  0.001  -0.070885  -0.136209  0.000786  3.925509  0.001
C  C22  1  0.06670808  0.77943795  0.60351063  1  0.01562  6.8e-05  3.706596  0.0  0.029165  0.000528  3.944046  0.001  0.013324  0.021915  0.000206  3.942853  0.0
C  C23  1  0.93329234  0.22056388  0.39648830  1  0.015629  6.9e-05  3.706623  0.0  0.029159  0.000528  3.94405  0.001  0.013323  0.021906  0.000206  3.942855  0.0
C  C24  1  0.21003819  0.68830586  0.53668348  1  -0.109506  0.000723  3.702568  0.001  -0.133469  -0.000311  3.958176  0.0  -0.069467  -0.131745  -0.000672  3.953726  -0.001
C  C25  1  0.78996222  0.31169597  0.46331546  1  -0.109484  0.000722  3.70248  0.001  -0.133495  -0.000311  3.958116  0.0  -0.069483  -0.13177  -0.000672  3.95367  -0.001
C  C26  1  0.14614208  0.61807651  0.39565006  1  0.082882  0.001775  3.613541  0.003  0.045735  0.000784  3.86117  0.001  0.060389  0.03662  0.001229  3.858681  0.002
C  C27  1  0.85386230  0.38192786  0.60434909  1  0.082804  0.001776  3.613485  0.003  0.045722  0.000784  3.8611  0.001  0.060363  0.036598  0.001229  3.858606  0.002
C  C28  1  0.13268838  0.85473178  0.75566150  1  0.620597  0.000514  3.841304  0.0  0.571749  0.000711  4.10904  0.001  0.216903  0.541853  0.000291  4.121321  0.0
C  C29  1  0.86730933  0.14527263  0.24433860  1  0.620444  0.000513  3.841447  0.0  0.571711  0.00071  4.109029  0.001  0.216927  0.541816  0.00029  4.121308  0.0
N  N30  1  0.36590720  0.87996985  0.29990326  1  -0.396439  -0.001837  2.398681  -0.002  -0.434717  -0.000157  2.656797  0.001  -0.205518  -0.404464  -0.000533  2.636692  0.0
N  N31  1  0.63409648  0.12003199  0.70010084  1  -0.396367  -0.001841  2.399048  -0.002  -0.43464  -0.000158  2.657179  0.001  -0.205521  -0.404401  -0.000535  2.637085  0.0
N  N32  1  0.31064203  0.86224263  0.18250490  1  0.399096  0.001096  4.195499  0.002  0.433143  0.000402  4.512386  0.001  0.077312  0.419548  0.000483  4.481252  0.001
N  N33  1  0.68935646  0.13775790  0.81748877  1  0.399169  0.001097  4.195614  0.002  0.433211  0.000402  4.512511  0.001  0.077368  0.419616  0.000482  4.481372  0.001
N  N34  1  0.25380980  0.84339651  0.06196222  1  -0.558912  -0.001346  2.725544  -0.003  -0.555515  6e-06  3.056613  0.0  -0.285103  -0.532135  -0.000361  3.046136  -0.001
N  N35  1  0.74619253  0.15660662  0.93804199  1  -0.559009  -0.001351  2.725276  -0.003  -0.555619  3e-06  3.056352  0.0  -0.285097  -0.532224  -0.000363  3.04586  -0.001
N  N36  1  0.27379495  0.15228026  0.01072171  1  -0.575442  0.000452  3.038335  0.0  -0.513544  0.000304  3.376384  0.001  -0.327221  -0.493202  -0.000153  3.373836  0.0
N  N37  1  0.72620058  0.84771517  0.98927223  1  -0.575524  0.000453  3.038449  0.0  -0.513552  0.000304  3.376429  0.001  -0.327242  -0.49321  -0.000153  3.373881  0.0
N  N38  1  0.32911053  0.29670027  0.09217503  1  0.424915  0.000423  4.125239  0.001  0.457451  -0.000378  4.401226  -0.001  0.107008  0.443334  -0.000293  4.379808  0.0
N  N39  1  0.67088799  0.70329389  0.90782091  1  0.424891  0.000421  4.12554  0.001  0.457389  -0.000378  4.401532  -0.001  0.107015  0.443273  -0.000294  4.380114  0.0
N  N40  1  0.38282315  0.43769843  0.16619005  1  -0.362269  0.000291  2.410063  0.001  -0.351024  -0.001029  2.640705  -0.001  -0.152624  -0.33564  -0.000716  2.628987  -0.001
N  N41  1  0.61717695  0.56229574  0.83381175  1  -0.362154  0.00029  2.41015  0.001  -0.350892  -0.001029  2.640792  -0.001  -0.152576  -0.335509  -0.000717  2.629077  -0.001
N  N42  1  0.94670040  0.63822939  0.32032523  1  0.039061  0.000784  3.541809  0.001  0.14379  0.000635  3.745559  0.001  -0.211158  0.145807  0.000356  3.733742  0.001
N  N43  1  0.05329871  0.36176734  0.67967421  1  0.039075  0.000785  3.541687  0.001  0.143689  0.000635  3.745542  0.001  -0.211192  0.145706  0.000357  3.733734  0.001
O  O44  1  0.34446013  0.87825879  0.81451589  1  -0.586907  -0.057662  2.238077  -0.094  -0.492974  -0.00209  2.498096  -0.003  -0.284788  -0.472262  -0.006105  2.504229  -0.01
O  O45  1  0.65553699  0.12174304  0.18547977  1  -0.586765  -0.057664  2.238101  -0.094  -0.49286  -0.002091  2.498044  -0.003  -0.284739  -0.472145  -0.006106  2.504174  -0.01
O  O46  1  0.97223173  0.88594175  0.81109260  1  -0.586003  0.05562  2.207537  0.091  -0.491364  0.002256  2.461013  0.003  -0.284708  -0.469968  0.005846  2.466894  0.009
O  O47  1  0.02776860  0.11406649  0.18890876  1  -0.58599  0.055619  2.207528  0.091  -0.491439  0.002255  2.461011  0.003  -0.284786  -0.470045  0.005845  2.466889  0.009
