# generated using pymatgen
data_CuH9C11IN3O
_symmetry_space_group_name_H-M   'P 1'
_cell_length_a   8.58250629
_cell_length_b   8.93129993
_cell_length_c   9.15125507
_cell_angle_alpha   70.09562197
_cell_angle_beta   69.58858739
_cell_angle_gamma   85.25798887
_symmetry_Int_Tables_number   1
_chemical_formula_structural   CuH9C11IN3O
_chemical_formula_sum   'Cu2 H18 C22 I2 N6 O2'
_cell_volume   617.63579619
_cell_formula_units_Z   2
loop_
 _symmetry_equiv_pos_site_id
 _symmetry_equiv_pos_as_xyz
  1  'x, y, z'
loop_
 _atom_site_type_symbol
 _atom_site_label
 _atom_site_symmetry_multiplicity
 _atom_site_fract_x
 _atom_site_fract_y
 _atom_site_fract_z
 _atom_site_occupancy
 _atom_site_hle17_bader_spin_density
 _atom_site_hle17_ddec_charge
 _atom_site_hle17_ddec_spin_density
 _atom_site_hle17_ddec_sum_bond_order
 _atom_site_hle17_magmom
 _atom_site_hse06_10hf_bader_spin_density
 _atom_site_hse06_10hf_ddec_charge
 _atom_site_hse06_10hf_ddec_spin_density
 _atom_site_hse06_10hf_ddec_sum_bond_order
 _atom_site_hse06_10hf_magmom
 _atom_site_hse06_bader_spin_density
 _atom_site_hse06_ddec_charge
 _atom_site_hse06_ddec_spin_density
 _atom_site_hse06_ddec_sum_bond_order
 _atom_site_hse06_magmom
 _atom_site_pbe_bader_spin_density
 _atom_site_pbe_cm5_charge
 _atom_site_pbe_ddec_charge
 _atom_site_pbe_ddec_spin_density
 _atom_site_pbe_ddec_sum_bond_order
 _atom_site_pbe_magmom
Cu  Cu0  1  0.43445553  0.38930389  0.13600132  1  0  0.281429  0  2.169408  0  0  0.181866  0  2.666422  0  0  0.189078  0  2.614698  0  0  0.341638  0.181247  0  2.697803  0
Cu  Cu1  1  0.56554236  0.61069489  0.86399830  1  0  0.281412  0  2.169354  0  0  0.181838  0  2.666366  0  0  0.189075  0  2.614625  0  0  0.341648  0.181223  0  2.697769  0
H  H2  1  0.22603735  0.37616036  0.46670105  1  0  0.076691  0  0.966165  0  0  0.072702  0  1.053943  0  0  0.077665  0  1.047543  0  0  0.105795  0.068966  0  1.058701  0
H  H3  1  0.77396476  0.62385035  0.53329426  1  0  0.076732  0  0.966188  0  0  0.072763  0  1.053914  0  0  0.07771  0  1.047529  0  0  0.105857  0.069028  0  1.058673  0
H  H4  1  0.24322552  0.29630375  0.74924189  1  0  0.102876  0  0.953599  0  0  0.114271  0  1.01161  0  0  0.117425  0  1.010765  0  0  0.10486  0.11193  0  1.01253  0
H  H5  1  0.75677664  0.70370814  0.25075191  1  0  0.102828  0  0.953674  0  0  0.114255  0  1.011633  0  0  0.117406  0  1.010793  0  0  0.104848  0.111918  0  1.012559  0
H  H6  1  0.51765509  0.21396572  0.78751974  1  0  0.100457  0  0.962233  0  0  0.109986  0  1.025661  0  0  0.113265  0  1.023065  0  0  0.096429  0.107397  0  1.027832  0
H  H7  1  0.48234320  0.78604262  0.21248090  1  0  0.100458  0  0.962245  0  0  0.109969  0  1.025683  0  0  0.113245  0  1.02309  0  0  0.096405  0.107379  0  1.027858  0
H  H8  1  0.72521077  0.29897376  0.26120832  1  0  0.076265  0  0.975216  0  0  0.080509  0  1.049196  0  0  0.083795  0  1.046136  0  0  0.100649  0.078034  0  1.051493  0
H  H9  1  0.27478583  0.70102383  0.73879321  1  0  0.076285  0  0.975204  0  0  0.080536  0  1.049165  0  0  0.083823  0  1.046107  0  0  0.100664  0.078042  0  1.05148  0
H  H10  1  0.03970784  0.13481041  0.70147872  1  0  0.095955  0  0.957338  0  0  0.104107  0  1.025188  0  0  0.107016  0  1.022477  0  0  0.103859  0.101925  0  1.027288  0
H  H11  1  0.96029254  0.86518838  0.29852009  1  0  0.095984  0  0.957315  0  0  0.104108  0  1.025201  0  0  0.107016  0  1.022488  0  0  0.103859  0.101929  0  1.027297  0
H  H12  1  0.05558629  0.86765538  0.90933395  1  0  0.097731  0  0.980039  0  0  0.106451  0  1.042995  0  0  0.109781  0  1.042513  0  0  0.090272  0.10407  0  1.043407  0
H  H13  1  0.94441528  0.13234221  0.09066378  1  0  0.097751  0  0.980067  0  0  0.106449  0  1.043043  0  0  0.10978  0  1.04256  0  0  0.090251  0.104067  0  1.043455  0
H  H14  1  0.84823066  0.64995037  0.98182797  1  0  0.074078  0  0.940691  0  0  0.078767  0  1.013285  0  0  0.082785  0  1.008472  0  0  0.10619  0.075668  0  1.016958  0
H  H15  1  0.15177340  0.35004722  0.01816894  1  0  0.074017  0  0.940729  0  0  0.078726  0  1.013305  0  0  0.082753  0  1.008483  0  0  0.10616  0.075624  0  1.016979  0
H  H16  1  0.61552577  0.94144100  0.66702240  1  0  0.075156  0  0.952342  0  0  0.082651  0  1.017775  0  0  0.084936  0  1.016677  0  0  0.10916  0.080944  0  1.01875  0
H  H17  1  0.38447203  0.05855541  0.33297915  1  0  0.075189  0  0.952324  0  0  0.082674  0  1.01776  0  0  0.084961  0  1.016658  0  0  0.109181  0.080967  0  1.018732  0
H  H18  1  0.03696643  0.48840853  0.27808812  1  0  0.326091  0  0.940301  0  0  0.299568  0  1.028427  0  0  0.31049  0  1.015969  0  0  0.274009  0.291779  0  1.037006  0
H  H19  1  0.96303032  0.51159265  0.72191325  1  0  0.326145  0  0.940397  0  0  0.299612  0  1.02853  0  0  0.310537  0  1.016069  0  0  0.274015  0.291824  0  1.037109  0
C  C20  1  0.34267282  0.33884835  0.48785963  1  0  0.125563  0  3.677971  0  0  0.092015  0  3.936169  0  0  0.09977  0  3.95167  0  0  0.03756  0.086963  0  3.926093  0
C  C21  1  0.65732780  0.66115644  0.51214472  1  0  0.125518  0  3.678043  0  0  0.091991  0  3.936232  0  0  0.099756  0  3.951737  0  0  0.037525  0.086936  0  3.926166  0
C  C22  1  0.35314954  0.29322318  0.64516658  1  0  -0.111556  0  3.745557  0  0  -0.120588  0  3.991925  0  0  -0.12841  0  4.013369  0  0  -0.08651  -0.115772  0  3.977983  0
C  C23  1  0.64685128  0.70678636  0.35483392  1  0  -0.111529  0  3.745486  0  0  -0.120597  0  3.991858  0  0  -0.128418  0  4.013299  0  0  -0.086462  -0.115789  0  3.977925  0
C  C24  1  0.50500362  0.24752991  0.66605399  1  0  -0.040759  0  3.691667  0  0  -0.067433  0  3.935216  0  0  -0.062304  0  3.951489  0  0  -0.068311  -0.070949  0  3.924772  0
C  C25  1  0.49499561  0.75247126  0.33394657  1  0  -0.040764  0  3.69176  0  0  -0.067425  0  3.935305  0  0  -0.062293  0  3.951578  0  0  -0.068311  -0.070942  0  3.924869  0
C  C26  1  0.64410841  0.25130798  0.52651800  1  0  -0.022181  0  3.757752  0  0  0.001809  0  3.988436  0  0  -0.00485  0  4.010492  0  0  -0.00603  0.005786  0  3.973955  0
C  C27  1  0.35589331  0.74869320  0.47348065  1  0  -0.022221  0  3.75778  0  0  0.001804  0  3.988458  0  0  -0.004858  0  4.010513  0  0  -0.006022  0.005784  0  3.97397  0
C  C28  1  0.62206014  0.29652011  0.37313317  1  0  0.097604  0  3.651012  0  0  0.06029  0  3.894984  0  0  0.067939  0  3.910114  0  0  0.041343  0.055128  0  3.885582  0
C  C29  1  0.37794402  0.70347988  0.62686727  1  0  0.097616  0  3.650954  0  0  0.060315  0  3.894907  0  0  0.067962  0  3.910039  0  0  0.041385  0.05518  0  3.885496  0
C  C30  1  0.81001744  0.20981514  0.54211806  1  0  0.132887  0  3.752189  0  0  0.114804  0  4.016179  0  0  0.124341  0  4.03264  0  0  0.118178  0.108763  0  4.005156  0
C  C31  1  0.18998274  0.79017891  0.45788787  1  0  0.133012  0  3.752082  0  0  0.114808  0  4.016247  0  0  0.124348  0  4.032708  0  0  0.118116  0.10876  0  4.005249  0
C  C32  1  0.82637089  0.05895139  0.66683550  1  0  -0.020264  0  3.788101  0  0  0.000114  0  4.02568  0  0  -0.007246  0  4.050213  0  0  -0.003093  0.00463  0  4.009434  0
C  C33  1  0.17362824  0.94104741  0.33316589  1  0  -0.020421  0  3.788174  0  0  -1e-06  0  4.025737  0  0  -0.007366  0  4.05027  0  0  -0.003108  0.004513  0  4.009485  0
C  C34  1  0.95181467  0.03685164  0.73707278  1  0  -0.031247  0  3.694433  0  0  -0.061875  0  3.944607  0  0  -0.05599  0  3.961048  0  0  -0.069801  -0.065843  0  3.933819  0
C  C35  1  0.04818193  0.96314594  0.26292658  1  0  -0.031199  0  3.69448  0  0  -0.061817  0  3.944653  0  0  -0.055925  0  3.961083  0  0  -0.069765  -0.065785  0  3.93386  0
C  C36  1  0.95997183  0.88986086  0.85204139  1  0  -0.120212  0  3.749493  0  0  -0.127446  0  3.996096  0  0  -0.135546  0  4.01696  0  0  -0.090935  -0.122411  0  3.982549  0
C  C37  1  0.04002965  0.11013434  0.14795499  1  0  -0.120307  0  3.749685  0  0  -0.127525  0  3.99628  0  0  -0.135627  0  4.017148  0  0  -0.090929  -0.122489  0  3.98273  0
C  C38  1  0.84422100  0.76804748  0.89443476  1  0  0.124062  0  3.688172  0  0  0.089577  0  3.944333  0  0  0.09789  0  3.95863  0  0  0.038264  0.08399  0  3.93532  0
C  C39  1  0.15578286  0.23194534  0.10556382  1  0  0.124235  0  3.688226  0  0  0.089766  0  3.94436  0  0  0.098064  0  3.958652  0  0  0.038333  0.08418  0  3.935343  0
C  C40  1  0.71492113  0.93048742  0.71795868  1  0  0.087495  0  3.658974  0  0  0.048564  0  3.909987  0  0  0.05532  0  3.925538  0  0  0.040367  0.044056  0  3.899997  0
C  C41  1  0.28507920  0.06951019  0.28204382  1  0  0.087471  0  3.659175  0  0  0.048571  0  3.91016  0  0  0.055323  0  3.9257  0  0  0.040334  0.044068  0  3.900162  0
I  I42  1  0.27840130  0.65716742  0.07491581  1  0  -0.451785  0  1.46429  0  0  -0.400915  0  1.867594  0  0  -0.417358  0  1.831048  0  0  -0.187961  -0.388345  0  1.890545  0
I  I43  1  0.72159655  0.34283017  0.92508531  1  0  -0.451787  0  1.464267  0  0  -0.40092  0  1.867577  0  0  -0.417361  0  1.831025  0  0  -0.187973  -0.388349  0  1.890527  0
N  N44  1  0.47456191  0.33894373  0.35332147  1  0  -0.27445  0  3.36519  0  0  -0.198616  0  3.651573  0  0  -0.211688  0  3.661298  0  0  -0.359499  -0.190946  0  3.645177  0
N  N45  1  0.52544364  0.66105983  0.64667403  1  0  -0.274393  0  3.365411  0  0  -0.198598  0  3.651799  0  0  -0.211666  0  3.661518  0  0  -0.359547  -0.19093  0  3.645414  0
N  N46  1  0.72305788  0.78754065  0.82835477  1  0  -0.267268  0  3.375768  0  0  -0.19455  0  3.666424  0  0  -0.206445  0  3.675289  0  0  -0.359262  -0.187663  0  3.660727  0
N  N47  1  0.27694365  0.21245577  0.17164664  1  0  -0.267299  0  3.375913  0  0  -0.194629  0  3.666613  0  0  -0.206496  0  3.675446  0  0  -0.359278  -0.187747  0  3.660906  0
N  N48  1  0.94588088  0.29727513  0.45392612  1  0  -0.131754  0  2.897681  0  0  -0.115718  0  3.188962  0  0  -0.119732  0  3.200058  0  0  -0.213272  -0.113749  0  3.181537  0
N  N49  1  0.05411587  0.70272604  0.54607416  1  0  -0.131799  0  2.897575  0  0  -0.115716  0  3.188854  0  0  -0.119728  0  3.199943  0  0  -0.213255  -0.113747  0  3.181431  0
O  O50  1  0.92284943  0.43909241  0.34060518  1  0  -0.402854  0  2.132512  0  0  -0.350901  0  2.365163  0  0  -0.371939  0  2.362094  0  0  -0.263905  -0.335588  0  2.366824  0
O  O51  1  0.07714463  0.56090400  0.65940085  1  0  -0.40294  0  2.132532  0  0  -0.350966  0  2.365163  0  0  -0.372008  0  2.362088  0  0  -0.263928  -0.335654  0  2.366825  0
