# generated using pymatgen
data_CuH6C5IN2
_symmetry_space_group_name_H-M   'P 1'
_cell_length_a   4.16414478
_cell_length_b   9.98500233
_cell_length_c   17.09278405
_cell_angle_alpha   97.70612275
_cell_angle_beta   90.00094610
_cell_angle_gamma   90.00124561
_symmetry_Int_Tables_number   1
_chemical_formula_structural   CuH6C5IN2
_chemical_formula_sum   'Cu4 H24 C20 I4 N8'
_cell_volume   704.28236073
_cell_formula_units_Z   4
loop_
 _symmetry_equiv_pos_site_id
 _symmetry_equiv_pos_as_xyz
  1  'x, y, z'
loop_
 _atom_site_type_symbol
 _atom_site_label
 _atom_site_symmetry_multiplicity
 _atom_site_fract_x
 _atom_site_fract_y
 _atom_site_fract_z
 _atom_site_occupancy
 _atom_site_hle17_bader_spin_density
 _atom_site_hle17_ddec_charge
 _atom_site_hle17_ddec_spin_density
 _atom_site_hle17_ddec_sum_bond_order
 _atom_site_hle17_magmom
 _atom_site_hse06_10hf_bader_spin_density
 _atom_site_hse06_10hf_ddec_charge
 _atom_site_hse06_10hf_ddec_spin_density
 _atom_site_hse06_10hf_ddec_sum_bond_order
 _atom_site_hse06_10hf_magmom
 _atom_site_hse06_bader_spin_density
 _atom_site_hse06_ddec_charge
 _atom_site_hse06_ddec_spin_density
 _atom_site_hse06_ddec_sum_bond_order
 _atom_site_hse06_magmom
 _atom_site_pbe_bader_spin_density
 _atom_site_pbe_cm5_charge
 _atom_site_pbe_ddec_charge
 _atom_site_pbe_ddec_spin_density
 _atom_site_pbe_ddec_sum_bond_order
 _atom_site_pbe_magmom
Cu  Cu0  1  0.14350568  0.96963543  0.55894911  1  0  0.275067  0  2.120864  0  0  0.192945  0  2.600522  0  0  0.206308  0  2.545527  0  0  0.247641  0.185069  0  2.638511  0
Cu  Cu1  1  0.64349207  0.53035854  0.94104855  1  0  0.27515  0  2.120767  0  0  0.193045  0  2.600417  0  0  0.2064  0  2.545351  0  0  0.247667  0.185162  0  2.638407  0
Cu  Cu2  1  0.85651520  0.03037608  0.44104847  1  0  0.275083  0  2.12083  0  0  0.192937  0  2.600469  0  0  0.206268  0  2.545449  0  0  0.247669  0.185057  0  2.638486  0
Cu  Cu3  1  0.35652400  0.46964002  0.05895400  1  0  0.275146  0  2.12079  0  0  0.193038  0  2.60043  0  0  0.206434  0  2.545338  0  0  0.247695  0.185148  0  2.638495  0
H  H4  1  0.91909376  0.81855896  0.68358665  1  0  0.06253  0  0.971995  0  0  0.069567  0  1.04513  0  0  0.07186  0  1.043016  0  0  0.09901  0.067818  0  1.046853  0
H  H5  1  0.41906158  0.68141857  0.81640698  1  0  0.062496  0  0.972017  0  0  0.069509  0  1.045193  0  0  0.071791  0  1.043086  0  0  0.098953  0.067756  0  1.046917  0
H  H6  1  0.08094393  0.18143324  0.31640611  1  0  0.062434  0  0.971992  0  0  0.069444  0  1.045176  0  0  0.071736  0  1.043062  0  0  0.098966  0.067696  0  1.046903  0
H  H7  1  0.58092808  0.31858614  0.18359833  1  0  0.06249  0  0.972183  0  0  0.069445  0  1.045399  0  0  0.071693  0  1.043326  0  0  0.098947  0.067696  0  1.04713  0
H  H8  1  0.97087891  0.82897616  0.82861147  1  0  0.110338  0  0.963017  0  0  0.120075  0  1.025642  0  0  0.123437  0  1.024991  0  0  0.09911  0.117635  0  1.02637  0
H  H9  1  0.47088474  0.67101303  0.67138317  1  0  0.110253  0  0.962807  0  0  0.120006  0  1.025519  0  0  0.123374  0  1.024859  0  0  0.099093  0.117565  0  1.026247  0
H  H10  1  0.02911796  0.17101806  0.17138143  1  0  0.110176  0  0.96286  0  0  0.119995  0  1.025514  0  0  0.123364  0  1.024855  0  0  0.099072  0.117564  0  1.026221  0
H  H11  1  0.52908090  0.32899156  0.32861862  1  0  0.110251  0  0.962909  0  0  0.120009  0  1.02557  0  0  0.123379  0  1.024908  0  0  0.099117  0.11757  0  1.026302  0
H  H12  1  0.21699519  0.94758861  0.95020889  1  0  0.305068  0  0.934403  0  0  0.289882  0  0.99973  0  0  0.296645  0  0.994452  0  0  0.280777  0.28445  0  1.004748  0
H  H13  1  0.71701233  0.55239916  0.54979159  1  0  0.305056  0  0.934456  0  0  0.289915  0  0.999731  0  0  0.296677  0  0.994456  0  0  0.280871  0.284481  0  1.00475  0
H  H14  1  0.78298966  0.05239368  0.04978906  1  0  0.304871  0  0.934586  0  0  0.289883  0  0.999678  0  0  0.296647  0  0.994401  0  0  0.280811  0.284449  0  1.0047  0
H  H15  1  0.28295331  0.44761256  0.45021244  1  0  0.304816  0  0.934782  0  0  0.289924  0  0.999757  0  0  0.296687  0  0.99448  0  0  0.280835  0.284489  0  1.00478  0
H  H16  1  0.41819637  0.10194376  0.95006240  1  0  0.304999  0  0.944273  0  0  0.288989  0  1.011009  0  0  0.295686  0  1.006112  0  0  0.273374  0.283757  0  1.015226  0
H  H17  1  0.91822382  0.39804874  0.54993803  1  0  0.305137  0  0.944062  0  0  0.28904  0  1.01088  0  0  0.295735  0  1.005993  0  0  0.27349  0.283811  0  1.015093  0
H  H18  1  0.58178128  0.89803967  0.04993972  1  0  0.305204  0  0.944149  0  0  0.289116  0  1.010944  0  0  0.295813  0  1.006053  0  0  0.273493  0.283883  0  1.015159  0
H  H19  1  0.08175383  0.60196375  0.45005844  1  0  0.30527  0  0.94398  0  0  0.2891  0  1.010864  0  0  0.295796  0  1.005972  0  0  0.273518  0.283869  0  1.015075  0
H  H20  1  0.53655507  0.19262196  0.82672001  1  0  0.108307  0  0.97895  0  0  0.116775  0  1.04561  0  0  0.119765  0  1.045574  0  0  0.09669  0.11473  0  1.045589  0
H  H21  1  0.03655592  0.30736964  0.67328107  1  0  0.108252  0  0.978967  0  0  0.116717  0  1.045634  0  0  0.119704  0  1.0456  0  0  0.096657  0.114672  0  1.045616  0
H  H22  1  0.46345381  0.80736753  0.17328251  1  0  0.108232  0  0.979024  0  0  0.116686  0  1.04571  0  0  0.119675  0  1.045676  0  0  0.096645  0.114642  0  1.045692  0
H  H23  1  0.96343133  0.69263685  0.32671734  1  0  0.108232  0  0.979134  0  0  0.11672  0  1.045751  0  0  0.119692  0  1.045734  0  0  0.096667  0.114673  0  1.045731  0
H  H24  1  0.47137652  0.16371401  0.68109380  1  0  0.064008  0  0.963693  0  0  0.070943  0  1.036732  0  0  0.073282  0  1.034264  0  0  0.100041  0.069124  0  1.038704  0
H  H25  1  0.97136802  0.33626804  0.81890966  1  0  0.063905  0  0.963695  0  0  0.070879  0  1.03672  0  0  0.073215  0  1.034261  0  0  0.100014  0.069081  0  1.038661  0
H  H26  1  0.52864676  0.83628263  0.31891155  1  0  0.064022  0  0.963671  0  0  0.070944  0  1.036744  0  0  0.07329  0  1.034263  0  0  0.100017  0.069121  0  1.038717  0
H  H27  1  0.02864566  0.66373750  0.18109043  1  0  0.06409  0  0.963731  0  0  0.071037  0  1.03675  0  0  0.073375  0  1.034287  0  0  0.100072  0.069239  0  1.0387  0
C  C28  1  0.05820464  0.89914721  0.71731235  1  0  0.133494  0  3.747974  0  0  0.10342  0  3.996742  0  0  0.11321  0  4.014668  0  0  0.027177  0.09706  0  3.9845  0
C  C29  1  0.55817944  0.60083180  0.78268627  1  0  0.133296  0  3.747615  0  0  0.103315  0  3.996442  0  0  0.113112  0  4.014371  0  0  0.027195  0.096961  0  3.984196  0
C  C30  1  0.94183064  0.10084003  0.28268301  1  0  0.133374  0  3.747998  0  0  0.103325  0  3.996818  0  0  0.113115  0  4.014743  0  0  0.027112  0.096967  0  3.984588  0
C  C31  1  0.44184624  0.39916896  0.21732169  1  0  0.133386  0  3.747854  0  0  0.103421  0  3.996624  0  0  0.113244  0  4.014573  0  0  0.027176  0.097062  0  3.9844  0
C  C32  1  0.08718578  0.90511857  0.79818416  1  0  -0.256507  0  3.720281  0  0  -0.264643  0  3.961671  0  0  -0.277333  0  3.98271  0  0  -0.107711  -0.256086  0  3.947408  0
C  C33  1  0.58718380  0.59486569  0.70181143  1  0  -0.256121  0  3.720211  0  0  -0.264384  0  3.961657  0  0  -0.277076  0  3.982701  0  0  -0.107623  -0.255829  0  3.947396  0
C  C34  1  0.91281348  0.09487070  0.20181133  1  0  -0.256083  0  3.720145  0  0  -0.264395  0  3.961582  0  0  -0.277091  0  3.982629  0  0  -0.107626  -0.255835  0  3.947333  0
C  C35  1  0.41279145  0.40513707  0.29819609  1  0  -0.256243  0  3.720344  0  0  -0.264482  0  3.961796  0  0  -0.277174  0  3.98283  0  0  -0.107702  -0.255927  0  3.947544  0
C  C36  1  0.26419970  0.01148357  0.84094656  1  0  0.375977  0  3.862328  0  0  0.364431  0  4.106052  0  0  0.38175  0  4.122012  0  0  0.114661  0.352784  0  4.094679  0
C  C37  1  0.76419325  0.48851549  0.65905658  1  0  0.375793  0  3.862189  0  0  0.364319  0  4.105928  0  0  0.381637  0  4.121892  0  0  0.114653  0.352674  0  4.094561  0
C  C38  1  0.73581157  0.98850680  0.15905192  1  0  0.37598  0  3.862288  0  0  0.364478  0  4.106079  0  0  0.381798  0  4.12204  0  0  0.114767  0.352832  0  4.094719  0
C  C39  1  0.23577480  0.51149816  0.34094465  1  0  0.375887  0  3.861993  0  0  0.364391  0  4.105786  0  0  0.381708  0  4.121752  0  0  0.114749  0.352744  0  4.094423  0
C  C40  1  0.39818501  0.10807653  0.79705960  1  0  -0.252434  0  3.712823  0  0  -0.261592  0  3.954102  0  0  -0.27442  0  3.975828  0  0  -0.106841  -0.253087  0  3.939414  0
C  C41  1  0.89818134  0.39191372  0.70294001  1  0  -0.252222  0  3.712725  0  0  -0.261394  0  3.954006  0  0  -0.274214  0  3.975738  0  0  -0.106729  -0.252891  0  3.939329  0
C  C42  1  0.60182146  0.89191600  0.20294313  1  0  -0.252207  0  3.71281  0  0  -0.261358  0  3.954059  0  0  -0.274184  0  3.975793  0  0  -0.106763  -0.252854  0  3.939374  0
C  C43  1  0.10180592  0.60810279  0.29705615  1  0  -0.252155  0  3.71283  0  0  -0.261364  0  3.954133  0  0  -0.27417  0  3.975874  0  0  -0.106791  -0.252857  0  3.939452  0
C  C44  1  0.36067846  0.09235988  0.71608182  1  0  0.137039  0  3.739564  0  0  0.108486  0  3.986206  0  0  0.118362  0  4.003915  0  0  0.030188  0.102083  0  3.974366  0
C  C45  1  0.86066888  0.40762582  0.78391381  1  0  0.136945  0  3.739591  0  0  0.108372  0  3.986305  0  0  0.11824  0  4.00402  0  0  0.030238  0.10196  0  3.974441  0
C  C46  1  0.63935443  0.90763360  0.28391922  1  0  0.13689  0  3.739649  0  0  0.108305  0  3.986281  0  0  0.118175  0  4.003989  0  0  0.030245  0.101909  0  3.974439  0
C  C47  1  0.13933759  0.59238156  0.21608056  1  0  0.136683  0  3.739618  0  0  0.108115  0  3.986313  0  0  0.117984  0  4.004026  0  0  0.030142  0.101701  0  3.974462  0
I  I48  1  0.32257948  0.18798233  0.49787550  1  0  -0.404236  0  1.736356  0  0  -0.352838  0  2.203507  0  0  -0.362958  0  2.154187  0  0  -0.174029  -0.345104  0  2.240072  0
I  I49  1  0.82255382  0.31202243  0.00213016  1  0  -0.40429  0  1.736338  0  0  -0.352856  0  2.203484  0  0  -0.363006  0  2.154142  0  0  -0.174027  -0.345118  0  2.240068  0
I  I50  1  0.67743419  0.81202825  0.50212435  1  0  -0.40426  0  1.736428  0  0  -0.352768  0  2.203399  0  0  -0.362902  0  2.154096  0  0  -0.174013  -0.345036  0  2.239948  0
I  I51  1  0.17744785  0.68797304  0.99787043  1  0  -0.404322  0  1.736461  0  0  -0.352849  0  2.2035  0  0  -0.36299  0  2.154161  0  0  -0.17401  -0.345116  0  2.240071  0
N  N52  1  0.19302555  0.98979023  0.67502288  1  0  -0.316119  0  3.391404  0  0  -0.242404  0  3.686026  0  0  -0.260677  0  3.696927  0  0  -0.38952  -0.23059  0  3.678315  0
N  N53  1  0.69301534  0.51018708  0.82497386  1  0  -0.315945  0  3.391018  0  0  -0.242325  0  3.685768  0  0  -0.260588  0  3.696654  0  0  -0.389595  -0.230508  0  3.678051  0
N  N54  1  0.80699532  0.01020826  0.32497733  1  0  -0.31611  0  3.391431  0  0  -0.242292  0  3.685946  0  0  -0.260557  0  3.696836  0  0  -0.389591  -0.230478  0  3.678241  0
N  N55  1  0.30700554  0.48980636  0.17502600  1  0  -0.315955  0  3.391043  0  0  -0.242246  0  3.685671  0  0  -0.260521  0  3.696569  0  0  -0.389495  -0.230433  0  3.678  0
N  N56  1  0.30680669  0.02003358  0.91994694  1  0  -0.647514  0  3.181342  0  0  -0.604082  0  3.400381  0  0  -0.624944  0  3.399686  0  0  -0.590597  -0.589695  0  3.402569  0
N  N57  1  0.80687388  0.47997480  0.58004999  1  0  -0.647673  0  3.180755  0  0  -0.604166  0  3.399876  0  0  -0.625028  0  3.399187  0  0  -0.590857  -0.589776  0  3.402068  0
N  N58  1  0.69315895  0.97995881  0.08005168  1  0  -0.64761  0  3.181361  0  0  -0.604236  0  3.400253  0  0  -0.625097  0  3.399553  0  0  -0.590801  -0.589848  0  3.402453  0
N  N59  1  0.19310857  0.52003784  0.41995117  1  0  -0.647615  0  3.180967  0  0  -0.60427  0  3.399906  0  0  -0.625131  0  3.399214  0  0  -0.590891  -0.589875  0  3.402101  0
