# generated using pymatgen
data_CdH6C10(Br3N)2
_symmetry_space_group_name_H-M   'P 1'
_cell_length_a   3.95836575
_cell_length_b   14.29133403
_cell_length_c   14.29146745
_cell_angle_alpha   89.99902179
_cell_angle_beta   90.00152771
_cell_angle_gamma   89.99993360
_symmetry_Int_Tables_number   1
_chemical_formula_structural   CdH6C10(Br3N)2
_chemical_formula_sum   'Cd2 H12 C20 Br12 N4'
_cell_volume   808.47298994
_cell_formula_units_Z   2
loop_
 _symmetry_equiv_pos_site_id
 _symmetry_equiv_pos_as_xyz
  1  'x, y, z'
loop_
 _atom_site_type_symbol
 _atom_site_label
 _atom_site_symmetry_multiplicity
 _atom_site_fract_x
 _atom_site_fract_y
 _atom_site_fract_z
 _atom_site_occupancy
 _atom_site_hle17_bader_spin_density
 _atom_site_hle17_ddec_charge
 _atom_site_hle17_ddec_spin_density
 _atom_site_hle17_ddec_sum_bond_order
 _atom_site_hle17_magmom
 _atom_site_hse06_10hf_bader_spin_density
 _atom_site_hse06_10hf_ddec_charge
 _atom_site_hse06_10hf_ddec_spin_density
 _atom_site_hse06_10hf_ddec_sum_bond_order
 _atom_site_hse06_10hf_magmom
 _atom_site_hse06_bader_spin_density
 _atom_site_hse06_ddec_charge
 _atom_site_hse06_ddec_spin_density
 _atom_site_hse06_ddec_sum_bond_order
 _atom_site_hse06_magmom
 _atom_site_pbe_bader_spin_density
 _atom_site_pbe_cm5_charge
 _atom_site_pbe_ddec_charge
 _atom_site_pbe_ddec_spin_density
 _atom_site_pbe_ddec_sum_bond_order
 _atom_site_pbe_magmom
Cd  Cd0  1  0.49999592  0.49999933  0.99999563  1  0  0.846968  0  2.029693  0  0  0.68343  0  2.480925  0  0  0.731869  0  2.444399  0  0  0.533027  0.650042  0  2.505064  0
Cd  Cd1  1  0.50000272  0.99999961  0.50000282  1  0  0.846984  0  2.0295  0  0  0.683414  0  2.480742  0  0  0.731857  0  2.444209  0  0  0.532988  0.650023  0  2.504865  0
H  H2  1  0.70969825  0.52942032  0.21796798  1  0  0.091397  0  0.971073  0  0  0.09185  0  1.050146  0  0  0.095847  0  1.045727  0  0  0.096096  0.088898  0  1.053454  0
H  H3  1  0.70966534  0.47058475  0.78201763  1  0  0.091471  0  0.970787  0  0  0.091915  0  1.049893  0  0  0.095915  0  1.045472  0  0  0.096118  0.088953  0  1.053198  0
H  H4  1  0.29031377  0.21797421  0.47057718  1  0  0.091522  0  0.971007  0  0  0.091914  0  1.050123  0  0  0.095909  0  1.045708  0  0  0.096118  0.088961  0  1.053433  0
H  H5  1  0.29032996  0.78202602  0.52942777  1  0  0.091562  0  0.970873  0  0  0.091905  0  1.050071  0  0  0.095899  0  1.045658  0  0  0.09615  0.088948  0  1.053379  0
H  H6  1  0.70968280  0.02943006  0.28203005  1  0  0.09155  0  0.970896  0  0  0.091929  0  1.050044  0  0  0.095918  0  1.045637  0  0  0.096165  0.088973  0  1.053341  0
H  H7  1  0.70969090  0.97056941  0.71798285  1  0  0.091532  0  0.970933  0  0  0.091961  0  1.050033  0  0  0.095954  0  1.04562  0  0  0.096131  0.089003  0  1.053334  0
H  H8  1  0.29029818  0.71796979  0.02941878  1  0  0.091448  0  0.971036  0  0  0.091869  0  1.050126  0  0  0.095865  0  1.045708  0  0  0.096082  0.088915  0  1.053436  0
H  H9  1  0.29028997  0.28203464  0.97056518  1  0  0.091508  0  0.970898  0  0  0.091952  0  1.049992  0  0  0.095943  0  1.04558  0  0  0.096137  0.088995  0  1.053297  0
H  H10  1  0.49998910  0.81191101  0.31191667  1  0  0.130869  0  0.972706  0  0  0.139834  0  1.036948  0  0  0.143803  0  1.03297  0  0  0.088918  0.136843  0  1.039972  0
H  H11  1  0.50003729  0.18808290  0.68808071  1  0  0.130839  0  0.972516  0  0  0.13974  0  1.036819  0  0  0.143707  0  1.032846  0  0  0.088923  0.136756  0  1.039848  0
H  H12  1  0.49999985  0.31193075  0.18808481  1  0  0.130813  0  0.972541  0  0  0.139723  0  1.036851  0  0  0.14369  0  1.032878  0  0  0.088945  0.13674  0  1.039881  0
H  H13  1  0.49999623  0.68807086  0.81192587  1  0  0.130791  0  0.972757  0  0  0.139657  0  1.03709  0  0  0.143624  0  1.033114  0  0  0.08893  0.136672  0  1.040125  0
C  C14  1  0.61568137  0.60016540  0.20610541  1  0  0.067335  0  3.695186  0  0  0.025444  0  3.95301  0  0  0.033055  0  3.969209  0  0  0.027137  0.020446  0  3.942256  0
C  C15  1  0.61566524  0.39983199  0.79387252  1  0  0.067199  0  3.694869  0  0  0.025242  0  3.952723  0  0  0.03284  0  3.968934  0  0  0.027058  0.020268  0  3.94193  0
C  C16  1  0.38433148  0.20611238  0.39983192  1  0  0.066864  0  3.695481  0  0  0.024961  0  3.953303  0  0  0.03258  0  3.969489  0  0  0.027045  0.01996  0  3.942547  0
C  C17  1  0.38434439  0.79388505  0.60017582  1  0  0.067127  0  3.695092  0  0  0.025236  0  3.952853  0  0  0.032851  0  3.969043  0  0  0.027107  0.020244  0  3.942082  0
C  C18  1  0.61567718  0.10017914  0.29389213  1  0  0.067017  0  3.695172  0  0  0.025131  0  3.953016  0  0  0.032749  0  3.969194  0  0  0.027027  0.020146  0  3.942238  0
C  C19  1  0.61567700  0.89982315  0.70611659  1  0  0.066969  0  3.695429  0  0  0.025008  0  3.95323  0  0  0.032626  0  3.96942  0  0  0.027013  0.020019  0  3.942448  0
C  C20  1  0.38432533  0.70610325  0.10016703  1  0  0.067025  0  3.695256  0  0  0.025228  0  3.953071  0  0  0.032845  0  3.969262  0  0  0.0271  0.020238  0  3.942312  0
C  C21  1  0.38432781  0.29390957  0.89982601  1  0  0.066985  0  3.695386  0  0  0.025037  0  3.953196  0  0  0.03267  0  3.969373  0  0  0.027177  0.020035  0  3.942432  0
C  C22  1  0.61820329  0.66794294  0.27634886  1  0  0.060646  0  3.694161  0  0  0.083312  0  3.960604  0  0  0.081699  0  3.982937  0  0  -0.015053  0.083881  0  3.945732  0
C  C23  1  0.61820601  0.33206355  0.72364519  1  0  0.060454  0  3.694151  0  0  0.083052  0  3.960703  0  0  0.081439  0  3.98304  0  0  -0.015166  0.083624  0  3.945814  0
C  C24  1  0.38181681  0.27635902  0.33205031  1  0  0.060766  0  3.694002  0  0  0.083442  0  3.960421  0  0  0.081827  0  3.982751  0  0  -0.015124  0.084013  0  3.945547  0
C  C25  1  0.38181911  0.72364260  0.66795461  1  0  0.060511  0  3.694343  0  0  0.083144  0  3.960728  0  0  0.081531  0  3.983056  0  0  -0.015185  0.08372  0  3.94584  0
C  C26  1  0.61820236  0.16795788  0.22365105  1  0  0.0606  0  3.694157  0  0  0.083172  0  3.960738  0  0  0.081559  0  3.983067  0  0  -0.015113  0.083736  0  3.945866  0
C  C27  1  0.61818421  0.83204022  0.77636049  1  0  0.060596  0  3.694599  0  0  0.083168  0  3.961083  0  0  0.08155  0  3.983422  0  0  -0.015199  0.083743  0  3.946198  0
C  C28  1  0.38179958  0.77634664  0.16795092  1  0  0.060886  0  3.69412  0  0  0.083415  0  3.960718  0  0  0.0818  0  3.983054  0  0  -0.015115  0.083981  0  3.945849  0
C  C29  1  0.38183128  0.22364799  0.83203300  1  0  0.060894  0  3.69391  0  0  0.083448  0  3.960447  0  0  0.081832  0  3.982775  0  0  -0.015105  0.084021  0  3.945567  0
C  C30  1  0.49998918  0.75808584  0.25808221  1  0  -0.101237  0  3.691695  0  0  -0.138365  0  3.940802  0  0  -0.135856  0  3.957941  0  0  -0.088783  -0.139695  0  3.929386  0
C  C31  1  0.50000185  0.24190387  0.74191797  1  0  -0.101019  0  3.691381  0  0  -0.138006  0  3.940364  0  0  -0.135493  0  3.957507  0  0  -0.088785  -0.139357  0  3.928963  0
C  C32  1  0.50000518  0.25809767  0.24192019  1  0  -0.100907  0  3.691359  0  0  -0.137964  0  3.940418  0  0  -0.135452  0  3.957561  0  0  -0.088731  -0.139311  0  3.929021  0
C  C33  1  0.50000353  0.74190674  0.75809398  1  0  -0.100714  0  3.691846  0  0  -0.137668  0  3.940759  0  0  -0.135157  0  3.957904  0  0  -0.088572  -0.139022  0  3.929362  0
Br  Br34  1  0.00000082  0.40433093  0.09566412  1  0  -0.50533  0  1.162265  0  0  -0.444589  0  1.488776  0  0  -0.465482  0  1.467127  0  0  -0.241447  -0.42943  0  1.503333  0
Br  Br35  1  0.99999526  0.59567068  0.90432976  1  0  -0.505363  0  1.162323  0  0  -0.44465  0  1.488914  0  0  -0.465548  0  1.467265  0  0  -0.24146  -0.42949  0  1.503464  0
Br  Br36  1  0.00000855  0.09566828  0.59566929  1  0  -0.505313  0  1.162181  0  0  -0.444582  0  1.488705  0  0  -0.465476  0  1.46706  0  0  -0.241459  -0.429426  0  1.503246  0
Br  Br37  1  0.99999764  0.90432913  0.40433578  1  0  -0.505343  0  1.16216  0  0  -0.444574  0  1.488637  0  0  -0.465475  0  1.467013  0  0  -0.24147  -0.429413  0  1.503164  0
Br  Br38  1  0.78299447  0.63595958  0.39709240  1  0  -0.055007  0  1.365088  0  0  -0.051823  0  1.645224  0  0  -0.056217  0  1.639523  0  0  0.039275  -0.048632  0  1.649384  0
Br  Br39  1  0.78294477  0.36403709  0.60289444  1  0  -0.054966  0  1.365042  0  0  -0.05176  0  1.645178  0  0  -0.056152  0  1.639464  0  0  0.039304  -0.048578  0  1.649336  0
Br  Br40  1  0.21703785  0.39710746  0.36403210  1  0  -0.055086  0  1.364912  0  0  -0.05192  0  1.645039  0  0  -0.056314  0  1.639332  0  0  0.039256  -0.04873  0  1.649206  0
Br  Br41  1  0.21704287  0.60289489  0.63597162  1  0  -0.055074  0  1.365014  0  0  -0.051887  0  1.645137  0  0  -0.056285  0  1.639435  0  0  0.039226  -0.048709  0  1.649289  0
Br  Br42  1  0.78296153  0.13597937  0.10290505  1  0  -0.054992  0  1.364918  0  0  -0.051781  0  1.64509  0  0  -0.056178  0  1.639386  0  0  0.039297  -0.0486  0  1.649253  0
Br  Br43  1  0.78291455  0.86402569  0.89711329  1  0  -0.055025  0  1.364916  0  0  -0.051828  0  1.645074  0  0  -0.056214  0  1.639352  0  0  0.039264  -0.048645  0  1.649233  0
Br  Br44  1  0.21699224  0.89709212  0.13596307  1  0  -0.055112  0  1.364885  0  0  -0.051868  0  1.645028  0  0  -0.056267  0  1.639333  0  0  0.039271  -0.04868  0  1.649187  0
Br  Br45  1  0.21704300  0.10290323  0.86403015  1  0  -0.055175  0  1.364859  0  0  -0.051946  0  1.644989  0  0  -0.056343  0  1.639282  0  0  0.039233  -0.048761  0  1.649139  0
N  N46  1  0.49999805  0.62009990  0.12009546  1  0  -0.276395  0  3.276135  0  0  -0.196  0  3.532995  0  0  -0.217005  0  3.556454  0  0  -0.319979  -0.181751  0  3.516721  0
N  N47  1  0.49996266  0.37989331  0.87989912  1  0  -0.27635  0  3.276396  0  0  -0.195767  0  3.533079  0  0  -0.216776  0  3.556547  0  0  -0.319941  -0.181518  0  3.516791  0
N  N48  1  0.49999469  0.12010867  0.37990090  1  0  -0.276299  0  3.276248  0  0  -0.195734  0  3.532914  0  0  -0.216747  0  3.556396  0  0  -0.319926  -0.181476  0  3.516614  0
N  N49  1  0.50002161  0.87989433  0.62010978  1  0  -0.27642  0  3.276043  0  0  -0.195815  0  3.532729  0  0  -0.216819  0  3.556184  0  0  -0.319902  -0.181574  0  3.516458  0
