# generated using pymatgen
data_FeH26C25S2(NO)4
_symmetry_space_group_name_H-M   'P 1'
_cell_length_a   12.16002912
_cell_length_b   12.16004337
_cell_length_c   24.78548542
_cell_angle_alpha   89.99996405
_cell_angle_beta   90.00002983
_cell_angle_gamma   90.00002302
_symmetry_Int_Tables_number   1
_chemical_formula_structural   FeH26C25S2(NO)4
_chemical_formula_sum   'Fe4 H104 C100 S8 N16 O16'
_cell_volume   3664.94252037
_cell_formula_units_Z   4
loop_
 _symmetry_equiv_pos_site_id
 _symmetry_equiv_pos_as_xyz
  1  'x, y, z'
loop_
 _atom_site_type_symbol
 _atom_site_label
 _atom_site_symmetry_multiplicity
 _atom_site_fract_x
 _atom_site_fract_y
 _atom_site_fract_z
 _atom_site_occupancy
 _atom_site_pbe_bader_charge
 _atom_site_pbe_bader_spin_density
 _atom_site_pbe_cm5_charge
 _atom_site_pbe_ddec_charge
 _atom_site_pbe_ddec_spin_density
 _atom_site_pbe_ddec_sum_bond_order
 _atom_site_pbe_magmom
Fe  Fe0  1  0.25000032  0.24999993  0.08089331  1  1.211581  3.58242  0.537508  0.541087  3.884385  2.797765  3.533
Fe  Fe1  1  0.75000031  0.75000039  0.58089359  1  1.211537  3.582426  0.537525  0.541101  3.884394  2.797736  3.533
Fe  Fe2  1  0.75000049  0.75000018  0.91910645  1  1.211507  3.582432  0.53753  0.541124  3.884412  2.797729  3.533
Fe  Fe3  1  0.25000050  0.25000054  0.41910657  1  1.211514  3.582423  0.537541  0.541125  3.884397  2.797739  3.533
H  H4  1  0.41941033  0.43097791  0.11449845  1  0.083968  0.001882  0.106718  0.083215  0.000439  1.030256  0.001
H  H5  1  0.08058870  0.06902272  0.11449846  1  0.083958  0.001882  0.106699  0.083218  0.000439  1.030249  0.001
H  H6  1  0.56901971  0.91940845  0.61449788  1  0.083974  0.001882  0.10673  0.083241  0.000439  1.030227  0.001
H  H7  1  0.93097930  0.58059147  0.61449758  1  0.083976  0.001882  0.106731  0.083226  0.000439  1.030222  0.001
H  H8  1  0.58059130  0.56902137  0.88550332  1  0.083974  0.001882  0.106699  0.083178  0.000439  1.030278  0.001
H  H9  1  0.91940882  0.93097738  0.88550291  1  0.083979  0.001882  0.106719  0.083237  0.000439  1.030234  0.001
H  H10  1  0.43097945  0.08059248  0.38550147  1  0.083986  0.001882  0.106739  0.083239  0.000439  1.03024  0.001
H  H11  1  0.06902151  0.41940863  0.38550137  1  0.083978  0.001882  0.106738  0.083255  0.000439  1.030215  0.001
H  H12  1  0.43898683  0.58793455  0.17910963  1  0.072179  0.001053  0.112295  0.134154  0.000465  0.982677  0.0
H  H13  1  0.06101082  0.91206655  0.17910953  1  0.072428  0.001053  0.112302  0.134134  0.000465  0.9827  0.0
H  H14  1  0.41206453  0.93898725  0.67910946  1  0.072169  0.001053  0.112308  0.13415  0.000465  0.982667  0.0
H  H15  1  0.08793447  0.56101403  0.67910948  1  0.072197  0.001053  0.112283  0.134147  0.000465  0.982646  0.0
H  H16  1  0.56101233  0.41206391  0.82089214  1  0.072465  0.001053  0.112269  0.134106  0.000465  0.982636  0.0
H  H17  1  0.93898751  0.08793603  0.82089224  1  0.072468  0.001053  0.112272  0.13412  0.000465  0.982628  0.0
H  H18  1  0.58793463  0.06101368  0.32089069  1  0.072445  0.001053  0.112309  0.13415  0.000465  0.982681  0.0
H  H19  1  0.91206551  0.43898608  0.32089068  1  0.072453  0.001053  0.112284  0.134159  0.000465  0.982631  0.0
H  H20  1  0.13861339  0.47398666  0.25515452  1  0.066638  0.000709  0.103713  0.120514  0.000294  1.043616  0.0
H  H21  1  0.36138661  0.02601215  0.25515421  1  0.066649  0.000709  0.103734  0.120556  0.000294  1.043581  0.0
H  H22  1  0.52601489  0.63861577  0.75515605  1  0.066821  0.000709  0.103689  0.120481  0.000294  1.043618  0.0
H  H23  1  0.97398508  0.86138562  0.75515526  1  0.066625  0.000709  0.103692  0.120485  0.000294  1.043665  0.0
H  H24  1  0.86138577  0.52601345  0.74484443  1  0.066671  0.000709  0.103715  0.120519  0.000294  1.043582  0.0
H  H25  1  0.63861419  0.97398549  0.74484393  1  0.066658  0.000709  0.103704  0.120535  0.000294  1.043579  0.0
H  H26  1  0.47398509  0.36138599  0.24484411  1  0.066801  0.000709  0.103673  0.120456  0.000294  1.043649  0.0
H  H27  1  0.02601325  0.13861284  0.24484530  1  0.066616  0.000709  0.103695  0.120488  0.000294  1.04365  0.0
H  H28  1  0.13126959  0.32709989  0.18599834  1  0.095461  0.001586  0.103166  0.073601  0.000165  1.04597  0.001
H  H29  1  0.36872951  0.17289901  0.18599839  1  0.095476  0.001586  0.10316  0.073586  0.000165  1.045998  0.001
H  H30  1  0.67289937  0.63127129  0.68599906  1  0.09548  0.001586  0.103154  0.073609  0.000165  1.045986  0.001
H  H31  1  0.82709971  0.86873018  0.68599864  1  0.095483  0.001586  0.103149  0.07359  0.000165  1.045992  0.001
H  H32  1  0.86872957  0.67290021  0.81400141  1  0.095463  0.001586  0.103163  0.073605  0.000165  1.045969  0.001
H  H33  1  0.63127129  0.82709781  0.81400055  1  0.095469  0.001586  0.103164  0.073623  0.000165  1.04595  0.001
H  H34  1  0.32710143  0.36872964  0.31400110  1  0.095482  0.001586  0.103165  0.073601  0.000165  1.045964  0.001
H  H35  1  0.17289698  0.13126910  0.31400232  1  0.095477  0.001586  0.10315  0.073591  0.000165  1.046008  0.001
H  H36  1  0.20744880  0.57811044  0.32109593  1  0.109733  0.000549  0.099393  0.07388  0.000219  1.039413  0.0
H  H37  1  0.29255146  0.92188884  0.32109508  1  0.109756  0.000549  0.099375  0.073837  0.00022  1.039457  0.0
H  H38  1  0.42189019  0.70744934  0.82109623  1  0.109714  0.000549  0.099376  0.073823  0.00022  1.039462  0.0
H  H39  1  0.07811061  0.79255094  0.82109617  1  0.109721  0.000549  0.099374  0.073824  0.00022  1.039469  0.0
H  H40  1  0.79255118  0.42188967  0.67890463  1  0.109741  0.000549  0.09937  0.073825  0.00022  1.039438  0.0
H  H41  1  0.70744852  0.07811045  0.67890468  1  0.109746  0.000549  0.099373  0.073814  0.00022  1.039422  0.0
H  H42  1  0.57811061  0.29254995  0.17890353  1  0.109718  0.00055  0.099372  0.073836  0.00022  1.039459  0.0
H  H43  1  0.92189020  0.20744917  0.17890399  1  0.109718  0.00055  0.099377  0.073824  0.00022  1.039448  0.0
H  H44  1  0.13862659  0.66750405  0.27396025  1  0.086341  -0.000139  0.106622  0.080591  -0.000121  0.972846  0.0
H  H45  1  0.36137362  0.83249446  0.27395905  1  0.08632  -0.000139  0.106655  0.080608  -0.000121  0.972848  0.0
H  H46  1  0.33249645  0.63862805  0.77396058  1  0.086375  -0.000139  0.10661  0.080557  -0.000121  0.972815  0.0
H  H47  1  0.16750429  0.86137393  0.77396012  1  0.086345  -0.000139  0.106612  0.080556  -0.000121  0.97279  0.0
H  H48  1  0.86137339  0.33249606  0.72604071  1  0.086338  -0.000139  0.106648  0.080621  -0.000121  0.972847  0.0
H  H49  1  0.63862636  0.16750400  0.72604071  1  0.086331  -0.000139  0.106643  0.080581  -0.000121  0.972809  0.0
H  H50  1  0.66750435  0.36137370  0.22603918  1  0.086356  -0.000139  0.106617  0.080571  -0.000121  0.972811  0.0
H  H51  1  0.83249569  0.13862700  0.22603923  1  0.08636  -0.000139  0.106599  0.08054  -0.000121  0.972815  0.0
H  H52  1  0.18195389  0.84354036  0.39543415  1  0.132692  0.002637  0.094659  0.08312  0.00147  1.048707  0.0
H  H53  1  0.31804646  0.65646046  0.39543460  1  0.132693  0.002637  0.094646  0.083083  0.00147  1.048719  0.0
H  H54  1  0.15646076  0.68195426  0.89543487  1  0.132684  0.002637  0.094662  0.083084  0.00147  1.048722  0.0
H  H55  1  0.34353929  0.81804592  0.89543487  1  0.132683  0.002637  0.09466  0.083072  0.00147  1.048735  0.0
H  H56  1  0.81804609  0.15646057  0.60456601  1  0.132706  0.002637  0.094646  0.0831  0.00147  1.048741  0.0
H  H57  1  0.68195353  0.34354047  0.60456596  1  0.132697  0.002637  0.094645  0.083088  0.00147  1.04873  0.0
H  H58  1  0.84353922  0.31804667  0.10456408  1  0.132668  0.002637  0.09466  0.08307  0.00147  1.048702  0.0
H  H59  1  0.65645987  0.18195419  0.10456408  1  0.132661  0.002637  0.094654  0.083094  0.00147  1.048704  0.0
H  H60  1  0.09034717  0.82774191  0.33966440  1  0.070497  -5.5e-05  0.103194  0.077537  -9.8e-05  0.973769  0.0
H  H61  1  0.40965229  0.67225816  0.33966406  1  0.070493  -5.5e-05  0.10317  0.077499  -9.8e-05  0.973824  0.0
H  H62  1  0.17225838  0.59034772  0.83966434  1  0.070499  -5.5e-05  0.103162  0.077464  -9.8e-05  0.973811  0.0
H  H63  1  0.32774244  0.90965253  0.83966472  1  0.070496  -5.5e-05  0.103167  0.07747  -9.8e-05  0.973833  0.0
H  H64  1  0.90965281  0.17225901  0.66033616  1  0.070417  -5.5e-05  0.103183  0.077531  -9.8e-05  0.973793  0.0
H  H65  1  0.59034686  0.32774195  0.66033609  1  0.070483  -5.5e-05  0.103187  0.077522  -9.8e-05  0.973783  0.0
H  H66  1  0.82774325  0.40965239  0.16033461  1  0.070512  -5.5e-05  0.103169  0.07747  -9.8e-05  0.973806  0.0
H  H67  1  0.67225754  0.09034757  0.16033504  1  0.070509  -5.5e-05  0.103156  0.077487  -9.8e-05  0.973837  0.0
H  H68  1  0.89998185  0.89570390  0.50795251  1  0.115888  0.001439  0.09673  0.072736  0.000212  1.061151  0.001
H  H69  1  0.60001869  0.60429698  0.50795251  1  0.115902  0.001439  0.096734  0.072741  0.000212  1.061173  0.001
H  H70  1  0.10429671  0.39998214  0.00795259  1  0.115899  0.001439  0.096742  0.0728  0.000212  1.061205  0.001
H  H71  1  0.39570385  0.10001945  0.00795187  1  0.115885  0.001439  0.096711  0.072724  0.000212  1.061183  0.001
H  H72  1  0.10001896  0.10429539  0.49204806  1  0.115879  0.001439  0.09676  0.072828  0.000212  1.061105  0.001
H  H73  1  0.39998047  0.39570395  0.49204805  1  0.115897  0.001439  0.096738  0.072813  0.000212  1.061188  0.001
H  H74  1  0.89570492  0.60001879  0.99204757  1  0.115881  0.001439  0.096729  0.072747  0.000212  1.061101  0.001
H  H75  1  0.60429614  0.89998065  0.99204708  1  0.115887  0.001439  0.096756  0.072784  0.000212  1.061168  0.001
H  H76  1  0.03783996  0.88663061  0.43465910  1  0.112329  0.001908  0.10052  0.121545  0.000931  1.051921  0.0
H  H77  1  0.46216208  0.61336934  0.43465839  1  0.112338  0.001908  0.100522  0.121525  0.000931  1.051926  0.0
H  H78  1  0.11336875  0.53783879  0.93465865  1  0.112325  0.001908  0.100524  0.12153  0.000931  1.051924  0.0
H  H79  1  0.38663134  0.96216217  0.93465781  1  0.112339  0.001908  0.10051  0.121489  0.000931  1.051935  0.0
H  H80  1  0.96216249  0.11336867  0.56534227  1  0.112456  0.001908  0.100517  0.121527  0.000931  1.051928  0.0
H  H81  1  0.53783708  0.38663159  0.56534177  1  0.112333  0.001908  0.100519  0.121502  0.000931  1.051931  0.0
H  H82  1  0.88663123  0.46216214  0.06534111  1  0.112327  0.001909  0.100502  0.121477  0.000931  1.051959  0.0
H  H83  1  0.61337028  0.03783794  0.06534073  1  0.112356  0.001908  0.10053  0.121521  0.000931  1.051918  0.0
H  H84  1  0.99270602  0.53323322  0.43486020  1  0.065894  0.000728  0.105782  0.122251  0.000254  1.028664  0.0
H  H85  1  0.50729526  0.96676776  0.43485926  1  0.066013  0.000727  0.10579  0.122249  0.000254  1.028703  0.0
H  H86  1  0.46676757  0.49270415  0.93485962  1  0.065995  0.000728  0.105773  0.12227  0.000254  1.028685  0.0
H  H87  1  0.03323233  0.00729544  0.93486005  1  0.065863  0.000728  0.105771  0.122254  0.000254  1.028695  0.0
H  H88  1  0.00729890  0.46676689  0.56514117  1  0.065565  0.000728  0.105804  0.122296  0.000254  1.028648  0.0
H  H89  1  0.49270225  0.03323399  0.56514090  1  0.065567  0.000728  0.105787  0.122261  0.000254  1.028707  0.0
H  H90  1  0.53323159  0.50729760  0.06513973  1  0.065552  0.000728  0.105789  0.122281  0.000254  1.02866  0.0
H  H91  1  0.96676848  0.99270138  0.06513971  1  0.065574  0.000727  0.105779  0.122254  0.000254  1.028695  0.0
H  H92  1  0.85581659  0.55889012  0.50841653  1  0.1208  0.00139  0.101334  0.084123  0.000179  1.039287  0.001
H  H93  1  0.64418395  0.94111076  0.50841604  1  0.120783  0.00139  0.101349  0.084132  0.000179  1.039283  0.001
H  H94  1  0.44111168  0.35581460  0.00841622  1  0.120762  0.00139  0.101335  0.084107  0.000179  1.039305  0.001
H  H95  1  0.05888887  0.14418535  0.00841660  1  0.120772  0.00139  0.101321  0.084108  0.000179  1.039268  0.001
H  H96  1  0.14418750  0.44110834  0.49158443  1  0.12085  0.00139  0.101334  0.084115  0.000179  1.039346  0.001
H  H97  1  0.35581274  0.05889099  0.49158411  1  0.120814  0.00139  0.101341  0.084121  0.000179  1.039325  0.001
H  H98  1  0.55889076  0.64418715  0.99158354  1  0.120783  0.00139  0.101334  0.084107  0.000179  1.039327  0.001
H  H99  1  0.94111029  0.85581229  0.99158315  1  0.120785  0.001391  0.101308  0.084081  0.000179  1.039323  0.001
H  H100  1  0.43809689  0.11097249  0.09871346  1  -0.011777  0.005668  0.091582  0.135171  0.001121  1.074029  0.002
H  H101  1  0.06190377  0.38902734  0.09871337  1  -0.011775  0.005668  0.091568  0.135161  0.00112  1.074059  0.002
H  H102  1  0.88902634  0.93809678  0.59871368  1  -0.011759  0.005666  0.091585  0.135167  0.001119  1.074056  0.002
H  H103  1  0.61097265  0.56190563  0.59871370  1  -0.011779  0.005666  0.091563  0.135143  0.00112  1.074064  0.002
H  H104  1  0.56190638  0.88902762  0.90128670  1  -0.01172  0.005662  0.091549  0.135127  0.001118  1.074091  0.002
H  H105  1  0.93809457  0.61097194  0.90128679  1  -0.011785  0.005663  0.091561  0.135151  0.001118  1.074066  0.002
H  H106  1  0.11097282  0.06190415  0.40128769  1  -0.011761  0.005662  0.091566  0.135158  0.001118  1.074083  0.002
H  H107  1  0.38902733  0.43809612  0.40128726  1  -0.011757  0.005663  0.091565  0.135153  0.001118  1.074082  0.002
C  C108  1  0.35767694  0.44574017  0.14552063  1  0.443065  -0.006705  0.036776  0.098158  -0.007305  3.988984  -0.004
C  C109  1  0.14232212  0.05426043  0.14552066  1  0.443065  -0.006704  0.036813  0.098156  -0.007304  3.988976  -0.004
C  C110  1  0.55426070  0.85767756  0.64552088  1  0.44309  -0.006708  0.036793  0.0981  -0.007308  3.988803  -0.004
C  C111  1  0.94573998  0.64232314  0.64552097  1  0.442529  -0.00671  0.036783  0.098133  -0.007309  3.988902  -0.004
C  C112  1  0.64232386  0.55425830  0.85447832  1  0.443028  -0.00671  0.036711  0.098038  -0.007309  3.989212  -0.004
C  C113  1  0.85767622  0.94574050  0.85447788  1  0.443027  -0.006711  0.036708  0.098001  -0.007309  3.989149  -0.004
C  C114  1  0.44574010  0.14232419  0.35448008  1  0.442579  -0.006714  0.036797  0.098135  -0.007313  3.988735  -0.004
C  C115  1  0.05426082  0.35767696  0.35447959  1  0.442564  -0.006715  0.036814  0.098141  -0.007314  3.988732  -0.004
C  C116  1  0.36951001  0.53156796  0.18179870  1  0.01111  0.005455  -0.104812  -0.25912  0.002106  3.979942  0.004
C  C117  1  0.13048929  0.96843231  0.18179901  1  0.010831  0.005454  -0.104805  -0.259036  0.002106  3.97999  0.004
C  C118  1  0.46843116  0.86950972  0.68179977  1  0.011086  0.005456  -0.104835  -0.259056  0.002107  3.97987  0.004
C  C119  1  0.03156702  0.63049074  0.68179894  1  0.011106  0.005457  -0.104809  -0.259052  0.002107  3.979919  0.004
C  C120  1  0.63048915  0.46843214  0.81820307  1  0.010781  0.005459  -0.104734  -0.258879  0.002108  3.979916  0.004
C  C121  1  0.86951152  0.03156697  0.81820276  1  0.010784  0.00546  -0.104739  -0.258914  0.002108  3.979858  0.004
C  C122  1  0.53157129  0.13049121  0.31819999  1  0.010819  0.005459  -0.104855  -0.259098  0.002108  3.979758  0.004
C  C123  1  0.96842967  0.36950772  0.31820041  1  0.010825  0.00546  -0.104848  -0.25914  0.002108  3.979773  0.004
C  C124  1  0.28909411  0.54570685  0.22194396  1  0.474066  -0.013563  0.097356  0.299374  -0.014072  4.061696  -0.009
C  C125  1  0.21090359  0.95429255  0.22194389  1  0.47405  -0.013559  0.097344  0.299285  -0.014068  4.061819  -0.009
C  C126  1  0.45429304  0.78909714  0.72194464  1  0.474045  -0.013563  0.097227  0.299077  -0.014072  4.061765  -0.009
C  C127  1  0.04570683  0.71090491  0.72194460  1  0.474077  -0.013568  0.097274  0.299144  -0.014077  4.061797  -0.009
C  C128  1  0.71090587  0.45429243  0.77805579  1  0.474098  -0.013575  0.09737  0.299154  -0.014084  4.061824  -0.009
C  C129  1  0.78909475  0.04570674  0.77805546  1  0.474106  -0.013576  0.097303  0.299125  -0.014085  4.061869  -0.009
C  C130  1  0.54570694  0.21090378  0.27805552  1  0.474035  -0.013567  0.097312  0.299225  -0.014075  4.061594  -0.009
C  C131  1  0.95429233  0.28909602  0.27805636  1  0.474101  -0.013568  0.097326  0.29928  -0.014077  4.06159  -0.009
C  C132  1  0.20217654  0.47007470  0.22433125  1  -0.016575  0.005119  -0.111567  -0.274832  0.001639  3.977586  0.004
C  C133  1  0.29782178  0.02992580  0.22433213  1  -0.016558  0.005118  -0.111594  -0.274895  0.001639  3.977555  0.004
C  C134  1  0.52992442  0.70217724  0.72433356  1  -0.016783  0.00512  -0.111488  -0.27466  0.00164  3.977358  0.004
C  C135  1  0.97007388  0.79782337  0.72433199  1  -0.016589  0.00512  -0.111547  -0.274745  0.001639  3.97761  0.004
C  C136  1  0.79782098  0.52992541  0.77566891  1  -0.016611  0.005121  -0.111547  -0.274764  0.001639  3.977745  0.004
C  C137  1  0.70217902  0.97007267  0.77566843  1  -0.016597  0.005121  -0.111556  -0.274794  0.001639  3.97773  0.004
C  C138  1  0.47007721  0.29782451  0.27566659  1  -0.016798  0.005122  -0.111549  -0.274743  0.00164  3.977301  0.004
C  C139  1  0.02992364  0.20217510  0.27566655  1  -0.016683  0.005123  -0.111566  -0.274823  0.001641  3.977375  0.004
C  C140  1  0.19816829  0.38676581  0.18586964  1  0.514542  -0.011767  0.039111  0.113374  -0.012292  3.965123  -0.007
C  C141  1  0.30183164  0.11323391  0.18586969  1  0.514559  -0.011762  0.039132  0.113439  -0.012287  3.965106  -0.007
C  C142  1  0.61323341  0.69816825  0.68586994  1  0.514583  -0.011765  0.039066  0.113219  -0.01229  3.965064  -0.007
C  C143  1  0.88676649  0.80183241  0.68586995  1  0.514512  -0.011768  0.039116  0.11333  -0.012292  3.965144  -0.007
C  C144  1  0.80183169  0.61323183  0.81412931  1  0.514553  -0.011774  0.039097  0.113364  -0.012298  3.965096  -0.007
C  C145  1  0.69816917  0.88676619  0.81412885  1  0.514525  -0.011774  0.039136  0.113335  -0.012298  3.9651  -0.007
C  C146  1  0.38676739  0.30183268  0.31412982  1  0.51459  -0.011766  0.039123  0.113358  -0.012291  3.96497  -0.007
C  C147  1  0.11323267  0.19816606  0.31413101  1  0.515118  -0.011769  0.039124  0.11338  -0.012292  3.965082  -0.007
C  C148  1  0.21654335  0.65090707  0.29503954  1  0.335203  0.000773  -0.064191  -0.030655  0.000288  3.841316  0.001
C  C149  1  0.28345689  0.84909223  0.29503911  1  0.335195  0.000773  -0.064205  -0.030642  0.000288  3.841336  0.001
C  C150  1  0.34909348  0.71654470  0.79504024  1  0.335198  0.000773  -0.064182  -0.030597  0.000288  3.84122  0.001
C  C151  1  0.15090647  0.78345643  0.79504021  1  0.335201  0.000773  -0.064144  -0.030559  0.000288  3.841195  0.001
C  C152  1  0.78345581  0.34909303  0.70496062  1  0.335208  0.000774  -0.064184  -0.030675  0.000288  3.841273  0.001
C  C153  1  0.71654392  0.15090705  0.70496104  1  0.335207  0.000774  -0.06416  -0.030516  0.000288  3.841135  0.001
C  C154  1  0.65090732  0.28345623  0.20495951  1  0.335194  0.000774  -0.064195  -0.030649  0.000288  3.841271  0.001
C  C155  1  0.84909269  0.21654368  0.20495955  1  0.335194  0.000774  -0.064177  -0.030562  0.000288  3.84116  0.001
C  C156  1  0.25000055  0.75000045  0.32952503  1  0.07741  0.000187  -0.017471  0.055621  6.7e-05  3.806278  0.0
C  C157  1  0.24999999  0.75000013  0.82952573  1  0.077376  0.000187  -0.01754  0.055525  6.7e-05  3.806409  0.0
C  C158  1  0.75000025  0.24999965  0.67047512  1  0.077416  0.000187  -0.017482  0.055609  6.7e-05  3.806301  0.0
C  C159  1  0.74999999  0.25000079  0.17047402  1  0.077332  0.000187  -0.017484  0.055651  6.7e-05  3.806329  0.0
C  C160  1  0.15246298  0.78554552  0.36457295  1  0.337668  0.003379  -0.067154  -0.034058  0.00157  3.821999  0.003
C  C161  1  0.34753733  0.71445535  0.36457339  1  0.337655  0.003379  -0.067096  -0.033934  0.00157  3.822071  0.003
C  C162  1  0.21445485  0.65246262  0.86457367  1  0.337653  0.003379  -0.067072  -0.033857  0.00157  3.822049  0.003
C  C163  1  0.28554518  0.84753760  0.86457365  1  0.337687  0.003379  -0.067082  -0.033873  0.00157  3.822105  0.003
C  C164  1  0.84753782  0.21445541  0.63542721  1  0.337739  0.003379  -0.067112  -0.034045  0.00157  3.822144  0.003
C  C165  1  0.65246265  0.28554476  0.63542677  1  0.337666  0.003379  -0.067107  -0.033965  0.00157  3.822075  0.003
C  C166  1  0.78554431  0.34753748  0.13542568  1  0.337669  0.003379  -0.067093  -0.03388  0.00157  3.822179  0.003
C  C167  1  0.71445563  0.15246251  0.13542570  1  0.337688  0.00338  -0.067153  -0.034082  0.00157  3.822289  0.003
C  C168  1  0.92403686  0.81642212  0.49098977  1  0.498683  -0.007125  0.03713  0.115431  -0.007728  3.958841  -0.004
C  C169  1  0.57596366  0.68357878  0.49098934  1  0.498683  -0.007125  0.037071  0.115337  -0.007727  3.958985  -0.004
C  C170  1  0.18357747  0.42403654  0.99098922  1  0.498673  -0.007132  0.037077  0.115282  -0.007735  3.959031  -0.004
C  C171  1  0.31642248  0.07596462  0.99098889  1  0.498827  -0.007133  0.03714  0.115378  -0.007735  3.958874  -0.004
C  C172  1  0.07596476  0.18357716  0.50901119  1  0.49907  -0.007116  0.037127  0.115241  -0.007719  3.958827  -0.004
C  C173  1  0.42403550  0.31642297  0.50901122  1  0.498804  -0.007118  0.037092  0.115205  -0.007721  3.958985  -0.004
C  C174  1  0.81642169  0.57596356  0.00901053  1  0.498679  -0.007116  0.037131  0.115378  -0.007719  3.9589  -0.004
C  C175  1  0.68357832  0.92403466  0.00901006  1  0.498693  -0.007118  0.037114  0.115332  -0.007721  3.958913  -0.004
C  C176  1  0.00029481  0.81101080  0.44927371  1  -0.062621  0.005012  -0.112352  -0.272609  0.001901  3.9792  0.004
C  C177  1  0.49970559  0.68898913  0.44927298  1  -0.062629  0.005012  -0.112293  -0.272464  0.001901  3.97917  0.004
C  C178  1  0.18898946  0.50029370  0.94927327  1  -0.062625  0.005014  -0.112273  -0.272443  0.001902  3.979306  0.004
C  C179  1  0.31101065  0.99970724  0.94927320  1  -0.062638  0.005014  -0.112313  -0.272486  0.001902  3.979217  0.004
C  C180  1  0.99970600  0.18898766  0.55072686  1  -0.062766  0.005009  -0.112327  -0.272515  0.0019  3.979097  0.004
C  C181  1  0.50029274  0.31101180  0.55072677  1  -0.062652  0.005009  -0.112295  -0.272408  0.0019  3.97923  0.004
C  C182  1  0.81101134  0.49970641  0.05072609  1  -0.062576  0.005009  -0.112323  -0.272497  0.0019  3.97915  0.004
C  C183  1  0.68899015  0.00029205  0.05072655  1  -0.062562  0.005009  -0.112312  -0.272485  0.0019  3.979101  0.004
C  C184  1  0.02828073  0.70750379  0.42852045  1  0.510818  -0.01032  0.0961  0.296431  -0.010777  4.064045  -0.007
C  C185  1  0.47172047  0.79249699  0.42852009  1  0.510816  -0.01032  0.096095  0.296385  -0.010777  4.064159  -0.007
C  C186  1  0.29249579  0.52827965  0.92852000  1  0.510845  -0.010327  0.096119  0.296428  -0.010784  4.064045  -0.007
C  C187  1  0.20750430  0.97172049  0.92852073  1  0.510706  -0.010327  0.096105  0.296468  -0.010784  4.064051  -0.007
C  C188  1  0.97172172  0.29249714  0.57147971  1  0.510834  -0.010313  0.0961  0.296447  -0.010769  4.064101  -0.007
C  C189  1  0.52827786  0.20750476  0.57148007  1  0.510842  -0.010313  0.096136  0.296477  -0.01077  4.064101  -0.007
C  C190  1  0.70750173  0.47172128  0.07147935  1  0.51085  -0.010313  0.096159  0.296517  -0.01077  4.064087  -0.007
C  C191  1  0.79249732  0.02827797  0.07147943  1  0.510813  -0.010313  0.0961  0.296484  -0.01077  4.06411  -0.007
C  C192  1  0.97494869  0.61517370  0.45015583  1  -0.069123  0.004579  -0.105414  -0.253248  0.001662  3.982482  0.003
C  C193  1  0.52505179  0.88482725  0.45015492  1  -0.068922  0.004579  -0.105424  -0.253255  0.001662  3.98257  0.003
C  C194  1  0.38482863  0.47494679  0.95015567  1  -0.069051  0.004581  -0.105431  -0.253329  0.001663  3.982444  0.003
C  C195  1  0.11517211  0.02505278  0.95015610  1  -0.068783  0.004581  -0.105435  -0.253343  0.001663  3.982533  0.003
C  C196  1  0.02505376  0.38482558  0.54984473  1  -0.06859  0.004576  -0.105415  -0.253274  0.001661  3.98255  0.003
C  C197  1  0.47494572  0.11517368  0.54984443  1  -0.068574  0.004576  -0.105419  -0.253271  0.001661  3.982521  0.003
C  C198  1  0.61517300  0.52505332  0.04984369  1  -0.068593  0.004576  -0.105422  -0.253305  0.001661  3.98258  0.003
C  C199  1  0.88482787  0.97494486  0.04984446  1  -0.068581  0.004576  -0.105409  -0.2533  0.001661  3.982419  0.003
C  C200  1  0.89967258  0.62934137  0.49158531  1  0.470583  -0.007091  0.032057  0.090252  -0.007336  3.979695  -0.004
C  C201  1  0.60032795  0.87065953  0.49158483  1  0.470232  -0.007091  0.032077  0.090308  -0.007336  3.97965  -0.004
C  C202  1  0.37066008  0.39967071  0.99158476  1  0.470358  -0.007093  0.032054  0.090305  -0.007339  3.979701  -0.004
C  C203  1  0.12934070  0.10032880  0.99158478  1  0.470364  -0.007094  0.03208  0.090297  -0.007339  3.979681  -0.004
C  C204  1  0.10033070  0.37065791  0.50841606  1  0.470333  -0.007087  0.032064  0.090198  -0.007332  3.979701  -0.004
C  C205  1  0.39966957  0.12934222  0.50841573  1  0.470352  -0.007086  0.032052  0.090233  -0.007331  3.979794  -0.004
C  C206  1  0.62934155  0.60032939  0.00841499  1  0.470349  -0.007086  0.03204  0.090227  -0.007331  3.979703  -0.004
C  C207  1  0.87065928  0.89966884  0.00841498  1  0.470313  -0.007086  0.032094  0.090338  -0.007331  3.979605  -0.004
S  S208  1  0.45143980  0.21774186  0.08576191  1  -0.578227  0.133904  -0.348745  -0.596217  0.063356  2.275673  0.069
S  S209  1  0.04856002  0.28225799  0.08576185  1  -0.578213  0.133904  -0.348729  -0.596209  0.063356  2.27569  0.069
S  S210  1  0.78225685  0.95144047  0.58576213  1  -0.578196  0.133893  -0.348758  -0.596235  0.063352  2.275678  0.069
S  S211  1  0.71774212  0.54856031  0.58576259  1  -0.578191  0.13389  -0.348727  -0.596187  0.06335  2.275664  0.069
S  S212  1  0.54856101  0.78225743  0.91423704  1  -0.578236  0.133881  -0.348729  -0.596205  0.063345  2.275737  0.069
S  S213  1  0.95143914  0.71774211  0.91423750  1  -0.57818  0.133884  -0.348742  -0.596246  0.063347  2.275737  0.069
S  S214  1  0.21774313  0.04855964  0.41423762  1  -0.578208  0.133875  -0.348752  -0.596271  0.063343  2.275749  0.069
S  S215  1  0.28225621  0.45143979  0.41423757  1  -0.578225  0.133877  -0.348739  -0.596235  0.063343  2.275735  0.069
N  N216  1  0.27255131  0.37452659  0.14611856  1  -1.235155  0.047177  -0.334762  -0.238743  0.022623  3.554964  0.038
N  N217  1  0.22744775  0.12547237  0.14611900  1  -1.235139  0.047179  -0.334775  -0.238771  0.022624  3.554986  0.038
N  N218  1  0.62547186  0.77255041  0.64611843  1  -1.235118  0.047182  -0.334742  -0.238618  0.022624  3.554879  0.038
N  N219  1  0.87452718  0.72745029  0.64611847  1  -1.234606  0.047182  -0.334741  -0.238667  0.022624  3.554873  0.038
N  N220  1  0.72744785  0.62547270  0.85388200  1  -1.235095  0.047186  -0.334734  -0.238701  0.022626  3.554795  0.038
N  N221  1  0.77255306  0.87452610  0.85388157  1  -1.235107  0.047186  -0.334748  -0.238653  0.022626  3.55482  0.038
N  N222  1  0.37452894  0.22744970  0.35388092  1  -1.234586  0.047187  -0.334736  -0.238672  0.022628  3.554986  0.038
N  N223  1  0.12547116  0.27254981  0.35388128  1  -1.235115  0.047189  -0.334754  -0.238699  0.022627  3.555036  0.038
N  N224  1  0.87413895  0.72827521  0.51310393  1  -1.250645  0.046404  -0.328953  -0.237756  0.022261  3.509563  0.036
N  N225  1  0.62586077  0.77172566  0.51310389  1  -1.250612  0.046402  -0.328951  -0.237767  0.02226  3.509568  0.036
N  N226  1  0.27172641  0.37413851  0.01310402  1  -1.250598  0.046401  -0.328944  -0.237739  0.022259  3.509489  0.036
N  N227  1  0.22827416  0.12586225  0.01310405  1  -1.250767  0.046399  -0.328942  -0.237698  0.022259  3.50958  0.036
N  N228  1  0.12586268  0.27172325  0.48689663  1  -1.251016  0.046407  -0.328966  -0.237601  0.022262  3.509451  0.036
N  N229  1  0.37413757  0.22827527  0.48689627  1  -1.250782  0.046408  -0.328949  -0.237654  0.022262  3.509513  0.036
N  N230  1  0.72827604  0.62586159  0.98689574  1  -1.250654  0.046408  -0.328949  -0.237691  0.022263  3.509533  0.036
N  N231  1  0.77172583  0.87413703  0.98689570  1  -1.250678  0.046408  -0.328957  -0.237725  0.022264  3.509707  0.036
O  O232  1  0.10306342  0.68976211  0.38890211  1  -1.077887  -0.002128  -0.172299  -0.182778  -0.002239  2.541386  -0.002
O  O233  1  0.39693692  0.81023790  0.38890173  1  -1.077884  -0.002128  -0.172333  -0.182838  -0.002239  2.541453  -0.002
O  O234  1  0.31023834  0.60306231  0.88890205  1  -1.077878  -0.00213  -0.172337  -0.182844  -0.002241  2.54146  -0.002
O  O235  1  0.18976171  0.89693706  0.88890239  1  -1.077856  -0.00213  -0.172309  -0.182827  -0.002241  2.541366  -0.002
O  O236  1  0.89693656  0.31023717  0.61109804  1  -1.077874  -0.002125  -0.172329  -0.182809  -0.002237  2.541441  -0.002
O  O237  1  0.60306224  0.18976303  0.61109802  1  -1.077845  -0.002125  -0.172348  -0.182894  -0.002237  2.541492  -0.002
O  O238  1  0.68976164  0.39693615  0.11109690  1  -1.077871  -0.002125  -0.172312  -0.182842  -0.002237  2.5415  -0.002
O  O239  1  0.81023827  0.10306305  0.11109737  1  -1.077861  -0.002125  -0.172315  -0.18284  -0.002237  2.54153  -0.002
O  O240  1  0.30213687  0.63204041  0.25584000  1  -1.070653  -0.00375  -0.174021  -0.193808  -0.00341  2.552499  -0.003
O  O241  1  0.19786332  0.86795895  0.25583995  1  -1.070662  -0.003749  -0.17405  -0.19379  -0.003409  2.55251  -0.003
O  O242  1  0.36795856  0.80213818  0.75584108  1  -1.070679  -0.00375  -0.173935  -0.193622  -0.00341  2.552377  -0.003
O  O243  1  0.13204052  0.69786383  0.75584066  1  -1.070652  -0.003752  -0.17398  -0.193709  -0.003412  2.55244  -0.003
O  O244  1  0.69786228  0.36795806  0.74416016  1  -1.070688  -0.003754  -0.174044  -0.193689  -0.003413  2.552455  -0.003
O  O245  1  0.80213748  0.13204198  0.74416021  1  -1.070679  -0.003754  -0.174047  -0.193779  -0.003414  2.552524  -0.003
O  O246  1  0.63204142  0.19786275  0.24415867  1  -1.070665  -0.003751  -0.173988  -0.193713  -0.003411  2.552381  -0.003
O  O247  1  0.86795864  0.30213628  0.24415909  1  -1.07065  -0.003752  -0.173994  -0.193745  -0.003412  2.552362  -0.003
