# generated using pymatgen
data_AgH8C4SNO2
_symmetry_space_group_name_H-M   'P 1'
_cell_length_a   4.99104548
_cell_length_b   5.68608167
_cell_length_c   23.33376345
_cell_angle_alpha   89.99065985
_cell_angle_beta   89.99755770
_cell_angle_gamma   90.00301053
_symmetry_Int_Tables_number   1
_chemical_formula_structural   AgH8C4SNO2
_chemical_formula_sum   'Ag4 H32 C16 S4 N4 O8'
_cell_volume   662.20034736
_cell_formula_units_Z   4
loop_
 _symmetry_equiv_pos_site_id
 _symmetry_equiv_pos_as_xyz
  1  'x, y, z'
loop_
 _atom_site_type_symbol
 _atom_site_label
 _atom_site_symmetry_multiplicity
 _atom_site_fract_x
 _atom_site_fract_y
 _atom_site_fract_z
 _atom_site_occupancy
 _atom_site_hle17_bader_spin_density
 _atom_site_hle17_ddec_charge
 _atom_site_hle17_ddec_spin_density
 _atom_site_hle17_ddec_sum_bond_order
 _atom_site_hle17_magmom
 _atom_site_hse06_10hf_bader_spin_density
 _atom_site_hse06_10hf_ddec_charge
 _atom_site_hse06_10hf_ddec_spin_density
 _atom_site_hse06_10hf_ddec_sum_bond_order
 _atom_site_hse06_10hf_magmom
 _atom_site_hse06_bader_spin_density
 _atom_site_hse06_ddec_charge
 _atom_site_hse06_ddec_spin_density
 _atom_site_hse06_ddec_sum_bond_order
 _atom_site_hse06_magmom
 _atom_site_pbe_bader_spin_density
 _atom_site_pbe_cm5_charge
 _atom_site_pbe_ddec_charge
 _atom_site_pbe_ddec_spin_density
 _atom_site_pbe_ddec_sum_bond_order
 _atom_site_pbe_magmom
Ag  Ag0  1  0.42139468  0.64936208  0.83326787  1  0  0.520617  0  1.388376  0  0  0.388857  0  1.818659  0  0  0.421005  0  1.77184  0  0  0.414129  0.365947  0  1.851228  0
Ag  Ag1  1  0.07860875  0.35060132  0.33327021  1  0  0.520738  0  1.388318  0  0  0.388821  0  1.818684  0  0  0.420964  0  1.771881  0  0  0.414173  0.36595  0  1.85119  0
Ag  Ag2  1  0.57865829  0.14936143  0.66673341  1  0  0.520666  0  1.388253  0  0  0.388845  0  1.818633  0  0  0.420986  0  1.771825  0  0  0.414153  0.365968  0  1.851145  0
Ag  Ag3  1  0.92138330  0.85066709  0.16674523  1  0  0.520638  0  1.388488  0  0  0.388906  0  1.818776  0  0  0.421042  0  1.771962  0  0  0.414141  0.365991  0  1.851365  0
H  H4  1  0.02082431  0.37342925  0.85448103  1  0  0.045631  0  0.950128  0  0  0.057735  0  1.025443  0  0  0.060226  0  1.021172  0  0  0.097334  0.055729  0  1.028858  0
H  H5  1  0.47918109  0.62652609  0.35448613  1  0  0.045538  0  0.95022  0  0  0.05774  0  1.025491  0  0  0.060231  0  1.021227  0  0  0.097318  0.055735  0  1.028905  0
H  H6  1  0.97924601  0.87343065  0.64550507  1  0  0.045817  0  0.94981  0  0  0.057917  0  1.025084  0  0  0.060404  0  1.020824  0  0  0.097421  0.055906  0  1.028513  0
H  H7  1  0.52083170  0.12658836  0.14552221  1  0  0.045578  0  0.950149  0  0  0.057628  0  1.025416  0  0  0.060111  0  1.021163  0  0  0.097289  0.05563  0  1.028817  0
H  H8  1  0.83730124  0.09906207  0.93070579  1  0  0.101533  0  0.949253  0  0  0.114856  0  1.014912  0  0  0.115875  0  1.015687  0  0  0.097299  0.114184  0  1.014391  0
H  H9  1  0.66262600  0.90087516  0.43067827  1  0  0.101537  0  0.94908  0  0  0.114889  0  1.014696  0  0  0.115897  0  1.015468  0  0  0.097287  0.11422  0  1.01418  0
H  H10  1  0.16269326  0.59909833  0.56931791  1  0  0.101621  0  0.949109  0  0  0.114993  0  1.014702  0  0  0.116006  0  1.015464  0  0  0.097348  0.11432  0  1.01419  0
H  H11  1  0.33737845  0.40096340  0.06930232  1  0  0.101378  0  0.94919  0  0  0.114721  0  1.014863  0  0  0.115734  0  1.01563  0  0  0.097185  0.114051  0  1.014345  0
H  H12  1  0.52390678  0.09507698  0.89310034  1  0  0.118703  0  0.969127  0  0  0.131887  0  1.032215  0  0  0.134713  0  1.030246  0  0  0.098836  0.12977  0  1.033848  0
H  H13  1  0.97603076  0.90493698  0.39306483  1  0  0.118448  0  0.969455  0  0  0.131792  0  1.032394  0  0  0.134615  0  1.030414  0  0  0.098732  0.129675  0  1.034048  0
H  H14  1  0.47609907  0.59512715  0.60692081  1  0  0.118673  0  0.969213  0  0  0.131929  0  1.032267  0  0  0.134755  0  1.030271  0  0  0.098829  0.129814  0  1.033909  0
H  H15  1  0.02397036  0.40491941  0.10690675  1  0  0.118691  0  0.969242  0  0  0.131862  0  1.03237  0  0  0.134672  0  1.030425  0  0  0.098905  0.129759  0  1.033983  0
H  H16  1  0.84947197  0.71469168  0.99564390  1  0  0.122759  0  0.974405  0  0  0.14583  0  1.030801  0  0  0.146639  0  1.031863  0  0  0.090371  0.145165  0  1.030111  0
H  H17  1  0.65039252  0.28525132  0.49565449  1  0  0.12285  0  0.974599  0  0  0.145898  0  1.031023  0  0  0.146713  0  1.03208  0  0  0.09048  0.145229  0  1.030334  0
H  H18  1  0.15042561  0.21474049  0.50434007  1  0  0.122871  0  0.974504  0  0  0.145946  0  1.030853  0  0  0.14676  0  1.031911  0  0  0.090423  0.145277  0  1.030174  0
H  H19  1  0.34945037  0.78529789  0.00437313  1  0  0.122782  0  0.974485  0  0  0.145898  0  1.030817  0  0  0.146708  0  1.031877  0  0  0.090435  0.145233  0  1.03013  0
H  H20  1  0.01440566  0.65076697  0.92953798  1  0  0.111913  0  0.98747  0  0  0.122681  0  1.065612  0  0  0.124834  0  1.064434  0  0  0.082776  0.121114  0  1.066465  0
H  H21  1  0.48556721  0.34929716  0.42953698  1  0  0.111858  0  0.987335  0  0  0.12254  0  1.065577  0  0  0.124697  0  1.064384  0  0  0.082736  0.120971  0  1.066442  0
H  H22  1  0.98559545  0.15065963  0.57046115  1  0  0.111963  0  0.987474  0  0  0.122706  0  1.065597  0  0  0.124879  0  1.064393  0  0  0.082773  0.121139  0  1.066452  0
H  H23  1  0.51436050  0.84928399  0.07047718  1  0  0.111853  0  0.987464  0  0  0.12259  0  1.065619  0  0  0.124738  0  1.064429  0  0  0.082737  0.121036  0  1.066466  0
H  H24  1  0.01269397  0.43719110  0.98672151  1  0  0.109044  0  1.000962  0  0  0.120906  0  1.076852  0  0  0.122455  0  1.077317  0  0  0.082296  0.119631  0  1.07667  0
H  H25  1  0.48724715  0.56280620  0.48670363  1  0  0.109029  0  1.000919  0  0  0.120843  0  1.076884  0  0  0.122388  0  1.077369  0  0  0.082303  0.119573  0  1.076694  0
H  H26  1  0.98725674  0.93716255  0.51329185  1  0  0.109091  0  1.00092  0  0  0.120849  0  1.07692  0  0  0.122387  0  1.077404  0  0  0.082318  0.119586  0  1.076725  0
H  H27  1  0.51273296  0.06281977  0.01328688  1  0  0.109056  0  1.000972  0  0  0.120912  0  1.076888  0  0  0.122455  0  1.077365  0  0  0.082356  0.11964  0  1.076703  0
H  H28  1  0.56578433  0.23693871  0.78373886  1  0  0.28416  0  0.909057  0  0  0.273781  0  0.972938  0  0  0.280342  0  0.967386  0  0  0.284382  0.268924  0  0.977132  0
H  H29  1  0.93423283  0.76307055  0.28373205  1  0  0.284205  0  0.90917  0  0  0.273788  0  0.973094  0  0  0.28035  0  0.96754  0  0  0.284414  0.268932  0  0.977292  0
H  H30  1  0.43423115  0.73691243  0.71626990  1  0  0.284165  0  0.909148  0  0  0.27383  0  0.973072  0  0  0.280392  0  0.967512  0  0  0.284386  0.268969  0  0.977274  0
H  H31  1  0.06579070  0.26308430  0.21627077  1  0  0.284265  0  0.909129  0  0  0.273886  0  0.97304  0  0  0.280447  0  0.967483  0  0  0.284424  0.269031  0  0.977242  0
H  H32  1  0.80181738  0.42967249  0.77166415  1  0  0.295155  0  0.926462  0  0  0.285193  0  0.985145  0  0  0.290927  0  0.981881  0  0  0.286275  0.281041  0  0.987548  0
H  H33  1  0.69818032  0.57035413  0.27166835  1  0  0.295047  0  0.92663  0  0  0.285012  0  0.985387  0  0  0.290779  0  0.98208  0  0  0.28622  0.280873  0  0.987738  0
H  H34  1  0.19819619  0.92961807  0.72832866  1  0  0.295025  0  0.926826  0  0  0.2851  0  0.985477  0  0  0.290852  0  0.982149  0  0  0.286287  0.280988  0  0.987771  0
H  H35  1  0.30180505  0.07037186  0.22834528  1  0  0.294999  0  0.926892  0  0  0.285058  0  0.985556  0  0  0.29081  0  0.982219  0  0  0.286249  0.280939  0  0.987904  0
C  C36  1  0.97397579  0.02058260  0.82360353  1  0  0.623285  0  3.878172  0  0  0.580215  0  4.166994  0  0  0.612842  0  4.162427  0  0  0.200687  0.557941  0  4.169252  0
C  C37  1  0.52602422  0.97940683  0.32357762  1  0  0.623236  0  3.877907  0  0  0.5802  0  4.166823  0  0  0.612821  0  4.162255  0  0  0.200594  0.55793  0  4.169078  0
C  C38  1  0.02604167  0.52054700  0.67640839  1  0  0.622925  0  3.878371  0  0  0.579982  0  4.167019  0  0  0.612601  0  4.162456  0  0  0.200424  0.557711  0  4.169271  0
C  C39  1  0.47401737  0.47942562  0.17639504  1  0  0.623616  0  3.87737  0  0  0.580581  0  4.166025  0  0  0.613209  0  4.161453  0  0  0.200773  0.55831  0  4.168283  0
C  C40  1  0.85224086  0.25275309  0.84597685  1  0  0.084031  0  3.625741  0  0  0.066386  0  3.857342  0  0  0.065609  0  3.873528  0  0  -0.005291  0.066945  0  3.846187  0
C  C41  1  0.64774463  0.74721270  0.34596219  1  0  0.084153  0  3.625469  0  0  0.066233  0  3.857515  0  0  0.065441  0  3.873696  0  0  -0.005193  0.066795  0  3.846379  0
C  C42  1  0.14779931  0.75275254  0.65402586  1  0  0.083892  0  3.625399  0  0  0.066245  0  3.857122  0  0  0.065451  0  3.873301  0  0  -0.005282  0.066802  0  3.845987  0
C  C43  1  0.35226624  0.24726657  0.15402868  1  0  0.08395  0  3.6259  0  0  0.066578  0  3.857102  0  0  0.065786  0  3.87328  0  0  -0.005134  0.067139  0  3.845961  0
C  C44  1  0.70482574  0.19908502  0.90212653  1  0  -0.20738  0  3.637868  0  0  -0.243682  0  3.886597  0  0  -0.244927  0  3.898465  0  0  -0.157647  -0.242906  0  3.87871  0
C  C45  1  0.79515044  0.80087858  0.40210902  1  0  -0.207101  0  3.637754  0  0  -0.243574  0  3.886817  0  0  -0.244769  0  3.898605  0  0  -0.157646  -0.242821  0  3.878961  0
C  C46  1  0.29521149  0.69913759  0.59787762  1  0  -0.207475  0  3.637701  0  0  -0.244027  0  3.886853  0  0  -0.245218  0  3.898636  0  0  -0.157886  -0.243266  0  3.878987  0
C  C47  1  0.20487940  0.30091537  0.09787656  1  0  -0.207115  0  3.637936  0  0  -0.243552  0  3.886821  0  0  -0.244762  0  3.89864  0  0  -0.157662  -0.242801  0  3.878948  0
C  C48  1  0.89770858  0.57525787  0.96488949  1  0  -0.335867  0  3.660061  0  0  -0.405918  0  3.909051  0  0  -0.408188  0  3.918409  0  0  -0.241019  -0.404139  0  3.902707  0
C  C49  1  0.60225977  0.42472487  0.46489160  1  0  -0.335794  0  3.659816  0  0  -0.40574  0  3.908888  0  0  -0.408014  0  3.918232  0  0  -0.241021  -0.403954  0  3.902546  0
C  C50  1  0.10226792  0.07525638  0.53510000  1  0  -0.335958  0  3.65994  0  0  -0.405959  0  3.909093  0  0  -0.408237  0  3.918434  0  0  -0.241015  -0.404184  0  3.902756  0
C  C51  1  0.39771259  0.92475809  0.03511849  1  0  -0.335853  0  3.660306  0  0  -0.405859  0  3.909314  0  0  -0.40811  0  3.91866  0  0  -0.241098  -0.404097  0  3.902963  0
S  S52  1  0.58458421  0.45312646  0.94078223  1  0  0.006703  0  2.532401  0  0  0.043739  0  2.914126  0  0  0.037843  0  2.910144  0  0  -0.015221  0.048163  0  2.916727  0
S  S53  1  0.91540933  0.54686280  0.44078118  1  0  0.006474  0  2.532553  0  0  0.04362  0  2.914243  0  0  0.037702  0  2.910258  0  0  -0.015274  0.04806  0  2.916834  0
S  S54  1  0.41543529  0.95317012  0.55920237  1  0  0.006635  0  2.532497  0  0  0.043845  0  2.914118  0  0  0.037922  0  2.910148  0  0  -0.015095  0.048277  0  2.91671  0
S  S55  1  0.08460219  0.04690290  0.05922309  1  0  0.006598  0  2.532742  0  0  0.04366  0  2.914478  0  0  0.037756  0  2.910469  0  0  -0.015228  0.048086  0  2.917091  0
N  N56  1  0.67812451  0.36527080  0.80324813  1  0  -0.618885  0  3.205488  0  0  -0.557272  0  3.458423  0  0  -0.57938  0  3.459207  0  0  -0.643163  -0.541512  0  3.457549  0
N  N57  1  0.82190127  0.63471325  0.30324520  1  0  -0.618967  0  3.205879  0  0  -0.55708  0  3.458639  0  0  -0.579223  0  3.4594  0  0  -0.643176  -0.541308  0  3.45776  0
N  N58  1  0.32191840  0.86525446  0.69675085  1  0  -0.618786  0  3.20607  0  0  -0.557365  0  3.459014  0  0  -0.579459  0  3.45981  0  0  -0.643263  -0.541609  0  3.458114  0
N  N59  1  0.17812691  0.13475693  0.19676054  1  0  -0.618844  0  3.205965  0  0  -0.557465  0  3.458928  0  0  -0.57955  0  3.459719  0  0  -0.643266  -0.54173  0  3.458048  0
O  O60  1  0.86787632  0.91713391  0.78193783  1  0  -0.630588  0  1.969441  0  0  -0.579327  0  2.216473  0  0  -0.60255  0  2.204127  0  0  -0.326535  -0.562949  0  2.224434  0
O  O61  1  0.63209545  0.08290055  0.28191557  1  0  -0.630413  0  1.970038  0  0  -0.579012  0  2.216797  0  0  -0.602224  0  2.204445  0  0  -0.326436  -0.56263  0  2.224755  0
O  O62  1  0.13205902  0.41706379  0.71807686  1  0  -0.630348  0  1.969943  0  0  -0.578968  0  2.216649  0  0  -0.602188  0  2.204312  0  0  -0.326268  -0.562582  0  2.224599  0
O  O63  1  0.36792007  0.58288665  0.21806803  1  0  -0.630854  0  1.968887  0  0  -0.579516  0  2.215739  0  0  -0.602744  0  2.203397  0  0  -0.326637  -0.563133  0  2.223704  0
O  O64  1  0.18017829  0.95222355  0.85228035  1  0  -0.6308  0  2.117421  0  0  -0.545874  0  2.387435  0  0  -0.578288  0  2.376686  0  0  -0.345517  -0.52309  0  2.394034  0
O  O65  1  0.31980790  0.04772937  0.35225888  1  0  -0.630868  0  2.116689  0  0  -0.545951  0  2.386733  0  0  -0.578362  0  2.375981  0  0  -0.345514  -0.523171  0  2.393335  0
O  O66  1  0.81985307  0.45222113  0.64772310  1  0  -0.630765  0  2.117367  0  0  -0.545857  0  2.387331  0  0  -0.578269  0  2.37658  0  0  -0.345537  -0.523082  0  2.393934  0
O  O67  1  0.68023782  0.54778272  0.14772310  1  0  -0.630734  0  2.117107  0  0  -0.54591  0  2.387151  0  0  -0.578311  0  2.376386  0  0  -0.345475  -0.523135  0  2.393753  0
