# generated using pymatgen
data_CdH16C14(SN2)2
_symmetry_space_group_name_H-M   'P 1'
_cell_length_a   8.93087571
_cell_length_b   10.26640311
_cell_length_c   11.02581713
_cell_angle_alpha   114.22933106
_cell_angle_beta   109.23968875
_cell_angle_gamma   98.73422496
_symmetry_Int_Tables_number   1
_chemical_formula_structural   CdH16C14(SN2)2
_chemical_formula_sum   'Cd2 H32 C28 S4 N8'
_cell_volume   820.58212967
_cell_formula_units_Z   2
loop_
 _symmetry_equiv_pos_site_id
 _symmetry_equiv_pos_as_xyz
  1  'x, y, z'
loop_
 _atom_site_type_symbol
 _atom_site_label
 _atom_site_symmetry_multiplicity
 _atom_site_fract_x
 _atom_site_fract_y
 _atom_site_fract_z
 _atom_site_occupancy
 _atom_site_hle17_bader_spin_density
 _atom_site_hle17_ddec_charge
 _atom_site_hle17_ddec_spin_density
 _atom_site_hle17_ddec_sum_bond_order
 _atom_site_hle17_magmom
 _atom_site_hse06_10hf_bader_spin_density
 _atom_site_hse06_10hf_ddec_charge
 _atom_site_hse06_10hf_ddec_spin_density
 _atom_site_hse06_10hf_ddec_sum_bond_order
 _atom_site_hse06_10hf_magmom
 _atom_site_hse06_bader_spin_density
 _atom_site_hse06_ddec_charge
 _atom_site_hse06_ddec_spin_density
 _atom_site_hse06_ddec_sum_bond_order
 _atom_site_hse06_magmom
 _atom_site_pbe_bader_spin_density
 _atom_site_pbe_cm5_charge
 _atom_site_pbe_ddec_charge
 _atom_site_pbe_ddec_spin_density
 _atom_site_pbe_ddec_sum_bond_order
 _atom_site_pbe_magmom
Cd  Cd0  1  0.12683417  0.25099936  0.95759533  1  0  0.941208  0  2.005507  0  0  0.760608  0  2.474053  0  0  0.804949  0  2.436736  0  0  0.718855  0.731154  0  2.496395  0
Cd  Cd1  1  0.87316151  0.74898387  0.04240040  1  0  0.94119  0  2.00554  0  0  0.760596  0  2.474085  0  0  0.804935  0  2.436768  0  0  0.718838  0.731146  0  2.496414  0
H  H2  1  0.93819588  0.23004208  0.62805285  1  0  0.067336  0  0.97942  0  0  0.071877  0  1.051485  0  0  0.074274  0  1.049953  0  0  0.103172  0.069858  0  1.053238  0
H  H3  1  0.06180323  0.76996038  0.37195019  1  0  0.067351  0  0.979418  0  0  0.071891  0  1.051484  0  0  0.074287  0  1.049953  0  0  0.103173  0.069871  0  1.053237  0
H  H4  1  0.98909362  0.17772038  0.40383125  1  0  0.106586  0  0.964523  0  0  0.115559  0  1.026406  0  0  0.118332  0  1.025791  0  0  0.107712  0.113719  0  1.026698  0
H  H5  1  0.01090645  0.82229451  0.59617404  1  0  0.106508  0  0.964599  0  0  0.115447  0  1.026537  0  0  0.11822  0  1.025922  0  0  0.107685  0.113625  0  1.026809  0
H  H6  1  0.26007231  0.13892508  0.40689560  1  0  0.101719  0  0.936683  0  0  0.11541  0  0.991083  0  0  0.117357  0  0.990367  0  0  0.109703  0.11396  0  0.991631  0
H  H7  1  0.73992292  0.86108298  0.59310217  1  0  0.101731  0  0.936758  0  0  0.115406  0  0.991165  0  0  0.117355  0  0.990445  0  0  0.109682  0.113954  0  0.991716  0
H  H8  1  0.47178430  0.15604272  0.63573530  1  0  0.103299  0  0.983042  0  0  0.109965  0  1.050188  0  0  0.113146  0  1.049458  0  0  0.099323  0.107521  0  1.051097  0
H  H9  1  0.52821486  0.84396310  0.36425995  1  0  0.103299  0  0.983043  0  0  0.110021  0  1.050121  0  0  0.113201  0  1.04939  0  0  0.099349  0.107576  0  1.051031  0
H  H10  1  0.55160184  0.19388012  0.88394819  1  0  0.072461  0  0.974518  0  0  0.080151  0  1.047944  0  0  0.082369  0  1.045488  0  0  0.109431  0.078357  0  1.049902  0
H  H11  1  0.44840445  0.80612576  0.11605080  1  0  0.072478  0  0.97464  0  0  0.08016  0  1.048044  0  0  0.08238  0  1.045585  0  0  0.109416  0.07836  0  1.050014  0
H  H12  1  0.63591678  0.22503892  0.10716553  1  0  0.030857  0  0.916849  0  0  0.045793  0  0.978497  0  0  0.045997  0  0.978514  0  0  0.099637  0.045459  0  0.978766  0
H  H13  1  0.36408306  0.77495902  0.89283417  1  0  0.030839  0  0.916827  0  0  0.045746  0  0.978469  0  0  0.045947  0  0.978485  0  0  0.099626  0.045416  0  0.978736  0
H  H14  1  0.40638736  0.02527443  0.07832304  1  0  0.071026  0  0.945985  0  0  0.086059  0  1.012559  0  0  0.086455  0  1.013652  0  0  0.086178  0.085658  0  1.011969  0
H  H15  1  0.59361092  0.97472578  0.92168164  1  0  0.071003  0  0.945981  0  0  0.086027  0  1.012568  0  0  0.086453  0  1.013624  0  0  0.086154  0.085627  0  1.011975  0
H  H16  1  0.34084281  0.16582867  0.18400399  1  0  0.063769  0  0.95997  0  0  0.079477  0  1.03055  0  0  0.079572  0  1.031702  0  0  0.082639  0.07906  0  1.030175  0
H  H17  1  0.65915671  0.83417491  0.81599687  1  0  0.063817  0  0.959907  0  0  0.079525  0  1.030475  0  0  0.079619  0  1.031635  0  0  0.082666  0.07911  0  1.030101  0
H  H18  1  0.52086060  0.08098825  0.34134512  1  0  0.052986  0  0.960941  0  0  0.068894  0  1.030029  0  0  0.069147  0  1.031035  0  0  0.077971  0.068909  0  1.029026  0
H  H19  1  0.47913737  0.91901760  0.65865981  1  0  0.052979  0  0.960945  0  0  0.068888  0  1.030028  0  0  0.069141  0  1.031033  0  0  0.077966  0.068905  0  1.029024  0
H  H20  1  0.68527326  0.12537558  0.29451531  1  0  0.054904  0  0.939843  0  0  0.07572  0  1.000391  0  0  0.075911  0  1.001625  0  0  0.081915  0.075506  0  0.999606  0
H  H21  1  0.31472548  0.87462915  0.70548849  1  0  0.054951  0  0.939774  0  0  0.07574  0  1.000355  0  0  0.075932  0  1.001589  0  0  0.081933  0.075533  0  0.999565  0
H  H22  1  0.74180584  0.33453390  0.54066460  1  0  0.05866  0  0.948646  0  0  0.076787  0  1.011176  0  0  0.077396  0  1.011462  0  0  0.079927  0.076224  0  1.011267  0
H  H23  1  0.25819533  0.66547420  0.45933569  1  0  0.058638  0  0.94869  0  0  0.076787  0  1.011205  0  0  0.077395  0  1.011491  0  0  0.079927  0.076229  0  1.011292  0
H  H24  1  0.54378109  0.35262239  0.46549459  1  0  0.061136  0  0.928143  0  0  0.083756  0  0.983492  0  0  0.084086  0  0.984544  0  0  0.085078  0.083487  0  0.982847  0
H  H25  1  0.45622127  0.64738573  0.53450784  1  0  0.061135  0  0.928128  0  0  0.083747  0  0.98349  0  0  0.084073  0  0.984544  0  0  0.085074  0.083482  0  0.982844  0
H  H26  1  0.83376538  0.41198099  0.38263767  1  0  0.058465  0  0.934796  0  0  0.076327  0  0.998136  0  0  0.077065  0  0.998517  0  0  0.08147  0.075982  0  0.997489  0
H  H27  1  0.16623332  0.58802031  0.61735756  1  0  0.058507  0  0.934779  0  0  0.076369  0  0.998101  0  0  0.077107  0  0.998482  0  0  0.081491  0.076025  0  0.997452  0
H  H28  1  0.76461718  0.54967407  0.48758791  1  0  0.05202  0  0.98802  0  0  0.064721  0  1.06263  0  0  0.064769  0  1.064488  0  0  0.073994  0.064584  0  1.061555  0
H  H29  1  0.23538353  0.45032950  0.51240690  1  0  0.052059  0  0.988121  0  0  0.064807  0  1.062639  0  0  0.064856  0  1.064497  0  0  0.074043  0.064679  0  1.061555  0
H  H30  1  0.48585276  0.44701196  0.27099913  1  0  0.068136  0  0.93901  0  0  0.084186  0  1.00662  0  0  0.084753  0  1.007165  0  0  0.086433  0.084014  0  1.005828  0
H  H31  1  0.51414713  0.55298935  0.72899642  1  0  0.068157  0  0.93898  0  0  0.084194  0  1.006598  0  0  0.084761  0  1.007146  0  0  0.086457  0.084022  0  1.005809  0
H  H32  1  0.64948325  0.49249427  0.22288414  1  0  0.076498  0  0.93747  0  0  0.093159  0  0.997092  0  0  0.093407  0  0.999191  0  0  0.087759  0.093118  0  0.995641  0
H  H33  1  0.35051540  0.50750363  0.77710888  1  0  0.076478  0  0.937519  0  0  0.093151  0  0.997114  0  0  0.093399  0  0.999217  0  0  0.087739  0.093111  0  0.995656  0
C  C34  1  0.31267235  0.20012951  0.74834017  1  0  0.196589  0  3.774588  0  0  0.198462  0  4.015366  0  0  0.203155  0  4.03631  0  0  0.119384  0.195138  0  4.001469  0
C  C35  1  0.68732914  0.79987296  0.25165988  1  0  0.19662  0  3.774712  0  0  0.198495  0  4.015472  0  0  0.203173  0  4.036432  0  0  0.119357  0.195166  0  4.001577  0
C  C36  1  0.05473250  0.21325490  0.62423831  1  0  0.134787  0  3.713493  0  0  0.106584  0  3.962809  0  0  0.112353  0  3.98158  0  0  0.052367  0.102386  0  3.950802  0
C  C37  1  0.94526703  0.78674869  0.37576254  1  0  0.134771  0  3.713578  0  0  0.106573  0  3.962886  0  0  0.11234  0  3.981656  0  0  0.052389  0.102377  0  3.950882  0
C  C38  1  0.08354934  0.18408926  0.50023790  1  0  -0.096013  0  3.69673  0  0  -0.110984  0  3.947635  0  0  -0.116546  0  3.96855  0  0  -0.073321  -0.107462  0  3.933527  0
C  C39  1  0.91645384  0.81592113  0.49976651  1  0  -0.09585  0  3.696739  0  0  -0.110806  0  3.947637  0  0  -0.116366  0  3.968551  0  0  -0.073293  -0.107302  0  3.933528  0
C  C40  1  0.23436370  0.16207256  0.50237266  1  0  0.005127  0  3.694174  0  0  -0.012917  0  3.943563  0  0  -0.010059  0  3.962189  0  0  -0.060486  -0.01442  0  3.931024  0
C  C41  1  0.76563272  0.83793553  0.49762906  1  0  0.005071  0  3.694295  0  0  -0.012935  0  3.943646  0  0  -0.010078  0  3.962271  0  0  -0.060445  -0.014435  0  3.931113  0
C  C42  1  0.35127923  0.17084902  0.62845078  1  0  -0.133189  0  3.678744  0  0  -0.150837  0  3.921328  0  0  -0.157603  0  3.943159  0  0  -0.070909  -0.146415  0  3.907042  0
C  C43  1  0.64871910  0.82915454  0.37154520  1  0  -0.133193  0  3.6788  0  0  -0.150899  0  3.921369  0  0  -0.157659  0  3.943199  0  0  -0.070928  -0.146473  0  3.907082  0
C  C44  1  0.43308158  0.21115921  0.88388970  1  0  0.107826  0  3.642073  0  0  0.066003  0  3.892797  0  0  0.075783  0  3.905836  0  0  0.086296  0.059404  0  3.884226  0
C  C45  1  0.56691437  0.78884438  0.11611654  1  0  0.107632  0  3.641865  0  0  0.065846  0  3.892552  0  0  0.075635  0  3.905587  0  0  0.086217  0.05925  0  3.883982  0
C  C46  1  0.52839912  0.25232623  0.12809103  1  0  0.149563  0  3.633208  0  0  0.13555  0  3.875535  0  0  0.138915  0  3.892372  0  0  0.008261  0.133377  0  3.864245  0
C  C47  1  0.47160072  0.74767170  0.87190776  1  0  0.149574  0  3.63335  0  0  0.135682  0  3.875484  0  0  0.139053  0  3.892317  0  0  0.008261  0.133502  0  3.8642  0
C  C48  1  0.45201634  0.14203308  0.16976355  1  0  -0.154447  0  3.655532  0  0  -0.196145  0  3.909377  0  0  -0.197943  0  3.924071  0  0  -0.167062  -0.194584  0  3.899203  0
C  C49  1  0.54798277  0.85796938  0.83023857  1  0  -0.154455  0  3.65547  0  0  -0.196165  0  3.909266  0  0  -0.197985  0  3.923962  0  0  -0.167056  -0.194614  0  3.899114  0
C  C50  1  0.57970870  0.15940607  0.31284402  1  0  -0.103354  0  3.698095  0  0  -0.141621  0  3.957567  0  0  -0.142768  0  3.973113  0  0  -0.170918  -0.140607  0  3.946481  0
C  C51  1  0.42028922  0.84059639  0.68715869  1  0  -0.103408  0  3.698055  0  0  -0.141651  0  3.957567  0  0  -0.142799  0  3.97312  0  0  -0.17096  -0.140642  0  3.946483  0
C  C52  1  0.64726836  0.32276612  0.43939714  1  0  -0.109658  0  3.692994  0  0  -0.145321  0  3.94835  0  0  -0.146226  0  3.962993  0  0  -0.17123  -0.144776  0  3.938351  0
C  C53  1  0.35273199  0.67723972  0.56060298  1  0  -0.109628  0  3.692985  0  0  -0.145335  0  3.948397  0  0  -0.146237  0  3.963035  0  0  -0.171214  -0.144797  0  3.938406  0
C  C54  1  0.72155793  0.43284493  0.39730223  1  0  -0.108435  0  3.707444  0  0  -0.144929  0  3.963034  0  0  -0.146117  0  3.978195  0  0  -0.173067  -0.143843  0  3.952321  0
C  C55  1  0.27844195  0.56715638  0.60269423  1  0  -0.108499  0  3.70753  0  0  -0.144984  0  3.963089  0  0  -0.146168  0  3.97825  0  0  -0.173096  -0.143901  0  3.952371  0
C  C56  1  0.59366278  0.41634156  0.25490273  1  0  -0.153396  0  3.649312  0  0  -0.193747  0  3.902142  0  0  -0.196108  0  3.917012  0  0  -0.164815  -0.191932  0  3.891671  0
C  C57  1  0.40633711  0.58365975  0.74509373  1  0  -0.153447  0  3.649406  0  0  -0.193803  0  3.90216  0  0  -0.196173  0  3.917039  0  0  -0.164831  -0.191989  0  3.891688  0
C  C58  1  0.99965453  0.13570329  0.15831966  1  0  0.293727  0  4.012377  0  0  0.272764  0  4.31997  0  0  0.294342  0  4.33284  0  0  0.146752  0.258534  0  4.310158  0
C  C59  1  0.00034320  0.86428562  0.84168331  1  0  0.293658  0  4.012198  0  0  0.272682  0  4.319805  0  0  0.294259  0  4.332675  0  0  0.146793  0.258457  0  4.309999  0
C  C60  1  0.79035674  0.36570711  0.87772187  1  0  0.294898  0  4.013033  0  0  0.27491  0  4.316514  0  0  0.295215  0  4.331043  0  0  0.143754  0.261306  0  4.306521  0
C  C61  1  0.20965155  0.63427169  0.12228009  1  0  0.294679  0  4.013619  0  0  0.274679  0  4.317104  0  0  0.294981  0  4.331644  0  0  0.143735  0.261073  0  4.307113  0
S  S62  1  0.79303123  0.19365373  0.79189757  1  0  -0.354645  0  2.208789  0  0  -0.321219  0  2.541304  0  0  -0.337645  0  2.533934  0  0  -0.132397  -0.309825  0  2.545523  0
S  S63  1  0.20696399  0.80632498  0.20809814  1  0  -0.35459  0  2.208654  0  0  -0.32118  0  2.541188  0  0  -0.337594  0  2.533791  0  0  -0.132455  -0.309789  0  2.545411  0
S  S64  1  0.07192098  0.31048198  0.19571155  1  0  -0.332082  0  2.161305  0  0  -0.293425  0  2.482486  0  0  -0.310885  0  2.475174  0  0  -0.132545  -0.281626  0  2.486166  0
S  S65  1  0.92806523  0.68950459  0.80428563  1  0  -0.332126  0  2.161249  0  0  -0.293456  0  2.482448  0  0  -0.310916  0  2.475134  0  0  -0.13257  -0.281653  0  2.486115  0
N  N66  1  0.16566913  0.22011070  0.74459920  1  0  -0.338697  0  3.244027  0  0  -0.27059  0  3.496886  0  0  -0.28803  0  3.516434  0  0  -0.320003  -0.259014  0  3.483886  0
N  N67  1  0.83432994  0.77988836  0.25540072  1  0  -0.338707  0  3.244128  0  0  -0.270598  0  3.496964  0  0  -0.288031  0  3.516512  0  0  -0.32002  -0.259019  0  3.483959  0
N  N68  1  0.40234677  0.23930939  0.99592539  1  0  -0.299305  0  3.153882  0  0  -0.224261  0  3.417556  0  0  -0.242681  0  3.436016  0  0  -0.314957  -0.21227  0  3.405049  0
N  N69  1  0.59765380  0.76068399  0.00406190  1  0  -0.299147  0  3.153487  0  0  -0.224172  0  3.41712  0  0  -0.242596  0  3.43558  0  0  -0.314856  -0.212177  0  3.404606  0
N  N70  1  0.78247982  0.48764417  0.93999506  1  0  -0.514578  0  2.853016  0  0  -0.461968  0  3.123666  0  0  -0.481105  0  3.130764  0  0  -0.389259  -0.449064  0  3.118142  0
N  N71  1  0.21753492  0.51234260  0.06001709  1  0  -0.514369  0  2.853637  0  0  -0.461749  0  3.124271  0  0  -0.480884  0  3.131378  0  0  -0.389195  -0.448844  0  3.118748  0
N  N72  1  0.94850110  0.01134121  0.13665834  1  0  -0.525802  0  2.874982  0  0  -0.474806  0  3.153695  0  0  -0.495087  0  3.16178  0  0  -0.38703  -0.460927  0  3.146848  0
N  N73  1  0.05150056  0.98864547  0.86334756  1  0  -0.525685  0  2.874867  0  0  -0.474683  0  3.153594  0  0  -0.49496  0  3.161676  0  0  -0.387065  -0.460808  0  3.146755  0
