# generated using pymatgen
data_ZnH5C10N3O4
_symmetry_space_group_name_H-M   'P 1'
_cell_length_a   12.00774438
_cell_length_b   14.85551470
_cell_length_c   20.50970141
_cell_angle_alpha   89.99951019
_cell_angle_beta   90.00057219
_cell_angle_gamma   89.99908092
_symmetry_Int_Tables_number   1
_chemical_formula_structural   ZnH5C10N3O4
_chemical_formula_sum   'Zn8 H40 C80 N24 O32'
_cell_volume   3658.54562202
_cell_formula_units_Z   8
loop_
 _symmetry_equiv_pos_site_id
 _symmetry_equiv_pos_as_xyz
  1  'x, y, z'
loop_
 _atom_site_type_symbol
 _atom_site_label
 _atom_site_symmetry_multiplicity
 _atom_site_fract_x
 _atom_site_fract_y
 _atom_site_fract_z
 _atom_site_occupancy
 _atom_site_pbe_bader_charge
 _atom_site_pbe_bader_spin_density
 _atom_site_pbe_cm5_charge
 _atom_site_pbe_ddec_charge
 _atom_site_pbe_ddec_spin_density
 _atom_site_pbe_ddec_sum_bond_order
 _atom_site_pbe_magmom
Zn  Zn0  1  0.08371733  0.62469229  0.30192177  1  1.308685  0  0.677578  0.846818  0  2.376543  0
Zn  Zn1  1  0.91626082  0.62469425  0.19806116  1  1.313209  0  0.677603  0.846728  0  2.376035  0
Zn  Zn2  1  0.41626783  0.87530657  0.80193558  1  1.313223  0  0.677586  0.846713  0  2.37621  0
Zn  Zn3  1  0.58372220  0.87531283  0.69807498  1  1.308664  0  0.677567  0.846822  0  2.37656  0
Zn  Zn4  1  0.91628256  0.37531050  0.69807653  1  1.308729  0  0.677574  0.846839  0  2.376556  0
Zn  Zn5  1  0.08373907  0.37530653  0.80193909  1  1.313113  0  0.677594  0.84677  0  2.37603  0
Zn  Zn6  1  0.58373456  0.12469420  0.19806369  1  1.313181  0  0.677591  0.846747  0  2.37623  0
Zn  Zn7  1  0.41627019  0.12468996  0.30192575  1  1.308572  0  0.677568  0.8468  0  2.376558  0
H  H8  1  0.37503296  0.72924671  0.55582117  1  0.112768  0  0.108566  0.118775  0  1.005379  0
H  H9  1  0.62496747  0.72924953  0.94417811  1  0.112678  0  0.108577  0.118792  0  1.005381  0
H  H10  1  0.12496466  0.77075169  0.05581839  1  0.112679  0  0.108542  0.118753  0  1.005408  0
H  H11  1  0.87503557  0.77075801  0.44417095  1  0.112784  0  0.10851  0.118701  0  1.005515  0
H  H12  1  0.62496110  0.27076012  0.44417518  1  0.112859  0  0.108546  0.118768  0  1.005401  0
H  H13  1  0.37503575  0.27074249  0.05582457  1  0.112616  0  0.108601  0.118878  0  1.005282  0
H  H14  1  0.87504023  0.22924302  0.94417942  1  0.112898  0  0.108594  0.118816  0  1.005448  0
H  H15  1  0.12496848  0.22925353  0.55582150  1  0.112536  0  0.108578  0.118787  0  1.005177  0
H  H16  1  0.12760143  0.51744951  0.55762610  1  0.079464  0  0.108362  0.119636  0  1.008659  0
H  H17  1  0.87240821  0.51744848  0.94238278  1  0.079623  0  0.108383  0.119698  0  1.008536  0
H  H18  1  0.37240205  0.98254550  0.05762102  1  0.079825  0  0.108356  0.119604  0  1.008632  0
H  H19  1  0.62758814  0.98254495  0.44238456  1  0.079619  0  0.108339  0.119656  0  1.008549  0
H  H20  1  0.87240762  0.48254857  0.44237366  1  0.079555  0  0.108332  0.119608  0  1.008643  0
H  H21  1  0.12760584  0.48254960  0.05761405  1  0.079494  0  0.108336  0.119599  0  1.008563  0
H  H22  1  0.62759368  0.01745123  0.94238264  1  0.07968  0  0.108376  0.119725  0  1.008522  0
H  H23  1  0.37241008  0.01745717  0.55762154  1  0.079768  0  0.108358  0.119581  0  1.008669  0
H  H24  1  0.25106055  0.62600801  0.73797541  1  0.127458  0  0.119336  0.13434  0  0.977378  0
H  H25  1  0.74895776  0.62600666  0.76203231  1  0.127515  0  0.119264  0.134203  0  0.977295  0
H  H26  1  0.24894934  0.87399228  0.23796882  1  0.127474  0  0.119293  0.134247  0  0.977231  0
H  H27  1  0.75103968  0.87399899  0.26202427  1  0.127279  0  0.119364  0.1344  0  0.977242  0
H  H28  1  0.74893934  0.37399411  0.26202386  1  0.127443  0  0.119333  0.134335  0  0.977339  0
H  H29  1  0.25102797  0.37398469  0.23796745  1  0.127488  0  0.119285  0.134191  0  0.977404  0
H  H30  1  0.75105055  0.12599974  0.76203484  1  0.127657  0  0.119296  0.134255  0  0.97725  0
H  H31  1  0.24895022  0.12601053  0.73797305  1  0.127527  0  0.119268  0.134244  0  0.977361  0
H  H32  1  0.07362509  0.63242594  0.45684840  1  0.168805  0  0.154311  0.129156  0  0.963471  0
H  H33  1  0.92637706  0.63242287  0.04315155  1  0.168771  0  0.154313  0.129109  0  0.963474  0
H  H34  1  0.42638020  0.86757715  0.95685208  1  0.168804  0  0.154284  0.129069  0  0.963423  0
H  H35  1  0.57362248  0.86756720  0.54315609  1  0.16879  0  0.154307  0.129158  0  0.963364  0
H  H36  1  0.92637813  0.36757685  0.54314990  1  0.168712  0  0.1543  0.129097  0  0.963403  0
H  H37  1  0.07363116  0.36757252  0.95685114  1  0.168866  0  0.154308  0.129131  0  0.963423  0
H  H38  1  0.57361969  0.13241958  0.04314963  1  0.16871  0  0.154305  0.129102  0  0.96338  0
H  H39  1  0.42637741  0.13242954  0.45684952  1  0.16871  0  0.154266  0.129144  0  0.963421  0
H  H40  1  0.42484610  0.61232340  0.45425072  1  0.156774  0  0.151219  0.123538  0  0.956736  0
H  H41  1  0.57515561  0.61232754  0.04574497  1  0.156728  0  0.151172  0.123468  0  0.956738  0
H  H42  1  0.07515997  0.88767433  0.95425174  1  0.156754  0  0.151209  0.123484  0  0.956675  0
H  H43  1  0.92484646  0.88767192  0.54575242  1  0.156777  0  0.151156  0.12346  0  0.95681  0
H  H44  1  0.57515712  0.38767333  0.54574953  1  0.156791  0  0.151175  0.123471  0  0.956722  0
H  H45  1  0.42485011  0.38767256  0.95425772  1  0.156697  0  0.151188  0.123471  0  0.956834  0
H  H46  1  0.92484325  0.11232510  0.04575046  1  0.15678  0  0.151192  0.123478  0  0.956698  0
H  H47  1  0.07515925  0.11232953  0.45425319  1  0.156747  0  0.151187  0.123482  0  0.956646  0
C  C48  1  0.18255379  0.56497102  0.65137638  1  -0.028624  0  -0.006504  0.001816  0  3.950466  0
C  C49  1  0.81746989  0.56497652  0.84863806  1  -0.028514  0  -0.006453  0.00205  0  3.950565  0
C  C50  1  0.31746378  0.93501481  0.15136640  1  -0.028825  0  -0.006532  0.001866  0  3.950393  0
C  C51  1  0.68254318  0.93503686  0.34862875  1  -0.029357  0  -0.00642  0.002059  0  3.950242  0
C  C52  1  0.81744859  0.43503177  0.34862192  1  -0.028791  0  -0.006511  0.0018  0  3.950481  0
C  C53  1  0.18252667  0.43501618  0.15136170  1  -0.027951  0  -0.006526  0.00215  0  3.950356  0
C  C54  1  0.68253445  0.06497923  0.84863823  1  -0.028421  0  -0.006546  0.001906  0  3.95045  0
C  C55  1  0.31745920  0.06497334  0.65137345  1  -0.029141  0  -0.006441  0.001905  0  3.950542  0
C  C56  1  0.32077616  0.68315089  0.58224670  1  -0.072016  0  -0.082145  -0.181933  0  3.958846  0
C  C57  1  0.67922685  0.68315602  0.91775336  1  -0.072087  0  -0.082265  -0.182142  0  3.958939  0
C  C58  1  0.17922524  0.81684653  0.08224444  1  -0.072186  0  -0.082213  -0.182122  0  3.958974  0
C  C59  1  0.82076991  0.81684713  0.41774998  1  -0.071912  0  -0.082133  -0.181765  0  3.959059  0
C  C60  1  0.67922290  0.31685123  0.41775063  1  -0.071948  0  -0.082108  -0.181856  0  3.959081  0
C  C61  1  0.32077387  0.31683870  0.08224884  1  -0.072039  0  -0.082196  -0.182188  0  3.958966  0
C  C62  1  0.82078048  0.18314752  0.91775678  1  -0.072393  0  -0.082221  -0.181999  0  3.958955  0
C  C63  1  0.17923664  0.18316173  0.58224832  1  -0.071819  0  -0.082214  -0.182087  0  3.958615  0
C  C64  1  0.18108333  0.56497547  0.58319596  1  0.04486  0  -0.08368  -0.182717  0  3.962287  0
C  C65  1  0.81892620  0.56497746  0.91681214  1  0.04491  0  -0.083738  -0.182837  0  3.962518  0
C  C66  1  0.31892475  0.93501924  0.08319184  1  0.044938  0  -0.083702  -0.182658  0  3.962424  0
C  C67  1  0.68107888  0.93502704  0.41680868  1  0.044595  0  -0.083788  -0.182967  0  3.962141  0
C  C68  1  0.81892406  0.43502328  0.41680282  1  0.045096  0  -0.083657  -0.182665  0  3.962161  0
C  C69  1  0.18107952  0.43501861  0.08318859  1  0.044512  0  -0.083686  -0.182793  0  3.962457  0
C  C70  1  0.68107431  0.06498019  0.91681377  1  0.044856  0  -0.083734  -0.182855  0  3.962413  0
C  C71  1  0.31892851  0.06498181  0.58319596  1  0.0449  0  -0.083662  -0.18258  0  3.962191  0
C  C72  1  0.25061091  0.62377090  0.54935931  1  0.257888  0  0.083708  0.148183  0  4.076068  0
C  C73  1  0.74939494  0.62377338  0.95064355  1  0.25718  0  0.083733  0.148213  0  4.075959  0
C  C74  1  0.24939409  0.87622354  0.04935417  1  0.2572  0  0.083673  0.148025  0  4.076359  0
C  C75  1  0.75060655  0.87622533  0.45064281  1  0.25779  0  0.083737  0.148166  0  4.076139  0
C  C76  1  0.74939147  0.37622584  0.45063947  1  0.257538  0  0.083733  0.148205  0  4.076188  0
C  C77  1  0.25061327  0.37622201  0.04935524  1  0.257926  0  0.083635  0.148047  0  4.076419  0
C  C78  1  0.75060830  0.12377319  0.95064461  1  0.257094  0  0.083686  0.148041  0  4.076268  0
C  C79  1  0.24940084  0.12378284  0.54935939  1  0.25753  0  0.083644  0.148099  0  4.076062  0
C  C80  1  0.25089770  0.62552433  0.68489419  1  -0.012604  0  -0.06017  -0.088857  0  3.870335  0
C  C81  1  0.74911895  0.62552572  0.81511353  1  -0.011749  0  -0.060002  -0.088617  0  3.869694  0
C  C82  1  0.24910545  0.87447188  0.18488662  1  -0.012343  0  -0.060085  -0.088746  0  3.869673  0
C  C83  1  0.75088356  0.87448604  0.31510646  1  -0.011294  0  -0.060273  -0.088967  0  3.869996  0
C  C84  1  0.74910135  0.37447847  0.31510606  1  -0.012407  0  -0.060199  -0.088845  0  3.870204  0
C  C85  1  0.25087178  0.37446765  0.18488915  1  -0.012145  0  -0.060068  -0.088762  0  3.869746  0
C  C86  1  0.75088945  0.12552284  0.81511606  1  -0.01187  0  -0.060098  -0.088671  0  3.86985  0
C  C87  1  0.24911716  0.12552685  0.68489232  1  -0.012083  0  -0.060117  -0.088786  0  3.870153  0
C  C88  1  0.39099437  0.75238809  0.68556852  1  1.60861  0  0.21511  0.592223  0  4.182295  0
C  C89  1  0.60898978  0.75238390  0.81444427  1  1.608535  0  0.215171  0.591953  0  4.182303  0
C  C90  1  0.10897049  0.74761753  0.18554581  1  1.608237  0  0.215334  0.592032  0  4.181661  0
C  C91  1  0.89098024  0.74761710  0.31442613  1  1.607432  0  0.215088  0.592316  0  4.18228  0
C  C92  1  0.60900219  0.24761874  0.31442831  1  1.607635  0  0.215217  0.592319  0  4.182145  0
C  C93  1  0.39100095  0.24760476  0.18555500  1  1.607972  0  0.21519  0.592271  0  4.182357  0
C  C94  1  0.89102357  0.25237651  0.81444761  1  1.608705  0  0.215306  0.592321  0  4.181756  0
C  C95  1  0.10901549  0.25239243  0.68557071  1  1.607436  0  0.215046  0.592191  0  4.182533  0
C  C96  1  0.15889748  0.62646003  0.44013414  1  1.002056  0  0.169523  0.096206  0  3.866859  0
C  C97  1  0.84110313  0.62645853  0.05986438  1  1.002048  0  0.16959  0.096323  0  3.866734  0
C  C98  1  0.34110753  0.87354259  0.94013631  1  1.001774  0  0.169627  0.096373  0  3.866562  0
C  C99  1  0.65889919  0.87353268  0.55986842  1  1.001968  0  0.169526  0.096247  0  3.866858  0
C  C100  1  0.84110574  0.37354007  0.55986465  1  1.002064  0  0.169544  0.09638  0  3.866682  0
C  C101  1  0.15890259  0.37353349  0.94013733  1  1.001807  0  0.169594  0.096343  0  3.866577  0
C  C102  1  0.65889403  0.12645953  0.05986491  1  1.001936  0  0.169628  0.096384  0  3.866501  0
C  C103  1  0.34110569  0.12646473  0.44013524  1  1.002038  0  0.169579  0.096163  0  3.866723  0
C  C104  1  0.33924532  0.61731210  0.43773973  1  0.914605  0  0.154547  0.066483  0  3.935784  0
C  C105  1  0.66075213  0.61731762  0.06226080  1  0.914447  0  0.15458  0.066502  0  3.935451  0
C  C106  1  0.16075631  0.88268381  0.93773787  1  0.91443  0  0.154597  0.066594  0  3.935334  0
C  C107  1  0.83924773  0.88268366  0.56226193  1  0.914465  0  0.15461  0.066606  0  3.935398  0
C  C108  1  0.66075623  0.38268329  0.56226003  1  0.914446  0  0.15463  0.066681  0  3.935396  0
C  C109  1  0.33925359  0.38268113  0.93774091  1  0.914364  0  0.15463  0.066662  0  3.935875  0
C  C110  1  0.83924441  0.11731629  0.06226189  1  0.91445  0  0.15463  0.066582  0  3.935483  0
C  C111  1  0.16075632  0.11732048  0.43773929  1  0.914565  0  0.15458  0.066539  0  3.935424  0
C  C112  1  0.31945174  0.68491886  0.65041491  1  0.05565  0  -0.005241  0.004487  0  3.952374  0
C  C113  1  0.68054957  0.68491737  0.84959196  1  0.054936  0  -0.005201  0.004573  0  3.952226  0
C  C114  1  0.18053916  0.81508313  0.15040731  1  0.05512  0  -0.005112  0.004762  0  3.952195  0
C  C115  1  0.81943854  0.81508657  0.34958517  1  0.055104  0  -0.005097  0.004387  0  3.952292  0
C  C116  1  0.68054482  0.31508528  0.34958290  1  0.055688  0  -0.005223  0.004366  0  3.952547  0
C  C117  1  0.31944199  0.31507398  0.15041317  1  0.055164  0  -0.005178  0.004723  0  3.951977  0
C  C118  1  0.81946323  0.18490956  0.84959391  1  0.054516  0  -0.005098  0.004517  0  3.952285  0
C  C119  1  0.18056218  0.18492766  0.65041411  1  0.05566  0  -0.005183  0.004545  0  3.952257  0
C  C120  1  0.11205860  0.49751349  0.68736959  1  1.597042  0  0.21595  0.59324  0  4.177953  0
C  C121  1  0.88798225  0.49751177  0.81266525  1  1.5963  0  0.215798  0.592869  0  4.178248  0
C  C122  1  0.38797286  0.00248031  0.18734320  1  1.5967  0  0.216069  0.593485  0  4.178109  0
C  C123  1  0.61204598  0.00249562  0.31263871  1  1.597872  0  0.215924  0.593343  0  4.178026  0
C  C124  1  0.88793713  0.50248728  0.31262724  1  1.597212  0  0.215858  0.593051  0  4.178134  0
C  C125  1  0.11201431  0.50248968  0.18733012  1  1.596303  0  0.215839  0.592905  0  4.177938  0
C  C126  1  0.61202453  0.99751575  0.81266241  1  1.596146  0  0.215913  0.593192  0  4.178084  0
C  C127  1  0.38795224  0.99751188  0.68736398  1  1.597462  0  0.215886  0.593167  0  4.177996  0
N  N128  1  0.19169998  0.62323713  0.37870137  1  -0.755017  0  -0.223598  -0.141012  0  3.481257  0
N  N129  1  0.80829486  0.62323332  0.12129376  1  -0.754876  0  -0.223745  -0.141074  0  3.481579  0
N  N130  1  0.30830064  0.87677025  0.87870625  1  -0.754552  0  -0.223623  -0.140939  0  3.481398  0
N  N131  1  0.69170351  0.87676458  0.62129846  1  -0.75503  0  -0.22361  -0.141077  0  3.481495  0
N  N132  1  0.80830241  0.37676566  0.62129693  1  -0.754687  0  -0.223596  -0.141074  0  3.481304  0
N  N133  1  0.19171086  0.37676207  0.87870843  1  -0.754593  0  -0.223786  -0.14107  0  3.481375  0
N  N134  1  0.69170091  0.12323187  0.12129497  1  -0.754937  0  -0.223669  -0.141042  0  3.481517  0
N  N135  1  0.30829804  0.12323822  0.37870423  1  -0.754816  0  -0.223601  -0.140988  0  3.481386  0
N  N136  1  0.24982833  0.62292449  0.47963816  1  -1.259942  0  -0.214986  -0.017239  0  3.800959  0
N  N137  1  0.75017401  0.62293002  0.02036282  1  -1.259891  0  -0.214983  -0.017173  0  3.800813  0
N  N138  1  0.25017568  0.87706958  0.97963588  1  -1.25981  0  -0.214961  -0.017096  0  3.800992  0
N  N139  1  0.74982847  0.87706435  0.52036298  1  -1.259663  0  -0.214952  -0.017202  0  3.800777  0
N  N140  1  0.75017489  0.37707022  0.52036062  1  -1.259821  0  -0.214992  -0.017392  0  3.800905  0
N  N141  1  0.24983421  0.37706402  0.97963840  1  -1.259682  0  -0.214929  -0.017193  0  3.801068  0
N  N142  1  0.74982587  0.12293119  0.02036388  1  -1.259768  0  -0.214994  -0.017108  0  3.800864  0
N  N143  1  0.25017642  0.12293441  0.47963922  1  -1.259842  0  -0.214959  -0.017101  0  3.800655  0
N  N144  1  0.30587884  0.61721574  0.37662660  1  -0.64024  0  -0.218051  -0.177826  0  3.124418  0
N  N145  1  0.69412112  0.61721540  0.12337295  1  -0.640249  0  -0.218005  -0.177769  0  3.124456  0
N  N146  1  0.19412508  0.88278897  0.87662639  1  -0.640431  0  -0.218119  -0.177943  0  3.124405  0
N  N147  1  0.80587978  0.88278852  0.62337535  1  -0.640282  0  -0.218026  -0.17782  0  3.124286  0
N  N148  1  0.69412438  0.38278301  0.62337218  1  -0.640412  0  -0.218113  -0.177916  0  3.124325  0
N  N149  1  0.30588460  0.38278403  0.87662924  1  -0.640382  0  -0.218032  -0.177892  0  3.124661  0
N  N150  1  0.80587564  0.11721248  0.12337434  1  -0.640181  0  -0.21809  -0.177883  0  3.124408  0
N  N151  1  0.19412094  0.11722033  0.37662734  1  -0.640215  0  -0.21803  -0.177814  0  3.124544  0
O  O152  1  0.35439068  0.77963916  0.74024977  1  -1.170014  0  -0.31018  -0.532939  0  2.315166  0
O  O153  1  0.64557959  0.77964524  0.75975944  1  -1.170523  0  -0.310159  -0.532765  0  2.315251  0
O  O154  1  0.14556427  0.72034495  0.24022695  1  -1.1701  0  -0.310248  -0.532867  0  2.314912  0
O  O155  1  0.85437200  0.72036784  0.25974174  1  -1.169525  0  -0.310289  -0.533065  0  2.314867  0
O  O156  1  0.64561170  0.22036834  0.25974658  1  -1.169386  0  -0.310305  -0.533023  0  2.31493  0
O  O157  1  0.35440447  0.22034207  0.24023886  1  -1.170224  0  -0.310195  -0.532966  0  2.315315  0
O  O158  1  0.85443478  0.27963698  0.75976160  1  -1.170229  0  -0.310307  -0.533039  0  2.314955  0
O  O159  1  0.14562039  0.27963764  0.74025558  1  -1.169513  0  -0.310264  -0.533031  0  2.315066  0
O  O160  1  0.48002226  0.77660966  0.65707682  1  -1.170478  0  -0.321598  -0.558275  0  2.30989  0
O  O161  1  0.51996807  0.77660023  0.84293972  1  -1.169783  0  -0.32165  -0.558195  0  2.309842  0
O  O162  1  0.01994127  0.72341649  0.15705228  1  -1.169703  0  -0.321824  -0.55829  0  2.309393  0
O  O163  1  0.98000660  0.72339303  0.34291737  1  -1.169841  0  -0.321473  -0.558167  0  2.310187  0
O  O164  1  0.51997680  0.22339717  0.34291806  1  -1.170326  0  -0.321553  -0.558188  0  2.309873  0
O  O165  1  0.48002516  0.22339112  0.15706297  1  -1.169642  0  -0.321603  -0.558285  0  2.309978  0
O  O166  1  0.98004446  0.27659640  0.84294456  1  -1.169791  0  -0.321675  -0.558328  0  2.30963  0
O  O167  1  0.01998912  0.27661381  0.65708044  1  -1.170196  0  -0.321444  -0.558102  0  2.310165  0
O  O168  1  0.03100764  0.46364126  0.65588339  1  -1.167973  0  -0.322451  -0.562107  0  2.324333  0
O  O169  1  0.96902139  0.46364687  0.84416435  1  -1.168006  0  -0.322284  -0.56193  0  2.324538  0
O  O170  1  0.46901328  0.03634753  0.15584556  1  -1.167752  0  -0.32244  -0.562221  0  2.324399  0
O  O171  1  0.53098989  0.03636150  0.34412493  1  -1.168266  0  -0.322365  -0.562213  0  2.324574  0
O  O172  1  0.96898642  0.53636423  0.34410955  1  -1.167992  0  -0.32238  -0.562007  0  2.32452  0
O  O173  1  0.03098100  0.53636064  0.15582908  1  -1.168228  0  -0.322199  -0.561904  0  2.32435  0
O  O174  1  0.53098494  0.96364719  0.84415762  1  -1.167709  0  -0.322351  -0.562115  0  2.324455  0
O  O175  1  0.46900417  0.96364197  0.65587776  1  -1.168067  0  -0.32241  -0.562117  0  2.324359  0
O  O176  1  0.14088484  0.47956407  0.74551246  1  -1.159906  0  -0.309593  -0.531979  0  2.308318  0
O  O177  1  0.85917302  0.47954052  0.75452054  1  -1.159086  0  -0.309698  -0.532  0  2.30838  0
O  O178  1  0.35916010  0.02044520  0.24548530  1  -1.159423  0  -0.309808  -0.532279  0  2.308533  0
O  O179  1  0.64087420  0.02045409  0.25449942  1  -1.160052  0  -0.309658  -0.532  0  2.30842  0
O  O180  1  0.85910589  0.52043199  0.25448388  1  -1.160045  0  -0.309581  -0.531876  0  2.308186  0
O  O181  1  0.14082187  0.52046025  0.24547531  1  -1.15928  0  -0.30979  -0.532082  0  2.308304  0
O  O182  1  0.64083645  0.97955019  0.75451738  1  -1.159189  0  -0.309732  -0.53212  0  2.308419  0
O  O183  1  0.35912152  0.97955678  0.74550473  1  -1.159943  0  -0.309631  -0.531956  0  2.308392  0
