# generated using pymatgen
data_CuH9C9BrN5
_symmetry_space_group_name_H-M   'P 1'
_cell_length_a   7.38258273
_cell_length_b   7.67560803
_cell_length_c   9.92587624
_cell_angle_alpha   80.70158183
_cell_angle_beta   75.73571093
_cell_angle_gamma   84.88055601
_symmetry_Int_Tables_number   1
_chemical_formula_structural   CuH9C9BrN5
_chemical_formula_sum   'Cu2 H18 C18 Br2 N10'
_cell_volume   537.23558796
_cell_formula_units_Z   2
loop_
 _symmetry_equiv_pos_site_id
 _symmetry_equiv_pos_as_xyz
  1  'x, y, z'
loop_
 _atom_site_type_symbol
 _atom_site_label
 _atom_site_symmetry_multiplicity
 _atom_site_fract_x
 _atom_site_fract_y
 _atom_site_fract_z
 _atom_site_occupancy
 _atom_site_hle17_bader_spin_density
 _atom_site_hle17_ddec_charge
 _atom_site_hle17_ddec_spin_density
 _atom_site_hle17_ddec_sum_bond_order
 _atom_site_hle17_magmom
 _atom_site_hse06_10hf_bader_spin_density
 _atom_site_hse06_10hf_ddec_charge
 _atom_site_hse06_10hf_ddec_spin_density
 _atom_site_hse06_10hf_ddec_sum_bond_order
 _atom_site_hse06_10hf_magmom
 _atom_site_hse06_bader_spin_density
 _atom_site_hse06_ddec_charge
 _atom_site_hse06_ddec_spin_density
 _atom_site_hse06_ddec_sum_bond_order
 _atom_site_hse06_magmom
 _atom_site_pbe_bader_spin_density
 _atom_site_pbe_cm5_charge
 _atom_site_pbe_ddec_charge
 _atom_site_pbe_ddec_spin_density
 _atom_site_pbe_ddec_sum_bond_order
 _atom_site_pbe_magmom
Cu  Cu0  1  0.16758426  0.33311814  0.38503220  1  0  0.485533  0  2.018709  0  0  0.425736  0  2.465262  0  0  0.43096  0  2.427329  0  0  0.471765  0.423251  0  2.489874  0
Cu  Cu1  1  0.83241374  0.66688503  0.61496901  1  0  0.485568  0  2.018739  0  0  0.425797  0  2.465301  0  0  0.431017  0  2.427384  0  0  0.471785  0.4233  0  2.489898  0
H  H2  1  0.53814718  0.48075957  0.29849332  1  0  0.080706  0  0.978569  0  0  0.088237  0  1.047088  0  0  0.090573  0  1.045493  0  0  0.101949  0.08652  0  1.04816  0
H  H3  1  0.46185934  0.51924091  0.70150467  1  0  0.080792  0  0.97851  0  0  0.08832  0  1.047022  0  0  0.090655  0  1.045427  0  0  0.101963  0.086601  0  1.048101  0
H  H4  1  0.70405836  0.70394998  0.10620782  1  0  0.108407  0  0.977699  0  0  0.109145  0  1.052969  0  0  0.113241  0  1.050594  0  0  0.103853  0.106227  0  1.054683  0
H  H5  1  0.29594705  0.29604519  0.89378703  1  0  0.108447  0  0.977567  0  0  0.109153  0  1.052874  0  0  0.113258  0  1.050489  0  0  0.103845  0.10622  0  1.054601  0
H  H6  1  0.53521669  0.86191993  0.92911590  1  0  0.106943  0  0.935265  0  0  0.115418  0  1.000774  0  0  0.118754  0  0.997358  0  0  0.113108  0.112829  0  1.003507  0
H  H7  1  0.46478851  0.13807922  0.07088049  1  0  0.106979  0  0.935218  0  0  0.115418  0  1.00078  0  0  0.118753  0  0.997364  0  0  0.113103  0.112826  0  1.003514  0
H  H8  1  0.06116283  0.54780101  0.14110496  1  0  0.086213  0  0.959068  0  0  0.087767  0  1.036405  0  0  0.091442  0  1.032311  0  0  0.110628  0.085028  0  1.039504  0
H  H9  1  0.93884061  0.45220481  0.85889693  1  0  0.086223  0  0.959009  0  0  0.087783  0  1.036352  0  0  0.091456  0  1.032262  0  0  0.110631  0.085043  0  1.039452  0
H  H10  1  0.12085178  0.26100608  0.69628268  1  0  0.096589  0  0.94883  0  0  0.109207  0  1.013213  0  0  0.11062  0  1.012223  0  0  0.107206  0.108133  0  1.013886  0
H  H11  1  0.87914216  0.73899444  0.30371759  1  0  0.096581  0  0.948845  0  0  0.109212  0  1.013192  0  0  0.110623  0  1.012199  0  0  0.107199  0.108139  0  1.013864  0
H  H12  1  0.92750818  0.16628004  0.66349052  1  0  0.098449  0  0.935398  0  0  0.109788  0  0.999879  0  0  0.111427  0  0.998939  0  0  0.113658  0.108591  0  1.000567  0
H  H13  1  0.07248723  0.83371915  0.33650866  1  0  0.098478  0  0.935381  0  0  0.109804  0  0.999874  0  0  0.111428  0  0.998946  0  0  0.11367  0.108606  0  1.000557  0
H  H14  1  0.15549742  0.00048809  0.48153064  1  0  0.093134  0  0.975047  0  0  0.104531  0  1.038113  0  0  0.106032  0  1.038152  0  0  0.091946  0.10348  0  1.038075  0
H  H15  1  0.84449931  0.99951243  0.51847013  1  0  0.093194  0  0.975011  0  0  0.10457  0  1.038101  0  0  0.106071  0  1.038143  0  0  0.091968  0.103522  0  1.03806  0
H  H16  1  0.46415192  0.12552702  0.37660631  1  0  0.14189  0  0.959651  0  0  0.150707  0  1.024325  0  0  0.153183  0  1.023327  0  0  0.094429  0.148952  0  1.025108  0
H  H17  1  0.53584202  0.87447350  0.62339397  1  0  0.141986  0  0.959476  0  0  0.150791  0  1.024174  0  0  0.153267  0  1.023176  0  0  0.09448  0.149034  0  1.02496  0
H  H18  1  0.42832052  0.26558376  0.51755172  1  0  0.138285  0  0.956468  0  0  0.148756  0  1.017872  0  0  0.151246  0  1.01733  0  0  0.089507  0.146965  0  1.018338  0
H  H19  1  0.57167489  0.73441544  0.48244947  1  0  0.138292  0  0.956462  0  0  0.148762  0  1.017873  0  0  0.151252  0  1.017329  0  0  0.089501  0.146967  0  1.018338  0
C  C20  1  0.46847292  0.55046923  0.21896342  1  0  0.120152  0  3.676826  0  0  0.087998  0  3.924062  0  0  0.094808  0  3.941874  0  0  0.039306  0.083501  0  3.912276  0
C  C21  1  0.53152948  0.44952995  0.78103549  1  0  0.120105  0  3.676763  0  0  0.087952  0  3.923981  0  0  0.094764  0  3.941796  0  0  0.039346  0.083454  0  3.912198  0
C  C22  1  0.55990631  0.67599317  0.11276277  1  0  -0.10721  0  3.729166  0  0  -0.115732  0  3.978874  0  0  -0.123848  0  4.001262  0  0  -0.081901  -0.110508  0  3.964038  0
C  C23  1  0.44010442  0.32400728  0.88723143  1  0  -0.107302  0  3.729202  0  0  -0.115782  0  3.978912  0  0  -0.123906  0  4.001295  0  0  -0.081899  -0.110535  0  3.964074  0
C  C24  1  0.46660460  0.76284797  0.01330604  1  0  -0.017727  0  3.654331  0  0  -0.045723  0  3.897211  0  0  -0.04173  0  3.915315  0  0  -0.056891  -0.048191  0  3.88513  0
C  C25  1  0.53339500  0.23715122  0.98669439  1  0  -0.017699  0  3.654164  0  0  -0.045734  0  3.89702  0  0  -0.041739  0  3.915125  0  0  -0.056916  -0.048201  0  3.884938  0
C  C26  1  0.20211362  0.58880194  0.13084333  1  0  0.099343  0  3.64906  0  0  0.059921  0  3.900961  0  0  0.066284  0  3.917469  0  0  0.047278  0.055123  0  3.891206  0
C  C27  1  0.79788443  0.41119994  0.86916207  1  0  0.099371  0  3.649296  0  0  0.059863  0  3.901242  0  0  0.066226  0  3.917758  0  0  0.047209  0.055062  0  3.891488  0
C  C28  1  0.28267389  0.72002357  0.02290593  1  0  -0.04043  0  3.783535  0  0  -0.016538  0  4.012489  0  0  -0.023407  0  4.03703  0  0  0.000588  -0.012231  0  3.995941  0
C  C29  1  0.71732935  0.27998620  0.97709448  1  0  -0.040527  0  3.783643  0  0  -0.016491  0  4.012417  0  0  -0.023368  0  4.036951  0  0  0.000661  -0.012183  0  3.995867  0
C  C30  1  0.17278859  0.81322781  0.92733669  1  0  0.255104  0  3.806067  0  0  0.231485  0  4.086677  0  0  0.239815  0  4.104498  0  0  0.218778  0.225929  0  4.074781  0
C  C31  1  0.82721093  0.18677272  0.07266559  1  0  0.25516  0  3.806107  0  0  0.231542  0  4.086634  0  0  0.239896  0  4.10442  0  0  0.218777  0.225985  0  4.074736  0
C  C32  1  0.07613280  0.14452142  0.66416144  1  0  -0.069755  0  3.669284  0  0  -0.128291  0  3.921972  0  0  -0.125458  0  3.931838  0  0  -0.058083  -0.130034  0  3.915122  0
C  C33  1  0.92386254  0.85547910  0.33583959  1  0  -0.069785  0  3.669378  0  0  -0.128282  0  3.92197  0  0  -0.125439  0  3.931859  0  0  -0.058086  -0.130027  0  3.915116  0
C  C34  1  0.19335874  0.11238663  0.52243844  1  0  -0.088816  0  3.761349  0  0  -0.107174  0  4.051316  0  0  -0.104732  0  4.061304  0  0  -0.166041  -0.108751  0  4.04414  0
C  C35  1  0.80663660  0.88761389  0.47756158  1  0  -0.088957  0  3.761517  0  0  -0.107319  0  4.051496  0  0  -0.104874  0  4.061466  0  0  -0.166097  -0.10889  0  4.044306  0
C  C36  1  0.36757833  0.18168296  0.46289288  1  0  -0.296889  0  3.645372  0  0  -0.342188  0  3.92693  0  0  -0.340285  0  3.931242  0  0  -0.239864  -0.342956  0  3.92344  0
C  C37  1  0.63241568  0.81831624  0.53710755  1  0  -0.296944  0  3.645351  0  0  -0.342226  0  3.926897  0  0  -0.34032  0  3.931212  0  0  -0.239869  -0.342981  0  3.923383  0
Br  Br38  1  0.83800008  0.38333248  0.40990132  1  0  -0.563029  0  1.071886  0  0  -0.502547  0  1.391551  0  0  -0.519634  0  1.366779  0  0  -0.281284  -0.490154  0  1.408187  0
Br  Br39  1  0.16199953  0.61666667  0.59009407  1  0  -0.563044  0  1.071918  0  0  -0.502558  0  1.391584  0  0  -0.519644  0  1.366814  0  0  -0.281277  -0.490151  0  1.408193  0
N  N40  1  0.29213972  0.50699900  0.22780727  1  0  -0.293128  0  3.401173  0  0  -0.220621  0  3.691565  0  0  -0.233921  0  3.701973  0  0  -0.3614  -0.212199  0  3.684851  0
N  N41  1  0.70786945  0.49300416  0.77219393  1  0  -0.293139  0  3.401054  0  0  -0.220646  0  3.691528  0  0  -0.233949  0  3.701942  0  0  -0.361428  -0.212216  0  3.6848  0
N  N42  1  0.08452323  0.99455092  0.77459642  1  0  0.227446  0  3.52437  0  0  0.279512  0  3.801174  0  0  0.275182  0  3.823467  0  0  -0.00538  0.282103  0  3.786328  0
N  N43  1  0.91547358  0.00544827  0.22540351  1  0  0.227411  0  3.524403  0  0  0.279457  0  3.801206  0  0  0.275124  0  3.823496  0  0  -0.005376  0.28205  0  3.786357  0
N  N44  1  0.23602149  0.94377796  0.82292420  1  0  -0.287647  0  2.809814  0  0  -0.27131  0  3.072771  0  0  -0.278812  0  3.087095  0  0  -0.186474  -0.266543  0  3.06368  0
N  N45  1  0.76397665  0.05622255  0.17707532  1  0  -0.287649  0  2.809825  0  0  -0.271334  0  3.072797  0  0  -0.278843  0  3.087114  0  0  -0.186497  -0.266566  0  3.063705  0
N  N46  1  0.93434155  0.90355177  0.84216738  1  0  -0.112283  0  2.86461  0  0  -0.114686  0  3.163963  0  0  -0.109693  0  3.171369  0  0  -0.075889  -0.117994  0  3.159032  0
N  N47  1  0.06565679  0.09644478  0.15783362  1  0  -0.112281  0  2.864706  0  0  -0.11467  0  3.164023  0  0  -0.109674  0  3.171431  0  0  -0.07592  -0.117978  0  3.15909  0
N  N48  1  0.98867523  0.78775956  0.93964689  1  0  -0.261269  0  2.952568  0  0  -0.243389  0  3.250325  0  0  -0.252038  0  3.261313  0  0  -0.190797  -0.237074  0  3.242722  0
N  N49  1  0.01132444  0.21223831  0.06035470  1  0  -0.26127  0  2.952642  0  0  -0.243389  0  3.250373  0  0  -0.252047  0  3.261355  0  0  -0.190767  -0.237074  0  3.242763  0
