# generated using pymatgen
data_AgH6C8N3O2
_symmetry_space_group_name_H-M   'P 1'
_cell_length_a   4.40218094
_cell_length_b   13.92486791
_cell_length_c   14.61179957
_cell_angle_alpha   109.44614618
_cell_angle_beta   90.00007864
_cell_angle_gamma   89.99962930
_symmetry_Int_Tables_number   1
_chemical_formula_structural   AgH6C8N3O2
_chemical_formula_sum   'Ag4 H24 C32 N12 O8'
_cell_volume   844.60484585
_cell_formula_units_Z   4
loop_
 _symmetry_equiv_pos_site_id
 _symmetry_equiv_pos_as_xyz
  1  'x, y, z'
loop_
 _atom_site_type_symbol
 _atom_site_label
 _atom_site_symmetry_multiplicity
 _atom_site_fract_x
 _atom_site_fract_y
 _atom_site_fract_z
 _atom_site_occupancy
 _atom_site_hle17_bader_spin_density
 _atom_site_hle17_ddec_charge
 _atom_site_hle17_ddec_spin_density
 _atom_site_hle17_ddec_sum_bond_order
 _atom_site_hle17_magmom
 _atom_site_hse06_10hf_bader_spin_density
 _atom_site_hse06_10hf_ddec_charge
 _atom_site_hse06_10hf_ddec_spin_density
 _atom_site_hse06_10hf_ddec_sum_bond_order
 _atom_site_hse06_10hf_magmom
 _atom_site_hse06_bader_spin_density
 _atom_site_hse06_ddec_charge
 _atom_site_hse06_ddec_spin_density
 _atom_site_hse06_ddec_sum_bond_order
 _atom_site_hse06_magmom
 _atom_site_pbe_bader_spin_density
 _atom_site_pbe_cm5_charge
 _atom_site_pbe_ddec_charge
 _atom_site_pbe_ddec_spin_density
 _atom_site_pbe_ddec_sum_bond_order
 _atom_site_pbe_magmom
Ag  Ag0  1  0.69646473  0.21630500  0.34622033  1  0  0.597319  0  1.29373  0  0  0.453044  0  1.716858  0  0  0.485944  0  1.670731  0  0  0.452254  0.429691  0  1.748905  0
Ag  Ag1  1  0.19646597  0.28369602  0.15378387  1  0  0.597279  0  1.293661  0  0  0.453014  0  1.716753  0  0  0.485918  0  1.670627  0  0  0.45223  0.429663  0  1.748803  0
Ag  Ag2  1  0.30353165  0.78369563  0.65378333  1  0  0.597311  0  1.293671  0  0  0.453039  0  1.716772  0  0  0.485948  0  1.670648  0  0  0.452238  0.429696  0  1.748826  0
Ag  Ag3  1  0.80353269  0.71630311  0.84621589  1  0  0.597319  0  1.293668  0  0  0.453051  0  1.716761  0  0  0.48596  0  1.670634  0  0  0.452248  0.429712  0  1.748819  0
H  H4  1  0.04943263  0.07275150  0.45534124  1  0  0.110975  0  0.944837  0  0  0.123752  0  1.002101  0  0  0.126716  0  1.000326  0  0  0.110053  0.121558  0  1.003535  0
H  H5  1  0.54943701  0.42725064  0.04465778  1  0  0.110985  0  0.944896  0  0  0.123761  0  1.002153  0  0  0.126724  0  1.000381  0  0  0.110058  0.121571  0  1.003579  0
H  H6  1  0.95055921  0.92724688  0.54465759  1  0  0.110981  0  0.944866  0  0  0.123748  0  1.002136  0  0  0.126711  0  1.000363  0  0  0.11006  0.121551  0  1.003578  0
H  H7  1  0.45055938  0.57275079  0.95534067  1  0  0.110973  0  0.944862  0  0  0.123746  0  1.002131  0  0  0.126709  0  1.000359  0  0  0.110055  0.121569  0  1.003547  0
H  H8  1  0.36608093  0.03264982  0.58225423  1  0  0.092034  0  0.969289  0  0  0.101877  0  1.033382  0  0  0.104584  0  1.032458  0  0  0.100111  0.099923  0  1.034145  0
H  H9  1  0.86608168  0.46734968  0.91774508  1  0  0.09206  0  0.96927  0  0  0.101898  0  1.033367  0  0  0.104605  0  1.032443  0  0  0.10012  0.09994  0  1.03413  0
H  H10  1  0.63391545  0.96734932  0.41774552  1  0  0.092044  0  0.969318  0  0  0.101882  0  1.033416  0  0  0.104589  0  1.032491  0  0  0.100103  0.099928  0  1.034173  0
H  H11  1  0.13391470  0.53265099  0.08225381  1  0  0.092067  0  0.969293  0  0  0.101908  0  1.033388  0  0  0.104615  0  1.032464  0  0  0.100114  0.099953  0  1.034143  0
H  H12  1  0.65613836  0.16482087  0.70215407  1  0  0.090658  0  0.976472  0  0  0.100005  0  1.039323  0  0  0.102285  0  1.039549  0  0  0.098943  0.098292  0  1.039341  0
H  H13  1  0.15613466  0.33517756  0.79784344  1  0  0.090696  0  0.97644  0  0  0.100018  0  1.039312  0  0  0.102292  0  1.039546  0  0  0.098947  0.098309  0  1.039327  0
H  H14  1  0.34385803  0.83517827  0.29784432  1  0  0.090673  0  0.976466  0  0  0.099989  0  1.039347  0  0  0.102261  0  1.039584  0  0  0.09894  0.09829  0  1.039347  0
H  H15  1  0.84385718  0.66482312  0.20215476  1  0  0.090695  0  0.976467  0  0  0.100021  0  1.039333  0  0  0.102294  0  1.039568  0  0  0.098945  0.098311  0  1.039343  0
H  H16  1  0.64969196  0.34667980  0.70686347  1  0  0.128053  0  0.956052  0  0  0.135575  0  1.019007  0  0  0.139011  0  1.017216  0  0  0.110819  0.133071  0  1.020421  0
H  H17  1  0.14969426  0.15331940  0.79313566  1  0  0.128086  0  0.956  0  0  0.135608  0  1.018962  0  0  0.139044  0  1.01717  0  0  0.110824  0.133108  0  1.020371  0
H  H18  1  0.35030442  0.65332010  0.29313585  1  0  0.12807  0  0.956058  0  0  0.135596  0  1.019006  0  0  0.139032  0  1.017215  0  0  0.110828  0.133096  0  1.020415  0
H  H19  1  0.85030667  0.84668126  0.20686459  1  0  0.128082  0  0.956049  0  0  0.135603  0  1.01901  0  0  0.13904  0  1.017218  0  0  0.110824  0.133106  0  1.020419  0
H  H20  1  0.57837106  0.50010677  0.65100482  1  0  0.130141  0  0.954776  0  0  0.142329  0  1.016114  0  0  0.144909  0  1.014778  0  0  0.121283  0.140469  0  1.017133  0
H  H21  1  0.07837103  0.99989246  0.84899310  1  0  0.130128  0  0.954786  0  0  0.142343  0  1.0161  0  0  0.144923  0  1.014763  0  0  0.121311  0.140485  0  1.01712  0
H  H22  1  0.42162532  0.49989313  0.34899382  1  0  0.130141  0  0.954708  0  0  0.14234  0  1.01605  0  0  0.14492  0  1.014712  0  0  0.1213  0.140482  0  1.017068  0
H  H23  1  0.92164352  0.00011122  0.15101086  1  0  0.130059  0  0.954768  0  0  0.142298  0  1.016072  0  0  0.144874  0  1.014733  0  0  0.121261  0.140437  0  1.017105  0
H  H24  1  0.33999311  0.54574799  0.57462612  1  0  0.111165  0  0.961992  0  0  0.112626  0  1.047406  0  0  0.115186  0  1.044914  0  0  0.117741  0.110754  0  1.049236  0
H  H25  1  0.83999417  0.95425220  0.92537290  1  0  0.11115  0  0.961878  0  0  0.112626  0  1.047278  0  0  0.115185  0  1.044786  0  0  0.117725  0.110751  0  1.049116  0
H  H26  1  0.66000100  0.45425192  0.42537252  1  0  0.111148  0  0.961981  0  0  0.112631  0  1.047379  0  0  0.115192  0  1.044886  0  0  0.117741  0.11076  0  1.049202  0
H  H27  1  0.16002266  0.04575070  0.07463287  1  0  0.111137  0  0.961893  0  0  0.112636  0  1.047258  0  0  0.115193  0  1.044764  0  0  0.117725  0.110767  0  1.04909  0
C  C28  1  0.16354728  0.23341096  0.51553952  1  0  0.089623  0  3.891708  0  0  0.085338  0  4.147254  0  0  0.085914  0  4.171068  0  0  0.087145  0.084747  0  4.131166  0
C  C29  1  0.66355248  0.26658972  0.98446214  1  0  0.089639  0  3.891619  0  0  0.085349  0  4.147179  0  0  0.085926  0  4.170995  0  0  0.087122  0.084759  0  4.131089  0
C  C30  1  0.83644683  0.76658741  0.48446067  1  0  0.089733  0  3.891685  0  0  0.08542  0  4.147261  0  0  0.085996  0  4.171078  0  0  0.087146  0.084834  0  4.131175  0
C  C31  1  0.33644618  0.73341094  0.01553811  1  0  0.089707  0  3.891613  0  0  0.085391  0  4.147181  0  0  0.085967  0  4.170998  0  0  0.087125  0.084801  0  4.131104  0
C  C32  1  0.17515394  0.13122541  0.51080687  1  0  -0.127428  0  3.747069  0  0  -0.14535  0  3.995677  0  0  -0.146988  0  4.015536  0  0  -0.084494  -0.144057  0  3.982238  0
C  C33  1  0.67515478  0.36877601  0.98919367  1  0  -0.127422  0  3.74705  0  0  -0.145342  0  3.995661  0  0  -0.146978  0  4.015518  0  0  -0.084472  -0.144054  0  3.982215  0
C  C34  1  0.82484245  0.86877448  0.48919382  1  0  -0.127494  0  3.747041  0  0  -0.1454  0  3.995651  0  0  -0.147035  0  4.015507  0  0  -0.084516  -0.144113  0  3.982226  0
C  C35  1  0.32484161  0.63122465  0.01080521  1  0  -0.127439  0  3.747078  0  0  -0.145355  0  3.995693  0  0  -0.146991  0  4.01555  0  0  -0.084484  -0.144089  0  3.98227  0
C  C36  1  0.35183038  0.10998412  0.58022062  1  0  -0.070424  0  3.748128  0  0  -0.084917  0  3.994672  0  0  -0.088347  0  4.017775  0  0  -0.08861  -0.082609  0  3.979021  0
C  C37  1  0.85183046  0.39001541  0.91977802  1  0  -0.070482  0  3.748137  0  0  -0.084972  0  3.994677  0  0  -0.088402  0  4.017778  0  0  -0.088628  -0.082659  0  3.979019  0
C  C38  1  0.64816600  0.89001502  0.41977846  1  0  -0.070442  0  3.74815  0  0  -0.084936  0  3.994691  0  0  -0.088365  0  4.017792  0  0  -0.088595  -0.082622  0  3.979032  0
C  C39  1  0.14816593  0.60998526  0.08022018  1  0  -0.0705  0  3.748167  0  0  -0.084997  0  3.994709  0  0  -0.088427  0  4.017809  0  0  -0.088628  -0.082682  0  3.979045  0
C  C40  1  0.52012361  0.18672066  0.65012546  1  0  -0.042847  0  3.729427  0  0  -0.056376  0  3.975349  0  0  -0.057355  0  3.99735  0  0  -0.082987  -0.055536  0  3.960385  0
C  C41  1  0.02012288  0.31327882  0.84987302  1  0  -0.042825  0  3.729272  0  0  -0.056341  0  3.975205  0  0  -0.057318  0  3.997211  0  0  -0.082985  -0.055504  0  3.960235  0
C  C42  1  0.47987505  0.81327925  0.34987386  1  0  -0.042863  0  3.729404  0  0  -0.056374  0  3.975335  0  0  -0.05735  0  3.997342  0  0  -0.083014  -0.055538  0  3.960356  0
C  C43  1  0.97987123  0.68672108  0.15012630  1  0  -0.042823  0  3.729303  0  0  -0.056338  0  3.975221  0  0  -0.057312  0  3.997225  0  0  -0.082976  -0.055495  0  3.960247  0
C  C44  1  0.51577246  0.28776039  0.65454226  1  0  -0.130154  0  3.70307  0  0  -0.147877  0  3.956906  0  0  -0.151143  0  3.975636  0  0  -0.085824  -0.145662  0  3.944234  0
C  C45  1  0.01577152  0.21223909  0.84545758  1  0  -0.130286  0  3.702935  0  0  -0.148  0  3.956781  0  0  -0.151265  0  3.975509  0  0  -0.085855  -0.145792  0  3.94411  0
C  C46  1  0.48422392  0.71223875  0.34545681  1  0  -0.130214  0  3.703  0  0  -0.147924  0  3.956825  0  0  -0.151188  0  3.975551  0  0  -0.085816  -0.145716  0  3.944159  0
C  C47  1  0.98422713  0.78776157  0.15454267  1  0  -0.130274  0  3.70303  0  0  -0.147992  0  3.956863  0  0  -0.151256  0  3.97559  0  0  -0.085861  -0.145787  0  3.944197  0
C  C48  1  0.32908734  0.30957530  0.58628999  1  0  0.096592  0  3.785635  0  0  0.068971  0  4.035839  0  0  0.07269  0  4.057123  0  0  0.106412  0.066625  0  4.021522  0
C  C49  1  0.82909150  0.19042580  0.91370914  1  0  0.096624  0  3.78564  0  0  0.068979  0  4.03586  0  0  0.072697  0  4.057146  0  0  0.10641  0.066637  0  4.021539  0
C  C50  1  0.67090904  0.69042460  0.41370933  1  0  0.096657  0  3.785651  0  0  0.068995  0  4.035848  0  0  0.072715  0  4.057132  0  0  0.106426  0.066655  0  4.02153  0
C  C51  1  0.17091170  0.80957562  0.08629067  1  0  0.09661  0  3.785636  0  0  0.068964  0  4.035801  0  0  0.072683  0  4.057087  0  0  0.10644  0.066623  0  4.021484  0
C  C52  1  0.34638597  0.50114244  0.62367036  1  0  -0.188483  0  3.623514  0  0  -0.257246  0  3.864305  0  0  -0.259506  0  3.87105  0  0  -0.057219  -0.255361  0  3.859556  0
C  C53  1  0.84638361  0.99885774  0.87632866  1  0  -0.188486  0  3.623472  0  0  -0.257314  0  3.86427  0  0  -0.259574  0  3.871014  0  0  -0.057256  -0.255425  0  3.859508  0
C  C54  1  0.65361268  0.49885746  0.37632896  1  0  -0.188404  0  3.623358  0  0  -0.257248  0  3.864218  0  0  -0.259504  0  3.870956  0  0  -0.05722  -0.255374  0  3.859489  0
C  C55  1  0.15363095  0.00114366  0.12367456  1  0  -0.188339  0  3.623214  0  0  -0.257264  0  3.864091  0  0  -0.259507  0  3.870812  0  0  -0.057192  -0.255342  0  3.859246  0
C  C56  1  0.13520171  0.55085053  0.71026310  1  0  0.668021  0  3.89274  0  0  0.623835  0  4.180314  0  0  0.656498  0  4.176216  0  0  0.198212  0.60163  0  4.182087  0
C  C57  1  0.63519315  0.94915239  0.78973604  1  0  0.667883  0  3.892961  0  0  0.62376  0  4.180447  0  0  0.656423  0  4.176351  0  0  0.198205  0.601557  0  4.182222  0
C  C58  1  0.86479695  0.44914938  0.28973554  1  0  0.668063  0  3.892712  0  0  0.623858  0  4.180337  0  0  0.65652  0  4.176239  0  0  0.198234  0.601655  0  4.182104  0
C  C59  1  0.36481914  0.05084747  0.21026806  1  0  0.667952  0  3.892914  0  0  0.623773  0  4.180498  0  0  0.656432  0  4.176401  0  0  0.198201  0.601571  0  4.182284  0
N  N60  1  0.00510021  0.28099590  0.46158065  1  0  -0.255252  0  3.333318  0  0  -0.192052  0  3.662115  0  0  -0.205253  0  3.672752  0  0  -0.24048  -0.18263  0  3.654358  0
N  N61  1  0.50510202  0.21900556  0.03842019  1  0  -0.255204  0  3.333275  0  0  -0.192003  0  3.66207  0  0  -0.205205  0  3.672711  0  0  -0.24046  -0.182583  0  3.654317  0
N  N62  1  0.99489618  0.71900323  0.53841979  1  0  -0.255272  0  3.333276  0  0  -0.192055  0  3.662075  0  0  -0.20526  0  3.67272  0  0  -0.240453  -0.182636  0  3.654322  0
N  N63  1  0.49489664  0.78099510  0.96157938  1  0  -0.255237  0  3.333232  0  0  -0.192005  0  3.662013  0  0  -0.205208  0  3.672657  0  0  -0.240436  -0.182586  0  3.654269  0
N  N64  1  0.06235498  0.37936452  0.49436880  1  0  -0.06119  0  2.865845  0  0  -0.077907  0  3.144539  0  0  -0.072006  0  3.155419  0  0  -0.073281  -0.081537  0  3.13709  0
N  N65  1  0.56235639  0.12063759  0.00563090  1  0  -0.061189  0  2.865939  0  0  -0.077912  0  3.144613  0  0  -0.072009  0  3.155494  0  0  -0.073263  -0.08155  0  3.137175  0
N  N66  1  0.93764140  0.62063538  0.50563120  1  0  -0.061218  0  2.865993  0  0  -0.077984  0  3.144667  0  0  -0.072083  0  3.155548  0  0  -0.073329  -0.081606  0  3.137214  0
N  N67  1  0.43764680  0.87936383  0.99436960  1  0  -0.06122  0  2.865925  0  0  -0.078006  0  3.144613  0  0  -0.072106  0  3.155497  0  0  -0.073335  -0.081639  0  3.137172  0
N  N68  1  0.25895070  0.39761863  0.56880547  1  0  0.047053  0  3.537168  0  0  0.156552  0  3.727586  0  0  0.146327  0  3.751539  0  0  -0.120102  0.162338  0  3.712952  0
N  N69  1  0.75895221  0.10238034  0.93119362  1  0  0.047043  0  3.537157  0  0  0.156586  0  3.727541  0  0  0.14636  0  3.751494  0  0  -0.120106  0.162364  0  3.712923  0
N  N70  1  0.74104568  0.60238051  0.43119360  1  0  0.046952  0  3.537208  0  0  0.156593  0  3.727482  0  0  0.146365  0  3.751435  0  0  -0.120081  0.162363  0  3.712878  0
N  N71  1  0.24105553  0.89761878  0.06880818  1  0  0.046994  0  3.537128  0  0  0.156647  0  3.727376  0  0  0.146416  0  3.751328  0  0  -0.120099  0.162409  0  3.712802  0
O  O72  1  0.16124242  0.64872486  0.74489255  1  0  -0.661036  0  2.141306  0  0  -0.567379  0  2.432296  0  0  -0.60097  0  2.417088  0  0  -0.344468  -0.543771  0  2.442017  0
O  O73  1  0.66124025  0.85127418  0.75510672  1  0  -0.661037  0  2.141303  0  0  -0.567384  0  2.432243  0  0  -0.600978  0  2.417039  0  0  -0.344475  -0.543767  0  2.441946  0
O  O74  1  0.83875624  0.35127427  0.25510789  1  0  -0.66104  0  2.141275  0  0  -0.567364  0  2.432264  0  0  -0.600953  0  2.417057  0  0  -0.344468  -0.543755  0  2.44199  0
O  O75  1  0.33877203  0.14872417  0.24489621  1  0  -0.661038  0  2.141326  0  0  -0.567363  0  2.432295  0  0  -0.600954  0  2.417092  0  0  -0.344465  -0.543742  0  2.441977  0
O  O76  1  0.95990036  0.49762577  0.74053157  1  0  -0.624827  0  1.928522  0  0  -0.574809  0  2.154632  0  0  -0.59851  0  2.146312  0  0  -0.325512  -0.557951  0  2.15964  0
O  O77  1  0.45989879  0.00237353  0.75946840  1  0  -0.624641  0  1.928697  0  0  -0.574669  0  2.154802  0  0  -0.598368  0  2.146484  0  0  -0.325452  -0.557818  0  2.159811  0
O  O78  1  0.04009375  0.50237338  0.25946682  1  0  -0.624837  0  1.928547  0  0  -0.574822  0  2.154693  0  0  -0.598523  0  2.146373  0  0  -0.325526  -0.557965  0  2.159697  0
O  O79  1  0.54011349  0.99762482  0.24053452  1  0  -0.624706  0  1.928776  0  0  -0.574698  0  2.154889  0  0  -0.598398  0  2.146572  0  0  -0.325457  -0.557855  0  2.1599  0
