# generated using pymatgen
data_HoPH17C9N3O11
_symmetry_space_group_name_H-M   'P 1'
_cell_length_a   6.81049862
_cell_length_b   8.58715593
_cell_length_c   14.20451231
_cell_angle_alpha   90.00041159
_cell_angle_beta   92.79391614
_cell_angle_gamma   90.00009120
_symmetry_Int_Tables_number   1
_chemical_formula_structural   HoPH17C9N3O11
_chemical_formula_sum   'Ho2 P2 H34 C18 N6 O22'
_cell_volume   829.73238449
_cell_formula_units_Z   2
loop_
 _symmetry_equiv_pos_site_id
 _symmetry_equiv_pos_as_xyz
  1  'x, y, z'
loop_
 _atom_site_type_symbol
 _atom_site_label
 _atom_site_symmetry_multiplicity
 _atom_site_fract_x
 _atom_site_fract_y
 _atom_site_fract_z
 _atom_site_occupancy
 _atom_site_hle17_bader_spin_density
 _atom_site_hle17_ddec_charge
 _atom_site_hle17_ddec_spin_density
 _atom_site_hle17_ddec_sum_bond_order
 _atom_site_hle17_magmom
 _atom_site_hse06_10hf_bader_spin_density
 _atom_site_hse06_10hf_ddec_charge
 _atom_site_hse06_10hf_ddec_spin_density
 _atom_site_hse06_10hf_ddec_sum_bond_order
 _atom_site_hse06_10hf_magmom
 _atom_site_hse06_bader_spin_density
 _atom_site_hse06_ddec_charge
 _atom_site_hse06_ddec_spin_density
 _atom_site_hse06_ddec_sum_bond_order
 _atom_site_hse06_magmom
 _atom_site_pbe_bader_spin_density
 _atom_site_pbe_cm5_charge
 _atom_site_pbe_ddec_charge
 _atom_site_pbe_ddec_spin_density
 _atom_site_pbe_ddec_sum_bond_order
 _atom_site_pbe_magmom
Ho  Ho0  1  0.75384230  0.76568117  0.97067847  1  0  2.275444  0  1.64277  0  0  2.125521  0  2.111941  0  0  2.253691  0  1.918  0  0  1.536805  2.089181  0  2.143587  0
Ho  Ho1  1  0.24615764  0.26568317  0.02932111  1  0  2.275505  0  1.64266  0  0  2.125654  0  2.111744  0  0  2.253759  0  1.917889  0  0  1.536822  2.089333  0  2.143339  0
P  P2  1  0.26308721  0.83990723  0.05799002  1  0  1.608592  0  4.809288  0  0  1.452414  0  5.309704  0  0  1.506024  0  5.271145  0  0  0.361042  1.41624  0  5.338972  0
P  P3  1  0.73691732  0.33990323  0.94200929  1  0  1.608682  0  4.809116  0  0  1.452544  0  5.309495  0  0  1.506191  0  5.270799  0  0  0.361096  1.41638  0  5.338746  0
H  H4  1  0.65662652  0.08327963  0.03236433  1  0  0.452206  0  0.847958  0  0  0.419206  0  0.914937  0  0  0.430375  0  0.899164  0  0  0.305995  0.410642  0  0.927394  0
H  H5  1  0.34337739  0.58328057  0.96763244  1  0  0.452159  0  0.848015  0  0  0.419138  0  0.915014  0  0  0.430304  0  0.899248  0  0  0.305988  0.410575  0  0.927464  0
H  H6  1  0.84671433  0.04075731  0.09405124  1  0  0.44279  0  0.849753  0  0  0.41544  0  0.907775  0  0  0.42584  0  0.892784  0  0  0.312108  0.407737  0  0.919109  0
H  H7  1  0.15328652  0.54075378  0.90594669  1  0  0.442813  0  0.849711  0  0  0.415468  0  0.907737  0  0  0.425866  0  0.892742  0  0  0.312127  0.407763  0  0.919071  0
H  H8  1  0.87104006  0.60728397  0.14600634  1  0  0.44115  0  0.830312  0  0  0.412652  0  0.899219  0  0  0.423331  0  0.883588  0  0  0.309996  0.404935  0  0.910652  0
H  H9  1  0.12896827  0.10728631  0.85400050  1  0  0.441031  0  0.830495  0  0  0.412523  0  0.899384  0  0  0.423195  0  0.883768  0  0  0.309924  0.404804  0  0.91082  0
H  H10  1  0.64146624  0.59328612  0.13687231  1  0  0.429112  0  0.872745  0  0  0.397171  0  0.939459  0  0  0.40792  0  0.923952  0  0  0.302861  0.389546  0  0.950592  0
H  H11  1  0.35854353  0.09327721  0.86313311  1  0  0.429012  0  0.872901  0  0  0.397103  0  0.93955  0  0  0.407837  0  0.924083  0  0  0.302791  0.389479  0  0.950705  0
H  H12  1  0.47658648  0.01646919  0.21473682  1  0  0.312984  0  0.850625  0  0  0.297706  0  0.907187  0  0  0.304776  0  0.901806  0  0  0.327827  0.292877  0  0.910863  0
H  H13  1  0.52341134  0.51646819  0.78526797  1  0  0.312966  0  0.850627  0  0  0.297704  0  0.907134  0  0  0.304774  0  0.901801  0  0  0.32783  0.292872  0  0.910852  0
H  H14  1  0.60280375  0.86731768  0.17476404  1  0  0.308903  0  0.868001  0  0  0.293072  0  0.926041  0  0  0.300219  0  0.920925  0  0  0.323647  0.287578  0  0.930602  0
H  H15  1  0.39719643  0.36731419  0.82523811  1  0  0.308856  0  0.867996  0  0  0.293042  0  0.926024  0  0  0.300187  0  0.920915  0  0  0.323636  0.287545  0  0.930586  0
H  H16  1  0.18423586  0.87528658  0.22195794  1  0  0.132144  0  0.928306  0  0  0.144529  0  0.98589  0  0  0.146863  0  0.985086  0  0  0.122877  0.142537  0  0.987051  0
H  H17  1  0.81576288  0.37528305  0.77804138  1  0  0.132192  0  0.928301  0  0  0.144547  0  0.985909  0  0  0.146878  0  0.985109  0  0  0.122893  0.142554  0  0.987072  0
H  H18  1  0.31327783  0.69623659  0.20479129  1  0  0.139328  0  0.937978  0  0  0.14763  0  1.001562  0  0  0.150948  0  0.999176  0  0  0.122803  0.145173  0  1.003549  0
H  H19  1  0.68671606  0.19623427  0.79520643  1  0  0.13932  0  0.938046  0  0  0.147671  0  1.001518  0  0  0.15098  0  0.999173  0  0  0.122807  0.145205  0  1.003543  0
H  H20  1  0.57527105  0.72454947  0.31768408  1  0  0.066336  0  0.908376  0  0  0.076307  0  0.971912  0  0  0.077772  0  0.970494  0  0  0.118007  0.07554  0  0.972379  0
H  H21  1  0.42472291  0.22455131  0.68231448  1  0  0.066307  0  0.908462  0  0  0.076302  0  0.971931  0  0  0.077761  0  0.970541  0  0  0.118042  0.075556  0  0.972394  0
H  H22  1  0.76125677  0.05196726  0.33009680  1  0  0.118342  0  0.960734  0  0  0.133802  0  1.031338  0  0  0.136029  0  1.029941  0  0  0.092694  0.132153  0  1.032207  0
H  H23  1  0.23873970  0.55197035  0.66990318  1  0  0.118345  0  0.960702  0  0  0.133809  0  1.031294  0  0  0.136034  0  1.029904  0  0  0.092686  0.132161  0  1.032164  0
H  H24  1  0.86905597  0.88068265  0.28457882  1  0  0.115633  0  0.943574  0  0  0.138863  0  1.000498  0  0  0.140797  0  0.999507  0  0  0.094417  0.137308  0  1.001408  0
H  H25  1  0.13094131  0.38068567  0.71542120  1  0  0.115648  0  0.943525  0  0  0.138877  0  1.000454  0  0  0.140811  0  0.999464  0  0  0.094445  0.137329  0  1.001358  0
H  H26  1  0.82645598  0.89444459  0.40664152  1  0  0.115858  0  0.963179  0  0  0.135333  0  1.026412  0  0  0.135886  0  1.028539  0  0  0.093975  0.134851  0  1.024781  0
H  H27  1  0.17354575  0.39444505  0.59335796  1  0  0.115831  0  0.96319  0  0  0.13531  0  1.02642  0  0  0.135861  0  1.028548  0  0  0.093971  0.134827  0  1.024794  0
H  H28  1  0.41426606  0.14575490  0.34938818  1  0  0.096212  0  0.986998  0  0  0.101215  0  1.05839  0  0  0.105145  0  1.055432  0  0  0.097522  0.098151  0  1.061102  0
H  H29  1  0.58572917  0.64575470  0.65061077  1  0  0.096204  0  0.987026  0  0  0.101212  0  1.058366  0  0  0.105137  0  1.055456  0  0  0.097527  0.098144  0  1.061126  0
H  H30  1  0.18104987  0.22289391  0.46685563  1  0  0.082411  0  0.964709  0  0  0.09465  0  1.023205  0  0  0.096973  0  1.022882  0  0  0.098857  0.093283  0  1.023009  0
H  H31  1  0.81894115  0.72289494  0.53314284  1  0  0.08244  0  0.964752  0  0  0.094684  0  1.023224  0  0  0.097007  0  1.022904  0  0  0.098879  0.093312  0  1.023034  0
H  H32  1  0.05714955  0.02709510  0.58027110  1  0  0.089485  0  0.939672  0  0  0.101746  0  0.995712  0  0  0.104954  0  0.994128  0  0  0.100664  0.099391  0  0.996867  0
H  H33  1  0.94284834  0.52709728  0.41972599  1  0  0.089435  0  0.939696  0  0  0.101715  0  0.995724  0  0  0.104924  0  0.994137  0  0  0.100674  0.099357  0  0.996881  0
H  H34  1  0.16426064  0.75154684  0.56978910  1  0  0.085863  0  0.973157  0  0  0.096026  0  1.037458  0  0  0.098369  0  1.036873  0  0  0.099249  0.09434  0  1.037755  0
H  H35  1  0.83574074  0.25154504  0.43020905  1  0  0.085887  0  0.97316  0  0  0.096051  0  1.037455  0  0  0.098394  0  1.036867  0  0  0.099263  0.094343  0  1.037774  0
H  H36  1  0.38856872  0.66978926  0.44574036  1  0  0.096062  0  0.957125  0  0  0.107093  0  1.016805  0  0  0.109571  0  1.016697  0  0  0.101215  0.105388  0  1.017115  0
H  H37  1  0.61143391  0.16978981  0.55426028  1  0  0.096073  0  0.957114  0  0  0.107081  0  1.016818  0  0  0.109557  0  1.016714  0  0  0.101218  0.105376  0  1.017135  0
C  C38  1  0.30488862  0.81998757  0.18605709  1  0  -0.304002  0  3.502403  0  0  -0.34684  0  3.756356  0  0  -0.350316  0  3.758325  0  0  -0.068532  -0.344155  0  3.755087  0
C  C39  1  0.69510851  0.31998549  0.81394196  1  0  -0.304171  0  3.502412  0  0  -0.346986  0  3.756328  0  0  -0.350464  0  3.758316  0  0  -0.068576  -0.344314  0  3.755104  0
C  C40  1  0.56421156  0.85226230  0.31874032  1  0  0.163818  0  3.545149  0  0  0.13787  0  3.790648  0  0  0.142599  0  3.804226  0  0  0.015778  0.134427  0  3.781369  0
C  C41  1  0.43578712  0.35226530  0.68125891  1  0  0.163789  0  3.545147  0  0  0.137854  0  3.790619  0  0  0.142585  0  3.804193  0  0  0.01574  0.134391  0  3.78135  0
C  C42  1  0.76715091  0.92456703  0.33596634  1  0  -0.342445  0  3.651351  0  0  -0.42498  0  3.894121  0  0  -0.428115  0  3.90333  0  0  -0.240069  -0.422226  0  3.887717  0
C  C43  1  0.23284795  0.42456957  0.66403390  1  0  -0.342432  0  3.651273  0  0  -0.424964  0  3.894018  0  0  -0.428103  0  3.903233  0  0  -0.240087  -0.422226  0  3.887629  0
C  C44  1  0.41695173  0.90136853  0.38912044  1  0  0.013423  0  3.753341  0  0  0.03805  0  3.983318  0  0  0.035934  0  4.009657  0  0  -0.019241  0.038997  0  3.965957  0
C  C45  1  0.58305147  0.40136971  0.61088122  1  0  0.013378  0  3.753367  0  0  0.038021  0  3.983313  0  0  0.035904  0  4.009647  0  0  -0.019239  0.038971  0  3.965948  0
C  C46  1  0.35808414  0.05717517  0.39597540  1  0  -0.11046  0  3.732679  0  0  -0.129826  0  3.976103  0  0  -0.132343  0  3.997142  0  0  -0.095927  -0.12823  0  3.962848  0
C  C47  1  0.64191528  0.55717799  0.60402468  1  0  -0.110425  0  3.732675  0  0  -0.129802  0  3.976082  0  0  -0.132322  0  3.99715  0  0  -0.09594  -0.128208  0  3.962843  0
C  C48  1  0.22649686  0.10146955  0.46325315  1  0  -0.070698  0  3.788165  0  0  -0.081765  0  4.035393  0  0  -0.08425  0  4.058497  0  0  -0.091428  -0.07965  0  4.019495  0
C  C49  1  0.77350119  0.60147173  0.53674708  1  0  -0.070753  0  3.788123  0  0  -0.081826  0  4.035368  0  0  -0.08431  0  4.058472  0  0  -0.091453  -0.079706  0  4.019464  0
C  C50  1  0.15644017  0.99196960  0.52609735  1  0  -0.07103  0  3.770128  0  0  -0.086311  0  4.01991  0  0  -0.088157  0  4.041093  0  0  -0.090516  -0.084917  0  4.004761  0
C  C51  1  0.84356180  0.49197182  0.47390186  1  0  -0.070971  0  3.770056  0  0  -0.08627  0  4.019859  0  0  -0.088112  0  4.041025  0  0  -0.090528  -0.084871  0  4.004696  0
C  C52  1  0.21588546  0.83677503  0.51993934  1  0  -0.062346  0  3.778961  0  0  -0.07674  0  4.030185  0  0  -0.078715  0  4.052402  0  0  -0.090844  -0.074698  0  4.014639  0
C  C53  1  0.78411906  0.33677608  0.48005996  1  0  -0.062348  0  3.778995  0  0  -0.07674  0  4.030222  0  0  -0.078714  0  4.052424  0  0  -0.090855  -0.074688  0  4.014671  0
C  C54  1  0.34289440  0.79116239  0.45078894  1  0  -0.117219  0  3.753244  0  0  -0.137758  0  3.996611  0  0  -0.140669  0  4.019731  0  0  -0.092043  -0.135826  0  3.981748  0
C  C55  1  0.65711295  0.29116294  0.54921164  1  0  -0.117185  0  3.753266  0  0  -0.13772  0  3.996644  0  0  -0.140629  0  4.019759  0  0  -0.092018  -0.135787  0  3.981776  0
N  N56  1  0.49241811  0.89638687  0.21963140  1  0  -0.266647  0  3.312248  0  0  -0.202284  0  3.517048  0  0  -0.214576  0  3.52483  0  0  -0.46827  -0.193658  0  3.511484  0
N  N57  1  0.50757920  0.39638648  0.78036939  1  0  -0.266504  0  3.312169  0  0  -0.20221  0  3.516973  0  0  -0.214507  0  3.524785  0  0  -0.468252  -0.193579  0  3.51143  0
N  N58  1  0.03202171  0.79901330  0.81585794  1  0  0.704172  0  4.132169  0  0  0.736631  0  4.424541  0  0  0.765611  0  4.433092  0  0  0.091991  0.731295  0  4.400789  0
N  N59  1  0.96797976  0.29901456  0.18414465  1  0  0.70425  0  4.131763  0  0  0.736386  0  4.424604  0  0  0.765373  0  4.433083  0  0  0.091971  0.731179  0  4.400612  0
N  N60  1  0.55507603  0.87397544  0.79187906  1  0  0.694781  0  4.156794  0  0  0.73439  0  4.442645  0  0  0.749623  0  4.47164  0  0  0.085975  0.71438  0  4.439756  0
N  N61  1  0.44491095  0.37398215  0.20811856  1  0  0.694303  0  4.157849  0  0  0.721006  0  4.462472  0  0  0.749328  0  4.472525  0  0  0.0858  0.71418  0  4.440494  0
O  O62  1  0.42766386  0.74790803  0.01161305  1  0  -0.965605  0  2.015011  0  0  -0.880973  0  2.279748  0  0  -0.918406  0  2.25549  0  0  -0.453852  -0.861675  0  2.293232  0
O  O63  1  0.57233897  0.24790670  0.98838793  1  0  -0.965635  0  2.014926  0  0  -0.88105  0  2.279695  0  0  -0.918475  0  2.255406  0  0  -0.45387  -0.861768  0  2.293172  0
O  O64  1  0.06071535  0.76946806  0.03701286  1  0  -0.970788  0  1.998804  0  0  -0.892418  0  2.276167  0  0  -0.931719  0  2.251381  0  0  -0.479235  -0.872125  0  2.288508  0
O  O65  1  0.93929052  0.26945990  0.96297703  1  0  -0.970792  0  1.998683  0  0  -0.892421  0  2.275982  0  0  -0.931715  0  2.25119  0  0  -0.479225  -0.872128  0  2.288324  0
O  O66  1  0.27811294  0.01330516  0.03806619  1  0  -0.977616  0  2.050126  0  0  -0.901172  0  2.340436  0  0  -0.939587  0  2.313461  0  0  -0.504758  -0.882603  0  2.355364  0
O  O67  1  0.72190104  0.51330068  0.96193968  1  0  -0.977595  0  2.05004  0  0  -0.901153  0  2.340349  0  0  -0.939585  0  2.313362  0  0  -0.504791  -0.882583  0  2.355282  0
O  O68  1  0.95433717  0.91784041  0.85510647  1  0  -0.546863  0  1.818779  0  0  -0.534069  0  2.047939  0  0  -0.558913  0  2.039441  0  0  -0.216808  -0.526934  0  2.048089  0
O  O69  1  0.04566899  0.41784238  0.14490026  1  0  -0.54689  0  1.818707  0  0  -0.533999  0  2.047888  0  0  -0.558844  0  2.039486  0  0  -0.216761  -0.526887  0  2.048048  0
O  O70  1  0.98047599  0.66542503  0.84731452  1  0  -0.545119  0  1.877882  0  0  -0.52764  0  2.107825  0  0  -0.552038  0  2.100174  0  0  -0.221116  -0.520048  0  2.107425  0
O  O71  1  0.01951927  0.16542589  0.15268803  1  0  -0.545196  0  1.877772  0  0  -0.527617  0  2.107835  0  0  -0.552006  0  2.100166  0  0  -0.221146  -0.520063  0  2.107361  0
O  O72  1  0.14688870  0.81304325  0.75189220  1  0  -0.376333  0  1.768301  0  0  -0.372513  0  1.972773  0  0  -0.383625  0  1.966414  0  0  -0.145302  -0.369172  0  1.970449  0
O  O73  1  0.85310839  0.31304512  0.24811175  1  0  -0.376368  0  1.768115  0  0  -0.372426  0  1.972622  0  0  -0.383519  0  1.966318  0  0  -0.145282  -0.369126  0  1.970329  0
O  O74  1  0.55610113  0.96524473  0.86381616  1  0  -0.535439  0  1.889096  0  0  -0.519506  0  2.117928  0  0  -0.540291  0  2.11754  0  0  -0.200117  -0.505988  0  2.122046  0
O  O75  1  0.44388754  0.46524477  0.13618190  1  0  -0.535394  0  1.889606  0  0  -0.515122  0  2.123399  0  0  -0.540234  0  2.117903  0  0  -0.200103  -0.505989  0  2.12241  0
O  O76  1  0.59427426  0.73043562  0.81148964  1  0  -0.558761  0  1.880012  0  0  -0.553513  0  2.120655  0  0  -0.574484  0  2.11875  0  0  -0.239161  -0.54063  0  2.124887  0
O  O77  1  0.40570355  0.23044554  0.18850573  1  0  -0.558615  0  1.880352  0  0  -0.549152  0  2.12614  0  0  -0.574453  0  2.119125  0  0  -0.239143  -0.540609  0  2.125168  0
O  O78  1  0.52481073  0.92093577  0.71062730  1  0  -0.360154  0  1.745787  0  0  -0.360411  0  1.939941  0  0  -0.366265  0  1.940269  0  0  -0.1353  -0.35298  0  1.943472  0
O  O79  1  0.47517783  0.42094931  0.28937197  1  0  -0.359916  0  1.745958  0  0  -0.355731  0  1.945774  0  0  -0.366097  0  1.940387  0  0  -0.13519  -0.352836  0  1.943532  0
O  O80  1  0.73060591  0.99202893  0.06167543  1  0  -0.929176  0  1.88744  0  0  -0.882229  0  2.09299  0  0  -0.912803  0  2.055606  0  0  -0.64616  -0.868059  0  2.116644  0
O  O81  1  0.26939606  0.49202778  0.93832167  1  0  -0.929168  0  1.887444  0  0  -0.882223  0  2.093026  0  0  -0.912777  0  2.055649  0  0  -0.646177  -0.868053  0  2.116672  0
O  O82  1  0.75076230  0.66996582  0.13588019  1  0  -0.874298  0  1.88785  0  0  -0.826426  0  2.082407  0  0  -0.853983  0  2.047579  0  0  -0.617611  -0.812389  0  2.103978  0
O  O83  1  0.24925060  0.16996261  0.86412634  1  0  -0.874117  0  1.888084  0  0  -0.826237  0  2.082621  0  0  -0.853775  0  2.047845  0  0  -0.617504  -0.812203  0  2.104199  0
