# generated using pymatgen
data_ZnH10C10N3O5
_symmetry_space_group_name_H-M   'P 1'
_cell_length_a   8.33255327
_cell_length_b   20.42047193
_cell_length_c   22.51832082
_cell_angle_alpha   90.00027285
_cell_angle_beta   90.00020699
_cell_angle_gamma   98.74346004
_symmetry_Int_Tables_number   1
_chemical_formula_structural   ZnH10C10N3O5
_chemical_formula_sum   'Zn12 H120 C120 N36 O60'
_cell_volume   3787.06995265
_cell_formula_units_Z   12
loop_
 _symmetry_equiv_pos_site_id
 _symmetry_equiv_pos_as_xyz
  1  'x, y, z'
loop_
 _atom_site_type_symbol
 _atom_site_label
 _atom_site_symmetry_multiplicity
 _atom_site_fract_x
 _atom_site_fract_y
 _atom_site_fract_z
 _atom_site_occupancy
 _atom_site_pbe_bader_charge
 _atom_site_pbe_bader_spin_density
 _atom_site_pbe_cm5_charge
 _atom_site_pbe_ddec_charge
 _atom_site_pbe_ddec_spin_density
 _atom_site_pbe_ddec_sum_bond_order
 _atom_site_pbe_magmom
Zn  Zn0  1  0.42886192  0.27300832  0.63477778  1  1.360799  0  0.688978  0.949397  0  2.278027  0
Zn  Zn1  1  0.57113008  0.22699381  0.13478135  1  1.360846  0  0.688967  0.949337  0  2.278078  0
Zn  Zn2  1  0.57113015  0.72699213  0.36521656  1  1.360743  0  0.688907  0.949357  0  2.278273  0
Zn  Zn3  1  0.42887487  0.77300917  0.86522187  1  1.360526  0  0.688884  0.949368  0  2.27823  0
Zn  Zn4  1  0.47813443  0.35478691  0.74892415  1  1.291773  0  0.710408  0.850502  0  2.380003  0
Zn  Zn5  1  0.52186269  0.14521296  0.24892731  1  1.291599  0  0.71048  0.850653  0  2.379678  0
Zn  Zn6  1  0.52185781  0.64521404  0.25107551  1  1.291593  0  0.710409  0.850587  0  2.379866  0
Zn  Zn7  1  0.47814947  0.85478660  0.75107946  1  1.291953  0  0.710383  0.850474  0  2.379931  0
Zn  Zn8  1  0.40360643  0.32327212  0.96721962  1  1.311463  0  0.676734  0.881573  0  2.246796  0
Zn  Zn9  1  0.59638710  0.17672508  0.46722168  1  1.311469  0  0.676701  0.881507  0  2.246822  0
Zn  Zn10  1  0.59633791  0.67672911  0.03277738  1  1.311847  0  0.676812  0.8816  0  2.246459  0
Zn  Zn11  1  0.40366833  0.82326773  0.53277532  1  1.31203  0  0.676764  0.881523  0  2.246751  0
H  H12  1  0.58509978  0.39311664  0.60370522  1  0.657176  0  0.282519  0.382701  0  0.969002  0
H  H13  1  0.41489426  0.10688531  0.10370362  1  0.657122  0  0.28258  0.382799  0  0.968845  0
H  H14  1  0.41491170  0.60688093  0.39629400  1  0.657093  0  0.282601  0.382809  0  0.968842  0
H  H15  1  0.58510142  0.89312209  0.89629604  1  0.657045  0  0.282559  0.382778  0  0.968885  0
H  H16  1  0.72009582  0.34228619  0.61651522  1  0.625203  0  0.323996  0.413172  0  0.865049  0
H  H17  1  0.27990489  0.15772080  0.11651454  1  0.625162  0  0.323993  0.413152  0  0.864959  0
H  H18  1  0.27991359  0.65771235  0.38348400  1  0.625337  0  0.323978  0.413211  0  0.865074  0
H  H19  1  0.72008512  0.84228409  0.88348334  1  0.625306  0  0.324038  0.413285  0  0.864982  0
H  H20  1  0.30775518  0.33645602  0.55176098  1  0.648687  0  0.281317  0.384876  0  0.961578  0
H  H21  1  0.69224957  0.16354715  0.05176134  1  0.648678  0  0.281326  0.384872  0  0.961555  0
H  H22  1  0.69226746  0.66354259  0.44822536  1  0.648422  0  0.281355  0.384936  0  0.96147  0
H  H23  1  0.30774490  0.83645678  0.94823166  1  0.64848  0  0.281372  0.384995  0  0.961421  0
H  H24  1  0.39033339  0.27883821  0.52012135  1  0.645294  0  0.28477  0.371402  0  0.973878  0
H  H25  1  0.60966481  0.22116424  0.02012406  1  0.645321  0  0.284733  0.371232  0  0.974086  0
H  H26  1  0.60968307  0.72115295  0.47987521  1  0.645397  0  0.284727  0.371236  0  0.974027  0
H  H27  1  0.39032022  0.77884360  0.97988005  1  0.64525  0  0.284693  0.371225  0  0.974072  0
H  H28  1  0.17313907  0.23266183  0.94478021  1  0.651289  0  0.283668  0.375536  0  0.968974  0
H  H29  1  0.82686020  0.26733180  0.44478296  1  0.651364  0  0.283672  0.375531  0  0.969001  0
H  H30  1  0.82681505  0.76733301  0.05521368  1  0.651909  0  0.283634  0.375419  0  0.969158  0
H  H31  1  0.17317926  0.73266688  0.55521315  1  0.651933  0  0.283663  0.375476  0  0.969094  0
H  H32  1  0.11564580  0.24655977  0.00993696  1  0.603616  0  0.322867  0.406192  0  0.868737  0
H  H33  1  0.88433596  0.25343711  0.50994192  1  0.603451  0  0.322854  0.40617  0  0.868813  0
H  H34  1  0.88427243  0.75344580  0.99005072  1  0.603157  0  0.32286  0.406087  0  0.868815  0
H  H35  1  0.11571930  0.74655868  0.49005108  1  0.603357  0  0.322863  0.406158  0  0.868758  0
H  H36  1  0.09173354  0.41708566  0.83971987  1  0.077542  0  0.116013  0.117311  0  0.994293  0
H  H37  1  0.90827633  0.08291728  0.33971751  1  0.07753  0  0.116051  0.117427  0  0.99438  0
H  H38  1  0.90824977  0.58292415  0.16027535  1  0.07765  0  0.115992  0.117306  0  0.994272  0
H  H39  1  0.09175248  0.91706453  0.66027372  1  0.07771  0  0.116036  0.117304  0  0.994405  0
H  H40  1  0.25386975  0.48307038  0.85131468  1  0.121052  0  0.115069  0.119481  0  1.009968  0
H  H41  1  0.74615657  0.01693121  0.35131670  1  0.121588  0  0.115127  0.119589  0  1.009956  0
H  H42  1  0.74613451  0.51693754  0.14867566  1  0.121163  0  0.115072  0.119538  0  1.009898  0
H  H43  1  0.25386623  0.98305058  0.64867319  1  0.120982  0  0.115076  0.119451  0  1.010012  0
H  H44  1  0.06791776  0.44115067  0.69664085  1  0.104696  0  0.11442  0.116073  0  1.004642  0
H  H45  1  0.93209300  0.05885537  0.19664198  1  0.10493  0  0.114463  0.116142  0  1.004766  0
H  H46  1  0.93209750  0.55885087  0.30335038  1  0.105613  0  0.114459  0.116064  0  1.00474  0
H  H47  1  0.06790405  0.94114906  0.80334747  1  0.105619  0  0.114458  0.11606  0  1.004844  0
H  H48  1  0.01387336  0.38312645  0.75487505  1  0.095766  0  0.114449  0.120674  0  0.992768  0
H  H49  1  0.98611834  0.11687492  0.25487561  1  0.095383  0  0.114461  0.120729  0  0.992855  0
H  H50  1  0.98611613  0.61687350  0.24511840  1  0.095053  0  0.114467  0.120738  0  0.992802  0
H  H51  1  0.01389039  0.88312512  0.74512006  1  0.095166  0  0.114442  0.120729  0  0.992892  0
H  H52  1  0.76991206  0.60519260  0.85942069  1  0.081958  0  0.103074  0.091762  0  1.045063  0
H  H53  1  0.23009479  0.89480373  0.35942096  1  0.081757  0  0.103074  0.091752  0  1.045014  0
H  H54  1  0.23007624  0.39480041  0.14057498  1  0.081569  0  0.103087  0.091814  0  1.045016  0
H  H55  1  0.76991669  0.10520076  0.64057693  1  0.081649  0  0.103078  0.091759  0  1.045077  0
H  H56  1  0.56749877  0.56475336  0.86155206  1  0.152398  0  0.118274  0.124346  0  1.016381  0
H  H57  1  0.43250123  0.93524741  0.36155278  1  0.152352  0  0.118255  0.124315  0  1.01639  0
H  H58  1  0.43247664  0.43524751  0.13843916  1  0.152978  0  0.118336  0.124315  0  1.016293  0
H  H59  1  0.56751368  0.06474968  0.63844067  1  0.152527  0  0.118299  0.124305  0  1.016336  0
H  H60  1  0.79593835  0.66864238  0.73356688  1  0.056187  0  0.105473  0.094333  0  1.020559  0
H  H61  1  0.20406717  0.83136061  0.23356772  1  0.056236  0  0.105511  0.094374  0  1.020624  0
H  H62  1  0.20408188  0.33136660  0.26643190  1  0.056424  0  0.105533  0.094431  0  1.020632  0
H  H63  1  0.79591168  0.16863286  0.76642883  1  0.056499  0  0.105557  0.094468  0  1.020669  0
H  H64  1  0.82023541  0.70620450  0.80495507  1  0.096604  0  0.118501  0.126879  0  0.965387  0
H  H65  1  0.17976546  0.79379693  0.30495306  1  0.096508  0  0.118468  0.126877  0  0.96549  0
H  H66  1  0.17975769  0.29379893  0.19504726  1  0.096467  0  0.118498  0.126875  0  0.965483  0
H  H67  1  0.82023021  0.20620008  0.69504705  1  0.096503  0  0.118503  0.126915  0  0.965463  0
H  H68  1  0.34633578  0.54627763  0.52244710  1  0.081719  0  0.117988  0.124241  0  0.983924  0
H  H69  1  0.65367154  0.95372262  0.02244775  1  0.081357  0  0.117939  0.124204  0  0.984009  0
H  H70  1  0.65368600  0.45371850  0.47754723  1  0.081461  0  0.117945  0.124233  0  0.984017  0
H  H71  1  0.34631504  0.04628276  0.97754614  1  0.081484  0  0.117919  0.124202  0  0.983997  0
H  H72  1  0.20810164  0.51905238  0.58050634  1  0.087537  0  0.112678  0.113885  0  0.975895  0
H  H73  1  0.79190207  0.98094622  0.08050641  1  0.087466  0  0.112667  0.113847  0  0.975979  0
H  H74  1  0.79192082  0.48093880  0.41948977  1  0.087268  0  0.112712  0.113949  0  0.975894  0
H  H75  1  0.20808485  0.01905668  0.91948837  1  0.087247  0  0.112712  0.113958  0  0.975933  0
H  H76  1  0.57746076  0.62255349  0.53980040  1  0.106996  0  0.119262  0.125896  0  1.001938  0
H  H77  1  0.42252942  0.87744877  0.03980219  1  0.107015  0  0.119238  0.125862  0  1.001997  0
H  H78  1  0.42255741  0.37744609  0.46019571  1  0.107203  0  0.11926  0.125927  0  1.002008  0
H  H79  1  0.57745201  0.12255213  0.96019303  1  0.107093  0  0.119207  0.12589  0  1.002056  0
H  H80  1  0.62086357  0.65404769  0.61246578  1  0.131861  0  0.125227  0.136127  0  0.970338  0
H  H81  1  0.37913537  0.84595356  0.11246604  1  0.131865  0  0.125225  0.136139  0  0.970351  0
H  H82  1  0.37914859  0.34594493  0.38753433  1  0.132012  0  0.125197  0.136116  0  0.97033  0
H  H83  1  0.62085396  0.15405282  0.88753096  1  0.131938  0  0.125242  0.136172  0  0.970307  0
H  H84  1  0.20512020  0.17012330  0.57926927  1  0.14071  0  0.116188  0.087522  0  1.025692  0
H  H85  1  0.79487096  0.32987799  0.07926825  1  0.140718  0  0.116206  0.087556  0  1.025712  0
H  H86  1  0.79488028  0.82988065  0.42073572  1  0.140331  0  0.116138  0.087468  0  1.025628  0
H  H87  1  0.20512420  0.67012445  0.92074473  1  0.140438  0  0.116101  0.087438  0  1.025643  0
H  H88  1  0.00326083  0.07249020  0.60535791  1  0.068375  0  0.103138  0.103273  0  1.050656  0
H  H89  1  0.99672704  0.42751124  0.10535225  1  0.068202  0  0.103116  0.103243  0  1.050682  0
H  H90  1  0.99674532  0.92751279  0.39464664  1  0.068298  0  0.103162  0.103343  0  1.05053  0
H  H91  1  0.00325679  0.57249314  0.89465807  1  0.075716  0  0.103141  0.10336  0  1.050625  0
H  H92  1  0.10726660  0.11984325  0.79068717  1  0.072494  0  0.119829  0.132016  0  0.984614  0
H  H93  1  0.89274356  0.38016533  0.29068473  1  0.072228  0  0.119837  0.132042  0  0.984612  0
H  H94  1  0.89273921  0.88016221  0.20931782  1  0.072588  0  0.119816  0.132009  0  0.984625  0
H  H95  1  0.10724233  0.61983806  0.70932826  1  0.072607  0  0.119864  0.132091  0  0.984653  0
H  H96  1  0.30641770  0.21383991  0.75596156  1  0.186416  0  0.126701  0.106424  0  1.004267  0
H  H97  1  0.69357419  0.28617234  0.25596022  1  0.18654  0  0.126742  0.106492  0  1.004284  0
H  H98  1  0.69358879  0.78616753  0.24404254  1  0.186715  0  0.126714  0.106494  0  1.004327  0
H  H99  1  0.30640758  0.71383301  0.74405055  1  0.186756  0  0.126653  0.106421  0  1.004135  0
H  H100  1  0.69155654  0.89130207  0.65967322  1  0.129076  0  0.121202  0.095884  0  1.024557  0
H  H101  1  0.30846906  0.60869512  0.15966838  1  0.128985  0  0.121191  0.09595  0  1.024777  0
H  H102  1  0.30847262  0.10870151  0.34033177  1  0.12884  0  0.12118  0.095929  0  1.024729  0
H  H103  1  0.69153469  0.39129400  0.84033705  1  0.128934  0  0.121194  0.095991  0  1.024782  0
H  H104  1  0.91044101  0.98179208  0.63162973  1  0.072748  0  0.103795  0.1007  0  1.057531  0
H  H105  1  0.08958185  0.51820840  0.13162377  1  0.073078  0  0.103772  0.100709  0  1.057668  0
H  H106  1  0.08959090  0.01821251  0.36838236  1  0.072915  0  0.103786  0.100704  0  1.057559  0
H  H107  1  0.91040884  0.48178809  0.86839144  1  0.072794  0  0.103782  0.1007  0  1.057462  0
H  H108  1  0.87369036  0.06258334  0.80828435  1  0.10494  0  0.122651  0.132928  0  0.975547  0
H  H109  1  0.12630902  0.43742134  0.30828155  1  0.105134  0  0.122653  0.132925  0  0.975501  0
H  H110  1  0.12629227  0.93742449  0.19172197  1  0.104923  0  0.122674  0.132945  0  0.975568  0
H  H111  1  0.87370434  0.56257475  0.69173277  1  0.104783  0  0.122697  0.133012  0  0.975616  0
H  H112  1  0.65050778  0.97057923  0.82797766  1  0.18095  0  0.127042  0.110172  0  1.022271  0
H  H113  1  0.34948856  0.52942924  0.32797964  1  0.180967  0  0.127039  0.110219  0  1.022219  0
H  H114  1  0.34947485  0.02942860  0.17202112  1  0.18098  0  0.127053  0.110181  0  1.022328  0
H  H115  1  0.65052240  0.47057377  0.67203290  1  0.181117  0  0.127063  0.110168  0  1.022382  0
H  H116  1  0.79725087  0.31318426  0.95791322  1  0.156047  0  0.127547  0.107693  0  0.975688  0
H  H117  1  0.20273018  0.18681184  0.45790812  1  0.156321  0  0.127592  0.107785  0  0.975735  0
H  H118  1  0.20266977  0.68684902  0.04208467  1  0.15595  0  0.127662  0.107948  0  0.975347  0
H  H119  1  0.79731254  0.81314778  0.54208088  1  0.155844  0  0.127675  0.107977  0  0.975271  0
H  H120  1  0.04903294  0.38840645  0.98084487  1  0.14303  0  0.11398  0.135918  0  1.021992  0
H  H121  1  0.95095474  0.11158735  0.48084757  1  0.143045  0  0.114037  0.135952  0  1.022015  0
H  H122  1  0.95089611  0.61161648  0.01913837  1  0.14376  0  0.113838  0.135775  0  1.022208  0
H  H123  1  0.04909863  0.88837528  0.51913655  1  0.14365  0  0.113856  0.135858  0  1.022103  0
H  H124  1  0.75807130  0.54808263  0.98941160  1  0.13429  0  0.108942  0.128825  0  1.063539  0
H  H125  1  0.24193657  0.95191647  0.48940813  1  0.134151  0  0.108927  0.128799  0  1.063626  0
H  H126  1  0.24186943  0.45193936  0.01061559  1  0.134336  0  0.108822  0.128621  0  1.063516  0
H  H127  1  0.75814496  0.04806162  0.51062040  1  0.134357  0  0.108837  0.128705  0  1.063395  0
H  H128  1  0.52308435  0.46597482  0.96264284  1  0.105094  0  0.118263  0.089508  0  1.017312  0
H  H129  1  0.47690792  0.03402581  0.46263036  1  0.105097  0  0.118211  0.089468  0  1.017227  0
H  H130  1  0.47681928  0.53404750  0.03739235  1  0.105431  0  0.11833  0.089744  0  1.017503  0
H  H131  1  0.52318598  0.96595679  0.53739195  1  0.105458  0  0.118361  0.089806  0  1.017433  0
C  C132  1  0.33311855  0.50037529  0.74425794  1  1.508191  0  0.330977  0.464867  0  4.168117  0
C  C133  1  0.66689019  0.99962630  0.24425925  1  1.508123  0  0.330975  0.464762  0  4.168047  0
C  C134  1  0.66688932  0.49962572  0.25573684  1  1.508284  0  0.330941  0.464835  0  4.168125  0
C  C135  1  0.33310136  0.00036921  0.75573331  1  1.508294  0  0.330922  0.46492  0  4.167943  0
C  C136  1  0.51405273  0.59389535  0.75919543  1  1.509766  0  0.332944  0.472351  0  4.143499  0
C  C137  1  0.48594915  0.90610333  0.25919610  1  1.509668  0  0.332851  0.472274  0  4.143267  0
C  C138  1  0.48594706  0.40610316  0.24079712  1  1.509449  0  0.332922  0.472244  0  4.143943  0
C  C139  1  0.51404636  0.09389664  0.74079557  1  1.554967  0  0.332873  0.472039  0  4.143815  0
C  C140  1  0.42460766  0.56535836  0.66622479  1  1.529708  0  0.345768  0.480683  0  4.123861  0
C  C141  1  0.57539105  0.93464073  0.16622215  1  1.529439  0  0.345777  0.480722  0  4.123578  0
C  C142  1  0.57540862  0.43463576  0.33377398  1  1.529958  0  0.345668  0.480812  0  4.123373  0
C  C143  1  0.42459123  0.06536264  0.83377174  1  1.529983  0  0.345626  0.48071  0  4.123466  0
C  C144  1  0.21983149  0.43499672  0.82931025  1  0.288475  0  -0.064228  -0.227094  0  3.947079  0
C  C145  1  0.78018531  0.06500223  0.32931030  1  0.288091  0  -0.06439  -0.227613  0  3.947477  0
C  C146  1  0.78015852  0.56500818  0.17068498  1  0.288683  0  -0.064246  -0.22724  0  3.947274  0
C  C147  1  0.21984299  0.93498156  0.67068359  1  0.288784  0  -0.064344  -0.227133  0  3.947349  0
C  C148  1  0.31437543  0.38626021  0.85974720  1  1.539933  0  0.225003  0.631108  0  4.112631  0
C  C149  1  0.68563606  0.11373643  0.35974911  1  1.539336  0  0.225218  0.631555  0  4.11234  0
C  C150  1  0.68560119  0.61374067  0.14024980  1  1.539215  0  0.225101  0.631218  0  4.112103  0
C  C151  1  0.31440014  0.88624938  0.64025188  1  1.538525  0  0.22521  0.63152  0  4.111992  0
C  C152  1  0.11497506  0.40656416  0.72708713  1  0.265433  0  -0.06576  -0.227363  0  3.902535  0
C  C153  1  0.88503297  0.09343315  0.22708967  1  0.265441  0  -0.065818  -0.227549  0  3.902886  0
C  C154  1  0.88502886  0.59343239  0.27290498  1  0.265736  0  -0.065833  -0.227359  0  3.902711  0
C  C155  1  0.11496786  0.90656833  0.77290422  1  0.265492  0  -0.065814  -0.227358  0  3.902884  0
C  C156  1  0.16087212  0.35155987  0.68693440  1  1.590372  0  0.216257  0.636412  0  4.111111  0
C  C157  1  0.83913080  0.14844114  0.18693889  1  1.59028  0  0.216297  0.636422  0  4.110851  0
C  C158  1  0.83913489  0.64843867  0.31306037  1  1.589567  0  0.216249  0.636245  0  4.111148  0
C  C159  1  0.16086505  0.85156675  0.81306477  1  1.589905  0  0.216252  0.636356  0  4.111002  0
C  C160  1  0.64259244  0.61316904  0.85538657  1  0.243999  0  -0.068076  -0.223937  0  3.94938  0
C  C161  1  0.35741436  0.88683073  0.35538476  1  0.243504  0  -0.068003  -0.223857  0  3.949278  0
C  C162  1  0.35739791  0.38682992  0.14460732  1  0.243685  0  -0.068093  -0.223772  0  3.949066  0
C  C163  1  0.64259454  0.11316979  0.64460869  1  0.244062  0  -0.068064  -0.223804  0  3.94921  0
C  C164  1  0.61500612  0.65618806  0.90825426  1  1.574067  0  0.216412  0.630386  0  4.141608  0
C  C165  1  0.38501212  0.84381208  0.40825586  1  1.574091  0  0.216506  0.63052  0  4.14121  0
C  C166  1  0.38498629  0.34380992  0.09173563  1  1.574106  0  0.216552  0.630371  0  4.141254  0
C  C167  1  0.61499936  0.15618549  0.59173315  1  1.574285  0  0.216562  0.630376  0  4.141417  0
C  C168  1  0.73104406  0.68838159  0.77029474  1  0.293603  0  -0.060884  -0.205826  0  3.893204  0
C  C169  1  0.26895383  0.81161912  0.27029515  1  0.293657  0  -0.060933  -0.205994  0  3.893424  0
C  C170  1  0.26896089  0.31162139  0.22970270  1  0.293562  0  -0.061024  -0.206105  0  3.893753  0
C  C171  1  0.73103961  0.18838183  0.72970273  1  0.293529  0  -0.060972  -0.206075  0  3.893557  0
C  C172  1  0.67229082  0.75090227  0.74613806  1  1.603895  0  0.211437  0.630556  0  4.133361  0
C  C173  1  0.32770146  0.74909678  0.24613251  1  1.604003  0  0.211516  0.63071  0  4.133313  0
C  C174  1  0.32771722  0.24909924  0.25386915  1  1.604126  0  0.211399  0.630407  0  4.133361  0
C  C175  1  0.67229095  0.25090120  0.75386804  1  1.604026  0  0.211369  0.630504  0  4.133445  0
C  C176  1  0.33680999  0.52674010  0.56800285  1  0.306019  0  -0.059453  -0.211684  0  3.901192  0
C  C177  1  0.66319821  0.97325795  0.06800271  1  0.307131  0  -0.059322  -0.211522  0  3.9014  0
C  C178  1  0.66321676  0.47325309  0.43199282  1  0.306712  0  -0.059477  -0.211824  0  3.901364  0
C  C179  1  0.33678734  0.02674445  0.93199207  1  0.307129  0  -0.059451  -0.211822  0  3.901576  0
C  C180  1  0.39396493  0.45849877  0.56674999  1  1.620339  0  0.210256  0.617298  0  4.171223  0
C  C181  1  0.60603811  0.04149904  0.06675104  1  1.619763  0  0.210303  0.6174  0  4.171244  0
C  C182  1  0.60605513  0.54149587  0.43324302  1  1.61953  0  0.210294  0.617307  0  4.171358  0
C  C183  1  0.39395396  0.95850488  0.93324596  1  1.61975  0  0.210274  0.61734  0  4.171424  0
C  C184  1  0.52204049  0.63442044  0.58201802  1  0.301866  0  -0.055423  -0.215893  0  3.894699  0
C  C185  1  0.47795363  0.86558160  0.08201583  1  0.302106  0  -0.055368  -0.215872  0  3.894765  0
C  C186  1  0.47797459  0.36557369  0.41798165  1  0.300948  0  -0.055468  -0.215995  0  3.89472  0
C  C187  1  0.52203072  0.13442426  0.91797939  1  0.301071  0  -0.055404  -0.215907  0  3.894734  0
C  C188  1  0.41943951  0.68960835  0.57263859  1  1.565779  0  0.220923  0.625248  0  4.109647  0
C  C189  1  0.58054436  0.81038863  0.07263587  1  1.56582  0  0.220813  0.625171  0  4.1096  0
C  C190  1  0.58056853  0.31038277  0.42736241  1  1.566185  0  0.220908  0.625126  0  4.109952  0
C  C191  1  0.41943105  0.18961570  0.92736158  1  1.566416  0  0.220756  0.624897  0  4.109751  0
C  C192  1  0.18074063  0.15598130  0.62540943  1  0.500119  0  0.052014  0.106403  0  3.940226  0
C  C193  1  0.81924319  0.34402173  0.12540940  1  0.500244  0  0.052016  0.106354  0  3.940447  0
C  C194  1  0.81926277  0.84402415  0.37458979  1  0.501155  0  0.052198  0.106613  0  3.940212  0
C  C195  1  0.18073892  0.65598462  0.87460270  1  0.50039  0  0.05244  0.1069  0  3.939598  0
C  C196  1  0.06793839  0.10173939  0.64068347  1  -0.092987  0  -0.084059  -0.174383  0  3.953267  0
C  C197  1  0.93205505  0.39826673  0.14067982  1  -0.092926  0  -0.084032  -0.174298  0  3.95318  0
C  C198  1  0.93206416  0.89826358  0.35932019  1  -0.093447  0  -0.084154  -0.174563  0  3.953475  0
C  C199  1  0.06791744  0.60173611  0.85933006  1  -0.10019  0  -0.084249  -0.174725  0  3.952891  0
C  C200  1  0.03626330  0.08692675  0.70085487  1  0.000836  0  0.012341  0.098328  0  3.978515  0
C  C201  1  0.96373498  0.41307778  0.20085132  1  0.001142  0  0.012351  0.098288  0  3.978681  0
C  C202  1  0.96373736  0.91307770  0.29914835  1  0.001037  0  0.012317  0.098278  0  3.978576  0
C  C203  1  0.03624902  0.58692709  0.79916033  1  0.000335  0  0.01241  0.098376  0  3.978787  0
C  C204  1  0.12250886  0.12851848  0.74315835  1  0.040297  0  -0.068988  -0.152398  0  3.901699  0
C  C205  1  0.87749387  0.37149078  0.24315540  1  0.040609  0  -0.069016  -0.152571  0  3.901803  0
C  C206  1  0.87749335  0.87148697  0.25684487  1  0.039673  0  -0.069015  -0.15247  0  3.901917  0
C  C207  1  0.12248464  0.62851209  0.75685670  1  0.039546  0  -0.069116  -0.152549  0  3.90204  0
C  C208  1  0.23462391  0.18164383  0.72422817  1  0.429335  0  0.062026  0.122964  0  3.895675  0
C  C209  1  0.76536520  0.31836476  0.22422618  1  0.429295  0  0.062018  0.123004  0  3.89561  0
C  C210  1  0.76538139  0.81836361  0.27577238  1  0.429658  0  0.062055  0.122988  0  3.895712  0
C  C211  1  0.23461640  0.68164010  0.77578414  1  0.429843  0  0.062196  0.123131  0  3.895278  0
C  C212  1  0.73454370  0.93119003  0.69046116  1  0.46784  0  0.050078  0.098612  0  3.94179  0
C  C213  1  0.26546474  0.56880876  0.19045342  1  0.468035  0  0.050155  0.09859  0  3.942033  0
C  C214  1  0.26547910  0.06881253  0.30954206  1  0.468295  0  0.050091  0.098502  0  3.94176  0
C  C215  1  0.73452526  0.43118575  0.80954935  1  0.467939  0  0.050037  0.098325  0  3.941815  0
C  C216  1  0.85758559  0.98163721  0.67572801  1  0.022485  0  -0.082851  -0.173528  0  3.961006  0
C  C217  1  0.14242509  0.51836496  0.17572256  1  0.021363  0  -0.082914  -0.173688  0  3.961523  0
C  C218  1  0.14242983  0.01836483  0.32427831  1  0.02168  0  -0.082871  -0.173592  0  3.960807  0
C  C219  1  0.85756578  0.48163549  0.82428865  1  0.021406  0  -0.082873  -0.173397  0  3.96059  0
C  C220  1  0.91213936  0.03097372  0.71752799  1  -0.018855  0  0.017224  0.110757  0  3.956609  0
C  C221  1  0.08786512  0.46903093  0.21752127  1  -0.018749  0  0.017295  0.111049  0  3.956414  0
C  C222  1  0.08786765  0.96902828  0.28247389  1  -0.018592  0  0.017306  0.110941  0  3.956471  0
C  C223  1  0.91212489  0.53097396  0.78248594  1  -0.018988  0  0.017342  0.111067  0  3.9565  0
C  C224  1  0.83898197  0.02586256  0.77373994  1  0.007435  0  -0.065858  -0.150302  0  3.888888  0
C  C225  1  0.16101545  0.47414438  0.27373689  1  0.007367  0  -0.06587  -0.150433  0  3.888591  0
C  C226  1  0.16101267  0.97414532  0.22626328  1  0.007609  0  -0.065876  -0.150329  0  3.888878  0
C  C227  1  0.83898624  0.52585612  0.72627387  1  0.008542  0  -0.066057  -0.150863  0  3.889234  0
C  C228  1  0.71329879  0.97451208  0.78529158  1  0.420683  0  0.060775  0.116193  0  3.88191  0
C  C229  1  0.28670133  0.52549466  0.28528902  1  0.420809  0  0.060862  0.116317  0  3.881499  0
C  C230  1  0.28669826  0.02549235  0.21470898  1  0.420654  0  0.060841  0.116268  0  3.881725  0
C  C231  1  0.71330276  0.47450930  0.71471331  1  0.420394  0  0.060878  0.116644  0  3.881288  0
C  C232  1  0.79397335  0.36570687  0.96561328  1  0.499222  0  0.057121  0.107005  0  3.911034  0
C  C233  1  0.20601827  0.13429180  0.46560841  1  0.499247  0  0.057043  0.10676  0  3.91128  0
C  C234  1  0.20599348  0.63430732  0.03439038  1  0.500001  0  0.056995  0.106351  0  3.910754  0
C  C235  1  0.79400556  0.86569296  0.53438859  1  0.500087  0  0.056961  0.106332  0  3.910808  0
C  C236  1  0.93562697  0.40880629  0.97940091  1  -0.114323  0  -0.077706  -0.171892  0  3.890463  0
C  C237  1  0.06436310  0.09118751  0.47940144  1  -0.114184  0  -0.077794  -0.171828  0  3.89057  0
C  C238  1  0.06430123  0.59120378  0.02059786  1  -0.115212  0  -0.077529  -0.171536  0  3.889572  0
C  C239  1  0.93569353  0.90879146  0.52059556  1  -0.115237  0  -0.077542  -0.171681  0  3.88969  0
C  C240  1  0.92784199  0.47611438  0.99097873  1  -0.013039  0  0.007117  0.090494  0  3.970648  0
C  C241  1  0.07216161  0.02388005  0.49097721  1  -0.013427  0  0.007091  0.09041  0  3.970733  0
C  C242  1  0.07211729  0.52388148  0.00903825  1  0.024171  0  0.007112  0.090097  0  3.970714  0
C  C243  1  0.92788609  0.97611472  0.50903889  1  0.024509  0  0.007044  0.090042  0  3.970598  0
C  C244  1  0.77572382  0.49675550  0.98392753  1  -0.025688  0  -0.086468  -0.182388  0  3.930049  0
C  C245  1  0.22428158  0.00324087  0.48392434  1  -0.025569  0  -0.086397  -0.182373  0  3.929876  0
C  C246  1  0.22423442  0.50326162  0.01610145  1  -0.025184  0  -0.086322  -0.181804  0  3.930228  0
C  C247  1  0.77576922  0.99673857  0.51610419  1  -0.025213  0  -0.086264  -0.181749  0  3.930057  0
C  C248  1  0.64162603  0.45071921  0.96891378  1  0.415858  0  0.045944  0.098768  0  3.948834  0
C  C249  1  0.35837267  0.04928248  0.46890521  1  0.415956  0  0.045973  0.098893  0  3.948479  0
C  C250  1  0.35831212  0.54929189  0.03111475  1  0.41617  0  0.045718  0.098207  0  3.949088  0
C  C251  1  0.64169341  0.95070989  0.53111666  1  0.416275  0  0.045701  0.098113  0  3.949123  0
N  N252  1  0.42441395  0.53949056  0.78365134  1  -1.212609  0  -0.366143  -0.557759  0  3.305675  0
N  N253  1  0.57559113  0.96050976  0.28365103  1  -1.21263  0  -0.366081  -0.557651  0  3.305297  0
N  N254  1  0.57557726  0.46051434  0.21634521  1  -1.212736  0  -0.366163  -0.557636  0  3.305451  0
N  N255  1  0.42440729  0.03948478  0.71634197  1  -1.212815  0  -0.366111  -0.557578  0  3.305177  0
N  N256  1  0.32684011  0.51042417  0.68573716  1  -1.211278  0  -0.351879  -0.525943  0  3.291433  0
N  N257  1  0.67316021  0.98957555  0.18573888  1  -1.211139  0  -0.351814  -0.525919  0  3.291452  0
N  N258  1  0.67318132  0.48957097  0.31425584  1  -1.211529  0  -0.351658  -0.5259  0  3.291342  0
N  N259  1  0.32682036  0.01042634  0.81425323  1  -1.211452  0  -0.35162  -0.525876  0  3.291445  0
N  N260  1  0.51775392  0.60976691  0.70143583  1  -1.206484  0  -0.350862  -0.532947  0  3.274779  0
N  N261  1  0.48223680  0.89023236  0.20143465  1  -1.206452  0  -0.35082  -0.532964  0  3.274539  0
N  N262  1  0.48224897  0.39023013  0.29855983  1  -1.206223  0  -0.350875  -0.53302  0  3.274888  0
N  N263  1  0.51775115  0.10977005  0.79855969  1  -1.251728  0  -0.350871  -0.532943  0  3.274961  0
N  N264  1  0.23828384  0.44342530  0.76571850  1  -1.181221  0  -0.282145  -0.106329  0  3.62544  0
N  N265  1  0.76172808  0.05657522  0.26572027  1  -1.181399  0  -0.282131  -0.106072  0  3.625581  0
N  N266  1  0.76172316  0.55657670  0.23427450  1  -1.181563  0  -0.28209  -0.106317  0  3.625709  0
N  N267  1  0.23827224  0.94341784  0.73427317  1  -1.181757  0  -0.282027  -0.106336  0  3.625507  0
N  N268  1  0.43091919  0.57496093  0.60685938  1  -1.182006  0  -0.265847  -0.059968  0  3.669348  0
N  N269  1  0.56908861  0.92503834  0.10685535  1  -1.181881  0  -0.265951  -0.060005  0  3.669619  0
N  N270  1  0.56910533  0.42503274  0.39313984  1  -1.181768  0  -0.26582  -0.059877  0  3.669118  0
N  N271  1  0.43089591  0.07496455  0.89313943  1  -1.181696  0  -0.26587  -0.059937  0  3.669226  0
N  N272  1  0.61204698  0.63630789  0.79634090  1  -1.132088  0  -0.275112  -0.084445  0  3.592153  0
N  N273  1  0.38795688  0.86368854  0.29634258  1  -1.13128  0  -0.275125  -0.084392  0  3.592156  0
N  N274  1  0.38795625  0.36369013  0.20364988  1  -1.131963  0  -0.275174  -0.084534  0  3.592795  0
N  N275  1  0.61203553  0.13631290  0.70364998  1  -1.131932  0  -0.275152  -0.084457  0  3.592542  0
N  N276  1  0.26376448  0.19501028  0.66641618  1  -1.224171  0  -0.32015  -0.232243  0  3.56453  0
N  N277  1  0.73622566  0.30499945  0.16641409  1  -1.224375  0  -0.320224  -0.232315  0  3.564894  0
N  N278  1  0.73623463  0.80499664  0.33358570  1  -1.224597  0  -0.320252  -0.23234  0  3.564351  0
N  N279  1  0.26376246  0.69500692  0.83359667  1  -1.223742  0  -0.320387  -0.232587  0  3.564668  0
N  N280  1  0.66185210  0.92837771  0.74402016  1  -1.252466  0  -0.335007  -0.231683  0  3.613526  0
N  N281  1  0.33815183  0.57162732  0.24401520  1  -1.252395  0  -0.335149  -0.231885  0  3.613186  0
N  N282  1  0.33815388  0.07162825  0.25597906  1  -1.25251  0  -0.335142  -0.231783  0  3.613371  0
N  N283  1  0.66184968  0.42837268  0.75598935  1  -1.252397  0  -0.335025  -0.231901  0  3.613084  0
N  N284  1  0.64748036  0.38569698  0.96153699  1  -1.220824  0  -0.31556  -0.252702  0  3.485904  0
N  N285  1  0.35250743  0.11430116  0.46153046  1  -1.221123  0  -0.315501  -0.252638  0  3.485944  0
N  N286  1  0.35247050  0.61431269  0.03848088  1  -1.2215  0  -0.3154  -0.252179  0  3.486017  0
N  N287  1  0.64752224  0.88568660  0.53847942  1  -1.221663  0  -0.315446  -0.252186  0  3.485854  0
O  O288  1  0.30349423  0.38703375  0.91605024  1  -1.133285  0  -0.30985  -0.529585  0  2.350564  0
O  O289  1  0.69651552  0.11296668  0.41605128  1  -1.132932  0  -0.30985  -0.529692  0  2.350567  0
O  O290  1  0.69645045  0.61296501  0.08394809  1  -1.133041  0  -0.309917  -0.5296  0  2.350512  0
O  O291  1  0.30355279  0.88702174  0.58395061  1  -1.133053  0  -0.310037  -0.529806  0  2.350562  0
O  O292  1  0.39231821  0.34735113  0.83171933  1  -1.183145  0  -0.311406  -0.537531  0  2.348255  0
O  O293  1  0.60768591  0.15264580  0.33172308  1  -1.182778  0  -0.311581  -0.537772  0  2.348154  0
O  O294  1  0.60767747  0.65265973  0.16827945  1  -1.183093  0  -0.311495  -0.537656  0  2.347617  0
O  O295  1  0.39232969  0.84733249  0.66828281  1  -1.182755  0  -0.311444  -0.537726  0  2.347696  0
O  O296  1  0.31406384  0.34262756  0.68609517  1  -1.18132  0  -0.334019  -0.584313  0  2.492567  0
O  O297  1  0.68593598  0.15737491  0.18609638  1  -1.181233  0  -0.334079  -0.584435  0  2.492455  0
O  O298  1  0.68593853  0.65737145  0.31390094  1  -1.181082  0  -0.334046  -0.584314  0  2.492588  0
O  O299  1  0.31405626  0.84262604  0.81390506  1  -1.181067  0  -0.334011  -0.584305  0  2.492517  0
O  O300  1  0.05275959  0.31937394  0.65699997  1  -1.166853  0  -0.325831  -0.521847  0  2.032561  0
O  O301  1  0.94724143  0.18062935  0.15700696  1  -1.166653  0  -0.325841  -0.521815  0  2.032511  0
O  O302  1  0.94724673  0.68062608  0.34299081  1  -1.166598  0  -0.325804  -0.52172  0  2.032747  0
O  O303  1  0.05276232  0.81938055  0.84299803  1  -1.166898  0  -0.325864  -0.521839  0  2.032745  0
O  O304  1  0.63259300  0.62743404  0.95794087  1  -1.180399  0  -0.322989  -0.556511  0  2.35469  0
O  O305  1  0.36740264  0.87256878  0.45794345  1  -1.180354  0  -0.323069  -0.556553  0  2.354525  0
O  O306  1  0.36727509  0.37256537  0.04205125  1  -1.179855  0  -0.323053  -0.556679  0  2.354127  0
O  O307  1  0.63272577  0.12743030  0.54205178  1  -1.180174  0  -0.323027  -0.556565  0  2.354151  0
O  O308  1  0.58536400  0.71461904  0.90431402  1  -1.207678  0  -0.320203  -0.576916  0  2.362234  0
O  O309  1  0.41467205  0.78538413  0.40431718  1  -1.207751  0  -0.320197  -0.576999  0  2.362447  0
O  O310  1  0.41472784  0.28540956  0.09565545  1  -1.208079  0  -0.320279  -0.576709  0  2.36298  0
O  O311  1  0.58523811  0.21458777  0.59565584  1  -1.20817  0  -0.320327  -0.576823  0  2.363073  0
O  O312  1  0.54222686  0.76765819  0.77076951  1  -1.193469  0  -0.332794  -0.598908  0  2.474778  0
O  O313  1  0.45776468  0.73233804  0.27076629  1  -1.193443  0  -0.332827  -0.599  0  2.474626  0
O  O314  1  0.45776194  0.23233631  0.22922616  1  -1.193593  0  -0.3327  -0.598722  0  2.474501  0
O  O315  1  0.54224182  0.26766594  0.72922938  1  -1.193532  0  -0.332754  -0.598793  0  2.47453  0
O  O316  1  0.75358012  0.78344111  0.70716192  1  -1.174759  0  -0.331583  -0.544114  0  2.060223  0
O  O317  1  0.24641411  0.71656465  0.20715568  1  -1.174949  0  -0.331619  -0.544139  0  2.060345  0
O  O318  1  0.24644269  0.21657531  0.29285373  1  -1.174928  0  -0.331577  -0.544046  0  2.060355  0
O  O319  1  0.75356869  0.28342637  0.79284798  1  -1.174906  0  -0.331542  -0.544049  0  2.060458  0
O  O320  1  0.29085908  0.41125702  0.54792692  1  -1.193201  0  -0.332205  -0.561578  0  2.158091  0
O  O321  1  0.70913806  0.08874163  0.04792476  1  -1.193201  0  -0.332275  -0.56168  0  2.157973  0
O  O322  1  0.70916904  0.58874013  0.45206209  1  -1.192465  0  -0.332153  -0.561543  0  2.157924  0
O  O323  1  0.29084903  0.91126176  0.95206735  1  -1.192983  0  -0.332227  -0.561647  0  2.157976  0
O  O324  1  0.54013824  0.45561085  0.58241022  1  -1.205519  0  -0.337048  -0.57618  0  2.20206  0
O  O325  1  0.45988164  0.04439010  0.08241330  1  -1.205521  0  -0.337088  -0.576257  0  2.202248  0
O  O326  1  0.45988989  0.54438630  0.41758412  1  -1.20534  0  -0.337091  -0.57617  0  2.202292  0
O  O327  1  0.54011953  0.95561584  0.91758769  1  -1.205465  0  -0.337011  -0.576098  0  2.20225  0
O  O328  1  0.27914849  0.68503326  0.59332608  1  -1.174402  0  -0.309073  -0.524346  0  2.120989  0
O  O329  1  0.72083974  0.81496188  0.09332668  1  -1.174671  0  -0.30898  -0.524281  0  2.12083  0
O  O330  1  0.72086023  0.31495638  0.40667003  1  -1.174602  0  -0.30912  -0.524407  0  2.121004  0
O  O331  1  0.27913842  0.18503653  0.90666632  1  -1.174634  0  -0.308949  -0.524263  0  2.120749  0
O  O332  1  0.49356734  0.73971449  0.54224838  1  -1.188734  0  -0.326191  -0.58676  0  2.379635  0
O  O333  1  0.50642819  0.76028237  0.04224756  1  -1.188761  0  -0.326136  -0.586743  0  2.379843  0
O  O334  1  0.50645461  0.26027521  0.45774906  1  -1.188777  0  -0.326096  -0.586592  0  2.379802  0
O  O335  1  0.49354688  0.23972098  0.95775121  1  -1.188946  0  -0.326106  -0.586497  0  2.379724  0
O  O336  1  0.61406313  0.35245165  0.62797739  1  -1.262669  0  -0.567484  -0.77491  0  2.177084  0
O  O337  1  0.38593462  0.14754997  0.12797637  1  -1.262613  0  -0.567506  -0.774901  0  2.176973  0
O  O338  1  0.38594388  0.64754343  0.37202050  1  -1.262746  0  -0.567514  -0.775038  0  2.177137  0
O  O339  1  0.61405985  0.85245742  0.87202152  1  -1.262622  0  -0.567516  -0.775055  0  2.177113  0
O  O340  1  0.32111236  0.28720946  0.55429838  1  -1.277666  0  -0.58305  -0.773047  0  2.141609  0
O  O341  1  0.67888984  0.21279321  0.05430070  1  -1.277829  0  -0.583008  -0.772866  0  2.141716  0
O  O342  1  0.67889740  0.71279008  0.44569418  1  -1.277705  0  -0.583056  -0.772936  0  2.141701  0
O  O343  1  0.32110944  0.78721073  0.94569807  1  -1.277572  0  -0.583044  -0.773  0  2.141699  0
O  O344  1  0.14548700  0.26845767  0.97222325  1  -1.237048  0  -0.57339  -0.748392  0  2.022171  0
O  O345  1  0.85450830  0.23153759  0.47222811  1  -1.236958  0  -0.573372  -0.748356  0  2.022278  0
O  O346  1  0.85445853  0.73154010  0.02776309  1  -1.237472  0  -0.573346  -0.748163  0  2.022361  0
O  O347  1  0.14554713  0.76846215  0.52776267  1  -1.237688  0  -0.573357  -0.74828  0  2.022325  0
