# generated using pymatgen
data_BaH10C6(N2O3)4
_symmetry_space_group_name_H-M   'P 1'
_cell_length_a   6.44263685
_cell_length_b   9.24587309
_cell_length_c   14.83796123
_cell_angle_alpha   73.82775271
_cell_angle_beta   77.48866766
_cell_angle_gamma   69.60251051
_symmetry_Int_Tables_number   1
_chemical_formula_structural   BaH10C6(N2O3)4
_chemical_formula_sum   'Ba2 H20 C12 N16 O24'
_cell_volume   788.61290361
_cell_formula_units_Z   2
loop_
 _symmetry_equiv_pos_site_id
 _symmetry_equiv_pos_as_xyz
  1  'x, y, z'
loop_
 _atom_site_type_symbol
 _atom_site_label
 _atom_site_symmetry_multiplicity
 _atom_site_fract_x
 _atom_site_fract_y
 _atom_site_fract_z
 _atom_site_occupancy
 _atom_site_hle17_bader_spin_density
 _atom_site_hle17_ddec_charge
 _atom_site_hle17_ddec_spin_density
 _atom_site_hle17_ddec_sum_bond_order
 _atom_site_hle17_magmom
 _atom_site_hse06_10hf_bader_spin_density
 _atom_site_hse06_10hf_ddec_charge
 _atom_site_hse06_10hf_ddec_spin_density
 _atom_site_hse06_10hf_ddec_sum_bond_order
 _atom_site_hse06_10hf_magmom
 _atom_site_hse06_bader_spin_density
 _atom_site_hse06_ddec_charge
 _atom_site_hse06_ddec_spin_density
 _atom_site_hse06_ddec_sum_bond_order
 _atom_site_hse06_magmom
 _atom_site_pbe_bader_spin_density
 _atom_site_pbe_cm5_charge
 _atom_site_pbe_ddec_charge
 _atom_site_pbe_ddec_spin_density
 _atom_site_pbe_ddec_sum_bond_order
 _atom_site_pbe_magmom
Ba  Ba0  1  0.33092248  0.25002597  0.75001098  1  0  1.58581  0  1.11823  0  0  1.416121  0  1.523122  0  0  1.457204  0  1.477943  0  0  0.886292  1.386155  0  1.555102  0
Ba  Ba1  1  0.66907836  0.74997418  0.24998889  1  0  1.585794  0  1.118249  0  0  1.416136  0  1.52312  0  0  1.457205  0  1.477964  0  0  0.886293  1.386176  0  1.555104  0
H  H2  1  0.71725406  0.00379689  0.89814119  1  0  0.42505  0  0.853237  0  0  0.391094  0  0.929549  0  0  0.401293  0  0.914322  0  0  0.30182  0.383389  0  0.941253  0
H  H3  1  0.61923538  0.49613347  0.60203646  1  0  0.424485  0  0.854057  0  0  0.390266  0  0.930921  0  0  0.400542  0  0.91556  0  0  0.301644  0.382969  0  0.941774  0
H  H4  1  0.28274585  0.99620207  0.10185868  1  0  0.425068  0  0.853222  0  0  0.391116  0  0.929518  0  0  0.401314  0  0.914291  0  0  0.301846  0.383411  0  0.941221  0
H  H5  1  0.38076536  0.50386668  0.39796191  1  0  0.424462  0  0.854102  0  0  0.39023  0  0.930961  0  0  0.400507  0  0.915597  0  0  0.301626  0.382937  0  0.941807  0
H  H6  1  0.77508179  0.16315674  0.85225503  1  0  0.423936  0  0.878418  0  0  0.394474  0  0.940532  0  0  0.405234  0  0.924868  0  0  0.293818  0.386709  0  0.951824  0
H  H7  1  0.79067499  0.33668971  0.64789415  1  0  0.423965  0  0.878409  0  0  0.39396  0  0.941358  0  0  0.40486  0  0.925512  0  0  0.29363  0.386325  0  0.952399  0
H  H8  1  0.22491940  0.83684104  0.14774583  1  0  0.423985  0  0.878366  0  0  0.394521  0  0.940481  0  0  0.405282  0  0.924817  0  0  0.293856  0.386756  0  0.951776  0
H  H9  1  0.20932456  0.66331162  0.35210474  1  0  0.423987  0  0.878385  0  0  0.393934  0  0.941385  0  0  0.404836  0  0.925537  0  0  0.293633  0.3863  0  0.952425  0
H  H10  1  0.83161294  0.35644262  0.90390760  1  0  0.407548  0  0.902808  0  0  0.361877  0  0.99231  0  0  0.373374  0  0.975631  0  0  0.288419  0.353583  0  1.004354  0
H  H11  1  0.09192583  0.14352959  0.59605972  1  0  0.406922  0  0.903676  0  0  0.360979  0  0.993661  0  0  0.37253  0  0.976885  0  0  0.287767  0.352774  0  1.005548  0
H  H12  1  0.16839113  0.64355515  0.09609356  1  0  0.407533  0  0.902831  0  0  0.361854  0  0.992356  0  0  0.373352  0  0.975675  0  0  0.288401  0.353559  0  1.004401  0
H  H13  1  0.90807619  0.85646937  0.40393963  1  0  0.406948  0  0.903645  0  0  0.36101  0  0.993623  0  0  0.37256  0  0.976848  0  0  0.287778  0.352804  0  1.00551  0
H  H14  1  0.78930839  0.40915062  0.79659872  1  0  0.426353  0  0.833178  0  0  0.400911  0  0.901432  0  0  0.409782  0  0.891345  0  0  0.316641  0.394504  0  0.908733  0
H  H15  1  0.99523361  0.09075084  0.70335679  1  0  0.427336  0  0.833075  0  0  0.401758  0  0.901441  0  0  0.410631  0  0.891334  0  0  0.316782  0.395579  0  0.908457  0
H  H16  1  0.21069609  0.59084952  0.20340227  1  0  0.426386  0  0.833124  0  0  0.400955  0  0.901352  0  0  0.409825  0  0.891266  0  0  0.316668  0.39455  0  0.908653  0
H  H17  1  0.00476841  0.90924812  0.29664256  1  0  0.42735  0  0.833061  0  0  0.401771  0  0.901426  0  0  0.410643  0  0.891319  0  0  0.316785  0.395592  0  0.908444  0
H  H18  1  0.34120068  0.67258528  0.74475447  1  0  0.128012  0  0.967429  0  0  0.127  0  1.041542  0  0  0.131054  0  1.037436  0  0  0.128173  0.124103  0  1.044348  0
H  H19  1  0.75815746  0.82751921  0.75534721  1  0  0.128116  0  0.965479  0  0  0.127495  0  1.039078  0  0  0.131529  0  1.035087  0  0  0.127969  0.124567  0  1.04212  0
H  H20  1  0.65879635  0.32741722  0.25524628  1  0  0.127999  0  0.967457  0  0  0.126995  0  1.041559  0  0  0.131049  0  1.037451  0  0  0.128153  0.124099  0  1.044365  0
H  H21  1  0.24183803  0.17247976  0.24465071  1  0  0.128108  0  0.965508  0  0  0.127489  0  1.039103  0  0  0.131523  0  1.035112  0  0  0.127967  0.12456  0  1.042146  0
C  C22  1  0.27198550  0.46313502  0.95133431  1  0  0.339654  0  3.769522  0  0  0.280644  0  4.069696  0  0  0.289817  0  4.091427  0  0  0.296553  0.278102  0  4.056167  0
C  C23  1  0.68682025  0.03697090  0.54867316  1  0  0.339885  0  3.77125  0  0  0.286121  0  4.072396  0  0  0.290881  0  4.092128  0  0  0.296746  0.28257  0  4.059333  0
C  C24  1  0.72801754  0.53686512  0.04866653  1  0  0.339706  0  3.76953  0  0  0.280715  0  4.069682  0  0  0.289888  0  4.091415  0  0  0.29662  0.278173  0  4.056153  0
C  C25  1  0.31318234  0.96303162  0.45132520  1  0  0.339885  0  3.771279  0  0  0.286196  0  4.072325  0  0  0.290955  0  4.092055  0  0  0.296828  0.282645  0  4.059259  0
C  C26  1  0.26774253  0.69707928  0.89675158  1  0  0.160986  0  3.739144  0  0  0.119253  0  4.035589  0  0  0.116733  0  4.057784  0  0  0.17967  0.122711  0  4.018379  0
C  C27  1  0.86136965  0.80291348  0.60338559  1  0  0.162184  0  3.736917  0  0  0.122714  0  4.030373  0  0  0.118758  0  4.053416  0  0  0.180405  0.123817  0  4.015848  0
C  C28  1  0.73225840  0.30292086  0.10324978  1  0  0.161129  0  3.739085  0  0  0.119381  0  4.035537  0  0  0.116873  0  4.057721  0  0  0.179725  0.122838  0  4.018325  0
C  C29  1  0.13862965  0.19708667  0.39661263  1  0  0.162199  0  3.736969  0  0  0.122745  0  4.030403  0  0  0.118785  0  4.053447  0  0  0.180417  0.123852  0  4.015878  0
C  C30  1  0.31114393  0.62380149  0.82004606  1  0  0.05877  0  3.613962  0  0  0.013498  0  3.895093  0  0  0.019802  0  3.908355  0  0  0.049428  0.010098  0  3.884498  0
C  C31  1  0.75476550  0.87631214  0.68003581  1  0  0.05746  0  3.611892  0  0  0.011371  0  3.892738  0  0  0.017687  0  3.906407  0  0  0.048728  0.007081  0  3.884023  0
C  C32  1  0.68885505  0.37619984  0.17995500  1  0  0.058684  0  3.613866  0  0  0.013373  0  3.895024  0  0  0.019676  0  3.908282  0  0  0.049391  0.00997  0  3.884436  0
C  C33  1  0.24523576  0.12368683  0.31996272  1  0  0.057482  0  3.611912  0  0  0.011365  0  3.892755  0  0  0.017683  0  3.906419  0  0  0.048709  0.007072  0  3.884043  0
N  N34  1  0.31329461  0.47300032  0.85639323  1  0  -0.438694  0  3.082898  0  0  -0.392339  0  3.367045  0  0  -0.406639  0  3.382328  0  0  -0.37673  -0.381841  0  3.355107  0
N  N35  1  0.64279791  0.02716978  0.64359888  1  0  -0.437229  0  3.082883  0  0  -0.390921  0  3.365875  0  0  -0.405512  0  3.382351  0  0  -0.376379  -0.380655  0  3.354833  0
N  N36  1  0.68670452  0.52700219  0.14360700  1  0  -0.438638  0  3.082812  0  0  -0.392285  0  3.366936  0  0  -0.406585  0  3.382221  0  0  -0.376683  -0.381787  0  3.355003  0
N  N37  1  0.35720200  0.97282918  0.35640099  1  0  -0.437229  0  3.082933  0  0  -0.39097  0  3.36594  0  0  -0.405559  0  3.382414  0  0  -0.376413  -0.380705  0  3.354897  0
N  N38  1  0.24346984  0.59438268  0.98052985  1  0  -0.423914  0  3.063505  0  0  -0.387851  0  3.343882  0  0  -0.39781  0  3.35878  0  0  -0.310849  -0.381209  0  3.332628  0
N  N39  1  0.81855794  0.90563196  0.51955384  1  0  -0.423863  0  3.062528  0  0  -0.388688  0  3.341142  0  0  -0.398514  0  3.35747  0  0  -0.311229  -0.381086  0  3.330239  0
N  N40  1  0.75653161  0.40561628  0.01947168  1  0  -0.424004  0  3.063517  0  0  -0.38796  0  3.343889  0  0  -0.397922  0  3.358786  0  0  -0.310942  -0.381319  0  3.332636  0
N  N41  1  0.18144229  0.09436938  0.48044438  1  0  -0.423857  0  3.062582  0  0  -0.388702  0  3.341167  0  0  -0.398529  0  3.357497  0  0  -0.311247  -0.381101  0  3.330264  0
N  N42  1  0.25659624  0.85486754  0.89195486  1  0  0.4615  0  3.984814  0  0  0.502733  0  4.268281  0  0  0.521748  0  4.278825  0  0  0.052539  0.488115  0  4.261265  0
N  N43  1  0.00337557  0.64512899  0.60826211  1  0  0.461704  0  3.983898  0  0  0.502223  0  4.265295  0  0  0.52367  0  4.275054  0  0  0.051857  0.489663  0  4.258139  0
N  N44  1  0.74340469  0.14513259  0.10804651  1  0  0.461417  0  3.985099  0  0  0.502681  0  4.268537  0  0  0.521681  0  4.279084  0  0  0.052557  0.48807  0  4.261507  0
N  N45  1  0.99662145  0.35486997  0.39173746  1  0  0.461725  0  3.983965  0  0  0.502218  0  4.265382  0  0  0.523673  0  4.275132  0  0  0.051858  0.489644  0  4.258233  0
N  N46  1  0.26269337  0.31868093  0.01661990  1  0  0.422244  0  3.967533  0  0  0.479145  0  4.233253  0  0  0.483999  0  4.266187  0  0  0.051556  0.46476  0  4.228209  0
N  N47  1  0.59827691  0.18142876  0.48334320  1  0  0.421313  0  3.969209  0  0  0.463084  0  4.258563  0  0  0.483132  0  4.26783  0  0  0.051496  0.449821  0  4.252125  0
N  N48  1  0.73730560  0.68132039  0.98338116  1  0  0.42222  0  3.967483  0  0  0.479136  0  4.233185  0  0  0.483986  0  4.266118  0  0  0.051566  0.464751  0  4.228142  0
N  N49  1  0.40172393  0.81857138  0.51665667  1  0  0.42134  0  3.969155  0  0  0.46309  0  4.258501  0  0  0.483137  0  4.26777  0  0  0.051483  0.449826  0  4.252065  0
O  O50  1  0.27680387  0.94083495  0.81020227  1  0  -0.431983  0  1.822091  0  0  -0.403192  0  2.047924  0  0  -0.41907  0  2.044442  0  0  -0.166158  -0.392197  0  2.050633  0
O  O51  1  0.02740048  0.55916321  0.69004867  1  0  -0.432801  0  1.822488  0  0  -0.403475  0  2.047657  0  0  -0.420426  0  2.044175  0  0  -0.16635  -0.392832  0  2.050025  0
O  O52  1  0.72319392  0.05916755  0.18979931  1  0  -0.431884  0  1.822241  0  0  -0.403174  0  2.048089  0  0  -0.419045  0  2.044611  0  0  -0.16616  -0.39218  0  2.050789  0
O  O53  1  0.97259840  0.44083812  0.30995089  1  0  -0.432741  0  1.822503  0  0  -0.403499  0  2.047712  0  0  -0.420454  0  2.044227  0  0  -0.166372  -0.392851  0  2.050084  0
O  O54  1  0.23176177  0.90007636  0.96582055  1  0  -0.323771  0  1.78781  0  0  -0.308541  0  1.994565  0  0  -0.317748  0  1.990684  0  0  -0.103944  -0.301884  0  1.998944  0
O  O55  1  0.09827168  0.59992992  0.53445555  1  0  -0.32379  0  1.78809  0  0  -0.308707  0  1.994762  0  0  -0.318933  0  1.990715  0  0  -0.103259  -0.30238  0  1.997398  0
O  O56  1  0.76824179  0.09992259  0.03418045  1  0  -0.323809  0  1.787811  0  0  -0.308547  0  1.994573  0  0  -0.31775  0  1.9907  0  0  -0.103968  -0.301891  0  1.998949  0
O  O57  1  0.90171876  0.40006432  0.46554374  1  0  -0.323859  0  1.788119  0  0  -0.308701  0  1.994812  0  0  -0.318927  0  1.990765  0  0  -0.103241  -0.302365  0  1.997449  0
O  O58  1  0.23892986  0.31512085  0.10273285  1  0  -0.348866  0  1.801928  0  0  -0.336386  0  2.007487  0  0  -0.342116  0  2.012839  0  0  -0.124766  -0.329097  0  2.009641  0
O  O59  1  0.65723596  0.18495359  0.39724026  1  0  -0.348231  0  1.802764  0  0  -0.330939  0  2.016021  0  0  -0.341782  0  2.014267  0  0  -0.124321  -0.323506  0  2.017345  0
O  O60  1  0.76107319  0.68487929  0.89726800  1  0  -0.34889  0  1.801885  0  0  -0.336356  0  2.007476  0  0  -0.342079  0  2.012821  0  0  -0.124766  -0.329065  0  2.009631  0
O  O61  1  0.34276199  0.81504656  0.60275931  1  0  -0.34832  0  1.802781  0  0  -0.330938  0  2.016063  0  0  -0.341777  0  2.014308  0  0  -0.124311  -0.323505  0  2.01739  0
O  O62  1  0.27880034  0.20302592  0.98439328  1  0  -0.368052  0  1.796552  0  0  -0.35902  0  2.00844  0  0  -0.36552  0  2.011095  0  0  -0.113415  -0.350598  0  2.013453  0
O  O63  1  0.46611065  0.29703305  0.51550386  1  0  -0.367951  0  1.796986  0  0  -0.35391  0  2.016738  0  0  -0.365549  0  2.012001  0  0  -0.113814  -0.346012  0  2.019792  0
O  O64  1  0.72119931  0.79697541  0.01560711  1  0  -0.368023  0  1.796535  0  0  -0.35904  0  2.008414  0  0  -0.365542  0  2.011081  0  0  -0.113423  -0.350619  0  2.01343  0
O  O65  1  0.53388705  0.70296592  0.48449503  1  0  -0.367917  0  1.796922  0  0  -0.353925  0  2.016684  0  0  -0.365562  0  2.011947  0  0  -0.113825  -0.346025  0  2.019739  0
O  O66  1  0.72160858  0.08321114  0.83876545  1  0  -0.871358  0  1.789719  0  0  -0.812956  0  1.97024  0  0  -0.833256  0  1.939913  0  0  -0.619114  -0.798631  0  1.992339  0
O  O67  1  0.64369479  0.41658429  0.66136727  1  0  -0.871503  0  1.790451  0  0  -0.812662  0  1.971454  0  0  -0.832997  0  1.940786  0  0  -0.618593  -0.797816  0  1.992727  0
O  O68  1  0.27839015  0.91678900  0.16123494  1  0  -0.871422  0  1.789662  0  0  -0.813025  0  1.970177  0  0  -0.833323  0  1.939849  0  0  -0.619174  -0.7987  0  1.992276  0
O  O69  1  0.35630476  0.58341704  0.33863162  1  0  -0.871501  0  1.79046  0  0  -0.812584  0  1.971615  0  0  -0.832916  0  1.940947  0  0  -0.618579  -0.797742  0  1.992884  0
O  O70  1  0.87495934  0.32237817  0.84224590  1  0  -0.840312  0  1.876242  0  0  -0.778538  0  2.06942  0  0  -0.799129  0  2.041623  0  0  -0.586868  -0.763701  0  2.089399  0
O  O71  1  0.03966187  0.17753683  0.65774216  1  0  -0.840922  0  1.876912  0  0  -0.778593  0  2.070122  0  0  -0.799262  0  2.042203  0  0  -0.586162  -0.76395  0  2.08956  0
O  O72  1  0.12504345  0.67762079  0.15775428  1  0  -0.840342  0  1.87627  0  0  -0.778586  0  2.069426  0  0  -0.799174  0  2.041626  0  0  -0.586872  -0.763746  0  2.089412  0
O  O73  1  0.96033948  0.82246213  0.34225786  1  0  -0.840962  0  1.87689  0  0  -0.778622  0  2.070093  0  0  -0.799289  0  2.042177  0  0  -0.586167  -0.763981  0  2.089533  0
