# generated using pymatgen
data_AgH7C12O7
_symmetry_space_group_name_H-M   'P 1'
_cell_length_a   5.33653983
_cell_length_b   15.23544748
_cell_length_c   16.97400000
_cell_angle_alpha   65.84008121
_cell_angle_beta   82.66478027
_cell_angle_gamma   86.33771102
_symmetry_Int_Tables_number   1
_chemical_formula_structural   AgH7C12O7
_chemical_formula_sum   'Ag4 H28 C48 O28'
_cell_volume   1248.77149837
_cell_formula_units_Z   4
loop_
 _symmetry_equiv_pos_site_id
 _symmetry_equiv_pos_as_xyz
  1  'x, y, z'
loop_
 _atom_site_type_symbol
 _atom_site_label
 _atom_site_symmetry_multiplicity
 _atom_site_fract_x
 _atom_site_fract_y
 _atom_site_fract_z
 _atom_site_occupancy
 _atom_site_pbe_bader_charge
 _atom_site_pbe_bader_spin_density
 _atom_site_pbe_cm5_charge
 _atom_site_pbe_ddec_charge
 _atom_site_pbe_ddec_spin_density
 _atom_site_pbe_ddec_sum_bond_order
 _atom_site_pbe_magmom
Ag  Ag0  1  0.53372714  0.69990113  0.52056856  1  0.632647  0  0.423016  0.462476  0  1.87796  0
Ag  Ag1  1  0.46626585  0.30009329  0.47943277  1  0.632561  0  0.423031  0.462445  0  1.877979  0
Ag  Ag2  1  0.92379246  0.80615463  0.52606491  1  0.656952  0  0.425114  0.49393  0  1.8331  0
Ag  Ag3  1  0.07621553  0.19384339  0.47392154  1  0.65685  0  0.425111  0.493981  0  1.832932  0
H  H4  1  0.36130617  0.69873133  0.84265479  1  0.668797  0  0.300023  0.355448  0  0.982973  0
H  H5  1  0.63869799  0.30126813  0.15734778  1  0.668754  0  0.300083  0.355506  0  0.982935  0
H  H6  1  0.39361113  0.85992959  0.98355413  1  0.161653  0  0.110153  0.149952  0  1.024558  0
H  H7  1  0.60639289  0.14007418  0.01644450  1  0.161569  0  0.110149  0.149952  0  1.024518  0
H  H8  1  0.70451489  0.99515478  0.92375761  1  0.102995  0  0.121942  0.131499  0  0.957619  0
H  H9  1  0.29548915  0.00484828  0.07624423  1  0.103072  0  0.12199  0.131595  0  0.957577  0
H  H10  1  0.08830377  0.07299613  0.81827546  1  0.135278  0  0.105984  0.114533  0  1.027001  0
H  H11  1  0.91170208  0.92700908  0.18172021  1  0.135335  0  0.106002  0.114546  0  1.026999  0
H  H12  1  0.43387876  0.06637300  0.71033542  1  0.13249  0  0.108596  0.132073  0  1.027958  0
H  H13  1  0.56611951  0.93363293  0.28966029  1  0.132564  0  0.108633  0.132132  0  1.027895  0
H  H14  1  0.82159032  0.96902270  0.57427735  1  0.131443  0  0.118618  0.123373  0  0.990833  0
H  H15  1  0.17841202  0.03097460  0.42572314  1  0.131539  0  0.118624  0.123383  0  0.990768  0
H  H16  1  0.77630063  0.02013701  0.65234176  1  0.081525  0  0.112339  0.106737  0  0.98863  0
H  H17  1  0.22370930  0.97985957  0.34765398  1  0.08144  0  0.112299  0.106718  0  0.988564  0
H  H18  1  0.00907537  0.25352852  0.67785817  1  0.662596  0  0.329238  0.379179  0  0.910169  0
H  H19  1  0.99090251  0.74646590  0.32214141  1  0.662538  0  0.329151  0.379019  0  0.910341  0
H  H20  1  0.88253189  0.28031456  0.98548937  1  0.179058  0  0.108134  0.149307  0  1.045489  0
H  H21  1  0.11747423  0.71968274  0.01451332  1  0.178944  0  0.108149  0.149344  0  1.045397  0
H  H22  1  0.18090628  0.41549874  0.94191715  1  0.083706  0  0.11911  0.120621  0  0.953393  0
H  H23  1  0.81908068  0.58450648  0.05808222  1  0.083879  0  0.119122  0.120737  0  0.953341  0
H  H24  1  0.55790858  0.50635055  0.84525429  1  0.092541  0  0.115047  0.122274  0  0.974802  0
H  H25  1  0.44208979  0.49365250  0.15474247  1  0.09248  0  0.115032  0.122261  0  0.974867  0
H  H26  1  0.91123466  0.52210548  0.73243134  1  0.095254  0  0.117157  0.140473  0  0.990097  0
H  H27  1  0.08876403  0.47788822  0.26756944  1  0.095355  0  0.117118  0.140409  0  0.990118  0
H  H28  1  0.27414342  0.47487235  0.55905110  1  0.145563  0  0.12249  0.135055  0  0.974508  0
H  H29  1  0.72585905  0.52512135  0.44095483  1  0.145537  0  0.122452  0.135008  0  0.974503  0
H  H30  1  0.25628758  0.49447194  0.65640882  1  0.092179  0  0.109902  0.1007  0  0.998255  0
H  H31  1  0.74368841  0.50552248  0.34359614  1  0.092461  0  0.109915  0.100695  0  0.99816  0
C  C32  1  0.18412369  0.76121362  0.73909549  1  1.573536  0  0.242007  0.643018  0  4.084951  0
C  C33  1  0.81589903  0.23879591  0.26089851  1  1.573641  0  0.24209  0.643069  0  4.084973  0
C  C34  1  0.16101934  0.84910208  0.75949559  1  0.070332  0  -0.035123  -0.277217  0  3.982444  0
C  C35  1  0.83899039  0.15090026  0.24050393  1  0.070188  0  -0.035092  -0.277151  0  3.982294  0
C  C36  1  0.96133321  0.85759286  0.81737408  1  0.404073  0  0.100559  0.231569  0  3.992838  0
C  C37  1  0.03868033  0.14240875  0.18262850  1  0.403667  0  0.100588  0.231652  0  3.992931  0
C  C38  1  0.57997487  0.78576581  0.90727167  1  1.31992  0  0.218708  0.536316  0  4.132854  0
C  C39  1  0.42003671  0.21423796  0.09272783  1  1.31981  0  0.218647  0.536268  0  4.13289  0
C  C40  1  0.55558232  0.86182386  0.93672019  1  -0.02574  0  -0.11173  -0.299201  0  3.976447  0
C  C41  1  0.44441983  0.13817919  0.06328055  1  -0.025741  0  -0.111704  -0.299116  0  3.976287  0
C  C42  1  0.72492850  0.93539914  0.90351641  1  -0.015397  0  -0.047439  0.001569  0  3.922397  0
C  C43  1  0.27508312  0.06460319  0.09648244  1  -0.015247  0  -0.047513  0.00137  0  3.922246  0
C  C44  1  0.93126076  0.93669269  0.84093668  1  0.052109  0  -0.027912  -0.035504  0  4.086189  0
C  C45  1  0.06873952  0.06330965  0.15906557  1  0.052288  0  -0.027926  -0.035509  0  4.086157  0
C  C46  1  0.10869031  0.01124191  0.80100003  1  -0.049058  0  -0.07524  -0.063095  0  3.956602  0
C  C47  1  0.89131368  0.98876259  0.19899774  1  -0.049422  0  -0.075283  -0.063188  0  3.9566  0
C  C48  1  0.30464997  0.00632168  0.74131497  1  -0.015976  0  -0.10553  -0.215042  0  3.986119  0
C  C49  1  0.69536156  0.99368353  0.25868636  1  -0.015814  0  -0.105589  -0.215091  0  3.986265  0
C  C50  1  0.33389806  0.92493351  0.72083019  1  0.521237  0  0.101021  0.271305  0  4.030766  0
C  C51  1  0.66610785  0.07507027  0.27917013  1  0.521303  0  0.100944  0.271152  0  4.030976  0
C  C52  1  0.67842932  0.99441232  0.61269733  1  0.389723  0  -0.06363  -0.12894  0  3.858878  0
C  C53  1  0.32157688  0.00558282  0.38730498  1  0.389851  0  -0.063614  -0.128961  0  3.858964  0
C  C54  1  0.52648203  0.07770772  0.55239602  1  1.604579  0  0.207222  0.587088  0  4.168236  0
C  C55  1  0.47353342  0.92229318  0.44760203  1  1.604112  0  0.207222  0.587169  0  4.168156  0
C  C56  1  0.63928449  0.25827536  0.68919694  1  1.530084  0  0.239725  0.629089  0  4.062263  0
C  C57  1  0.36069510  0.74172410  0.31080602  1  1.530566  0  0.239861  0.629244  0  4.062604  0
C  C58  1  0.63137794  0.32213105  0.73685489  1  0.038317  0  -0.038196  -0.286196  0  3.966842  0
C  C59  1  0.36862608  0.67787272  0.26314609  1  0.038383  0  -0.038199  -0.286157  0  3.966762  0
C  C60  1  0.43567912  0.31365898  0.80344886  1  0.461321  0  0.108853  0.251858  0  3.965336  0
C  C61  1  0.56430807  0.68633976  0.19654935  1  0.460773  0  0.108887  0.251825  0  3.965242  0
C  C62  1  0.06952093  0.22400358  0.89474652  1  1.35377  0  0.216991  0.537314  0  4.129313  0
C  C63  1  0.93048120  0.77600019  0.10525631  1  1.353739  0  0.216916  0.5372  0  4.129509  0
C  C64  1  0.04092638  0.29104567  0.93529397  1  -0.029153  0  -0.111162  -0.289917  0  3.98252  0
C  C65  1  0.95907018  0.70895523  0.06470955  1  -0.028929  0  -0.111327  -0.290137  0  3.982498  0
C  C66  1  0.20378053  0.36507707  0.91065382  1  -0.047618  0  -0.057783  -0.01744  0  3.975075  0
C  C67  1  0.79620275  0.63492527  0.08934912  1  -0.048204  0  -0.057648  -0.017407  0  3.974984  0
C  C68  1  0.40804070  0.37890463  0.84382431  1  0.044216  0  -0.029667  -0.041995  0  4.095941  0
C  C69  1  0.59194079  0.62109483  0.15617563  1  0.045113  0  -0.029678  -0.0419  0  4.09596  0
C  C70  1  0.58182623  0.45423389  0.81597803  1  -0.054215  0  -0.066573  -0.054114  0  3.969859  0
C  C71  1  0.41817425  0.54576269  0.18402103  1  -0.054247  0  -0.066657  -0.054279  0  3.970033  0
C  C72  1  0.77936869  0.46333260  0.75225412  1  0.013911  0  -0.105488  -0.221214  0  4.0103  0
C  C73  1  0.22062423  0.53666398  0.24774112  1  0.013655  0  -0.105455  -0.221086  0  4.010059  0
C  C74  1  0.80561753  0.39721787  0.71304610  1  0.527394  0  0.09918  0.267484  0  4.037511  0
C  C75  1  0.19436592  0.60277943  0.28695809  1  0.527688  0  0.099204  0.26736  0  4.037452  0
C  C76  1  0.14472799  0.48629267  0.60972700  1  0.367754  0  -0.063976  -0.125016  0  3.846157  0
C  C77  1  0.85525742  0.51370247  0.39027437  1  0.365761  0  -0.063883  -0.124814  0  3.845947  0
C  C78  1  0.98705493  0.57758622  0.56859976  1  1.593527  0  0.201854  0.576599  0  4.192217  0
C  C79  1  0.01293627  0.42240532  0.43140269  1  1.596167  0  0.20189  0.576491  0  4.192261  0
O  O80  1  0.30426678  0.68524046  0.79417048  1  -1.167779  0  -0.334597  -0.483861  0  2.245455  0
O  O81  1  0.69573527  0.31476547  0.20582744  1  -1.167898  0  -0.334678  -0.48395  0  2.245514  0
O  O82  1  0.09546755  0.75720852  0.67774219  1  -1.122378  0  -0.276007  -0.468875  0  2.203977  0
O  O83  1  0.90457374  0.24281036  0.32224055  1  -1.122383  0  -0.276001  -0.468841  0  2.204249  0
O  O84  1  0.78981618  0.78446579  0.85102644  1  -1.088065  0  -0.121583  -0.211213  0  2.567794  0
O  O85  1  0.21019163  0.21553726  0.14897466  1  -1.087686  0  -0.12156  -0.211204  0  2.56772  0
O  O86  1  0.42936913  0.71896546  0.92646375  1  -1.163903  0  -0.290034  -0.503217  0  2.21314  0
O  O87  1  0.57064244  0.28103831  0.07353516  1  -1.163829  0  -0.289963  -0.503153  0  2.213181  0
O  O88  1  0.52617459  0.91253043  0.66575394  1  -1.068462  0  -0.164927  -0.16249  0  2.572803  0
O  O89  1  0.47382580  0.08746903  0.33424819  1  -1.068468  0  -0.164916  -0.162448  0  2.572784  0
O  O90  1  0.64371461  0.15711115  0.51516931  1  -1.129431  0  -0.333942  -0.514627  0  2.557403  0
O  O91  1  0.35629517  0.84288975  0.48482955  1  -1.129335  0  -0.333905  -0.514637  0  2.557231  0
O  O92  1  0.30132229  0.06376073  0.54587301  1  -1.135136  0  -0.308773  -0.499214  0  2.361715  0
O  O93  1  0.69869897  0.93623585  0.45412698  1  -1.134995  0  -0.308768  -0.499221  0  2.36167  0
O  O94  1  0.44653795  0.23537211  0.66983922  1  -1.118032  0  -0.27383  -0.47953  0  2.173249  0
O  O95  1  0.55343778  0.76463022  0.33016107  1  -1.118068  0  -0.273975  -0.479687  0  2.173429  0
O  O96  1  0.86406528  0.22429999  0.66742931  1  -1.135992  0  -0.319833  -0.471897  0  2.298967  0
O  O97  1  0.13591081  0.77569155  0.33257552  1  -1.136453  0  -0.319743  -0.471729  0  2.299224  0
O  O98  1  0.27234917  0.23917001  0.82900732  1  -1.052824  0  -0.125908  -0.220282  0  2.539958  0
O  O99  1  0.72765122  0.76082944  0.17099304  1  -1.052679  0  -0.125916  -0.220231  0  2.539897  0
O  O100  1  0.93636595  0.15462118  0.91079390  1  -1.148228  0  -0.282001  -0.473699  0  2.130395  0
O  O101  1  0.06363811  0.84538116  0.08920761  1  -1.148279  0  -0.281932  -0.473616  0  2.130426  0
O  O102  1  0.99440651  0.40122441  0.64988877  1  -1.087926  0  -0.168296  -0.180187  0  2.615754  0
O  O103  1  0.00557707  0.59876929  0.35011262  1  -1.088242  0  -0.168326  -0.180154  0  2.615988  0
O  O104  1  0.76142841  0.56818032  0.55747569  1  -1.121704  0  -0.318855  -0.502659  0  2.380142  0
O  O105  1  0.23856269  0.43181411  0.44252159  1  -1.121571  0  -0.318838  -0.502631  0  2.380235  0
O  O106  1  0.09700884  0.65570906  0.55090844  1  -1.143364  0  -0.32498  -0.524245  0  2.513162  0
O  O107  1  0.90298617  0.34428177  0.44909531  1  -1.144191  0  -0.324986  -0.524186  0  2.513152  0
