# generated using pymatgen
data_Cu2MoH16C20(NO)4
_symmetry_space_group_name_H-M   'P 1'
_cell_length_a   9.93389016
_cell_length_b   9.93376184
_cell_length_c   14.30517464
_cell_angle_alpha   98.83961198
_cell_angle_beta   98.83977114
_cell_angle_gamma   116.36985114
_symmetry_Int_Tables_number   1
_chemical_formula_structural   Cu2MoH16C20(NO)4
_chemical_formula_sum   'Cu4 Mo2 H32 C40 N8 O8'
_cell_volume   1209.83366450
_cell_formula_units_Z   2
loop_
 _symmetry_equiv_pos_site_id
 _symmetry_equiv_pos_as_xyz
  1  'x, y, z'
loop_
 _atom_site_type_symbol
 _atom_site_label
 _atom_site_symmetry_multiplicity
 _atom_site_fract_x
 _atom_site_fract_y
 _atom_site_fract_z
 _atom_site_occupancy
 _atom_site_hle17_bader_spin_density
 _atom_site_hle17_ddec_charge
 _atom_site_hle17_ddec_spin_density
 _atom_site_hle17_ddec_sum_bond_order
 _atom_site_hle17_magmom
 _atom_site_hse06_10hf_bader_spin_density
 _atom_site_hse06_10hf_ddec_charge
 _atom_site_hse06_10hf_ddec_spin_density
 _atom_site_hse06_10hf_ddec_sum_bond_order
 _atom_site_hse06_10hf_magmom
 _atom_site_hse06_bader_spin_density
 _atom_site_hse06_ddec_charge
 _atom_site_hse06_ddec_spin_density
 _atom_site_hse06_ddec_sum_bond_order
 _atom_site_hse06_magmom
 _atom_site_pbe_bader_spin_density
 _atom_site_pbe_cm5_charge
 _atom_site_pbe_ddec_charge
 _atom_site_pbe_ddec_spin_density
 _atom_site_pbe_ddec_sum_bond_order
 _atom_site_pbe_magmom
Cu  Cu0  1  0.85536491  0.94014003  0.81316283  1  0  0.465633  0  1.8052  0  0  0.324556  0  2.292363  0  0  0.331939  0  2.244158  0  0  0.505571  0.324346  0  2.321338  0
Cu  Cu1  1  0.94013531  0.85537130  0.31316085  1  0  0.465642  0  1.805105  0  0  0.324541  0  2.292228  0  0  0.331928  0  2.244052  0  0  0.505584  0.324331  0  2.321264  0
Cu  Cu2  1  0.14463812  0.05986330  0.18684062  1  0  0.465622  0  1.805197  0  0  0.32453  0  2.292363  0  0  0.331903  0  2.244169  0  0  0.50555  0.324331  0  2.321322  0
Cu  Cu3  1  0.05986219  0.14462883  0.68683667  1  0  0.46565  0  1.805233  0  0  0.324568  0  2.292383  0  0  0.331931  0  2.244181  0  0  0.505614  0.324402  0  2.321353  0
Mo  Mo4  1  0.77254498  0.22745302  0.75000494  1  0  2.050933  0  4.426103  0  0  2.024192  0  5.036319  0  0  2.123701  0  4.997258  0  0  1.389959  1.957125  0  5.061917  0
Mo  Mo5  1  0.22745846  0.77255073  0.24998952  1  0  2.050949  0  4.426402  0  0  2.024224  0  5.036611  0  0  2.123735  0  4.997553  0  0  1.389995  1.957149  0  5.062219  0
H  H6  1  0.17862214  0.42894001  0.06789532  1  0  0.146388  0  0.982695  0  0  0.157843  0  1.034346  0  0  0.162532  0  1.03123  0  0  0.110044  0.154603  0  1.036493  0
H  H7  1  0.42894446  0.17863371  0.56790427  1  0  0.146389  0  0.982484  0  0  0.157797  0  1.034163  0  0  0.162489  0  1.031044  0  0  0.110027  0.154549  0  1.036317  0
H  H8  1  0.82138048  0.57106232  0.93210446  1  0  0.146421  0  0.982545  0  0  0.157862  0  1.034207  0  0  0.162553  0  1.031088  0  0  0.110038  0.154612  0  1.036357  0
H  H9  1  0.57106001  0.82137667  0.43209878  1  0  0.146467  0  0.982463  0  0  0.157879  0  1.034133  0  0  0.16257  0  1.031013  0  0  0.110058  0.154628  0  1.036282  0
H  H10  1  0.94198755  0.21851315  0.94903481  1  0  0.096985  0  0.9466  0  0  0.105101  0  1.005523  0  0  0.107845  0  1.003495  0  0  0.119846  0.103097  0  1.00697  0
H  H11  1  0.21851393  0.94199331  0.44904716  1  0  0.096878  0  0.946804  0  0  0.105037  0  1.005694  0  0  0.10778  0  1.003669  0  0  0.119839  0.103048  0  1.007129  0
H  H12  1  0.05800773  0.78148682  0.05096662  1  0  0.096956  0  0.946681  0  0  0.105067  0  1.005615  0  0  0.107809  0  1.003588  0  0  0.119833  0.103046  0  1.007079  0
H  H13  1  0.78148749  0.05800663  0.55095360  1  0  0.096902  0  0.946866  0  0  0.105074  0  1.005736  0  0  0.107818  0  1.003711  0  0  0.119858  0.103085  0  1.00717  0
H  H14  1  0.60904951  0.32789628  0.09562533  1  0  0.1066  0  0.939414  0  0  0.122552  0  0.988185  0  0  0.125399  0  0.987617  0  0  0.112909  0.120479  0  0.988847  0
H  H15  1  0.32789665  0.60905052  0.59562518  1  0  0.106569  0  0.939298  0  0  0.12247  0  0.988154  0  0  0.125315  0  0.987586  0  0  0.112878  0.120396  0  0.988817  0
H  H16  1  0.39095024  0.67209418  0.90437760  1  0  0.106551  0  0.939422  0  0  0.122481  0  0.988235  0  0  0.125327  0  0.987669  0  0  0.112885  0.120406  0  0.988896  0
H  H17  1  0.67210978  0.39095373  0.40438297  1  0  0.106511  0  0.939253  0  0  0.122439  0  0.988087  0  0  0.125285  0  0.987518  0  0  0.112871  0.120365  0  0.98875  0
H  H18  1  0.15999219  0.95641204  0.88659263  1  0  0.07548  0  0.921789  0  0  0.088968  0  0.977405  0  0  0.091645  0  0.974666  0  0  0.118255  0.086971  0  0.979604  0
H  H19  1  0.95640872  0.15999009  0.38659125  1  0  0.075388  0  0.921801  0  0  0.08887  0  0.977432  0  0  0.091545  0  0.97469  0  0  0.118238  0.086873  0  0.979625  0
H  H20  1  0.84000588  0.04358542  0.11341163  1  0  0.07543  0  0.92181  0  0  0.088937  0  0.977418  0  0  0.091615  0  0.974677  0  0  0.118272  0.086939  0  0.979616  0
H  H21  1  0.04357398  0.84001505  0.61340231  1  0  0.075446  0  0.921939  0  0  0.088965  0  0.977536  0  0  0.091635  0  0.974801  0  0  0.118292  0.086965  0  0.979733  0
H  H22  1  0.85034606  0.55458055  0.20238591  1  0  0.100274  0  0.947647  0  0  0.10768  0  1.007918  0  0  0.110825  0  1.005149  0  0  0.119386  0.105767  0  1.009305  0
H  H23  1  0.55456465  0.85035627  0.70239469  1  0  0.100263  0  0.94768  0  0  0.107666  0  1.007942  0  0  0.110823  0  1.005169  0  0  0.119334  0.10575  0  1.009332  0
H  H24  1  0.14966796  0.44540761  0.79761354  1  0  0.100125  0  0.947679  0  0  0.107421  0  1.008121  0  0  0.11056  0  1.005362  0  0  0.119296  0.105517  0  1.009515  0
H  H25  1  0.44543403  0.14965889  0.29760755  1  0  0.10031  0  0.947657  0  0  0.107694  0  1.00795  0  0  0.110844  0  1.005178  0  0  0.119374  0.105779  0  1.00934  0
H  H26  1  0.62494667  0.81621499  0.24219928  1  0  0.082671  0  0.932286  0  0  0.091608  0  0.99555  0  0  0.09484  0  0.992106  0  0  0.117768  0.088754  0  0.998948  0
H  H27  1  0.81621949  0.62496541  0.74218868  1  0  0.082699  0  0.932405  0  0  0.09164  0  0.995652  0  0  0.094864  0  0.992219  0  0  0.117836  0.088786  0  0.999053  0
H  H28  1  0.37506450  0.18377561  0.75779873  1  0  0.08265  0  0.932397  0  0  0.091595  0  0.99565  0  0  0.094829  0  0.992198  0  0  0.117751  0.08874  0  0.999052  0
H  H29  1  0.18376461  0.37503407  0.25780019  1  0  0.082633  0  0.93237  0  0  0.091563  0  0.995641  0  0  0.094806  0  0.99219  0  0  0.117756  0.088707  0  0.999043  0
H  H30  1  0.37747610  0.60591953  0.13804212  1  0  0.125738  0  1.000619  0  0  0.132867  0  1.062884  0  0  0.136791  0  1.061166  0  0  0.10891  0.13039  0  1.063751  0
H  H31  1  0.60591957  0.37748718  0.63803156  1  0  0.12575  0  1.000694  0  0  0.132912  0  1.062911  0  0  0.136837  0  1.061189  0  0  0.10892  0.130439  0  1.063778  0
H  H32  1  0.62253227  0.39408018  0.86196223  1  0  0.125792  0  1.000619  0  0  0.132841  0  1.062968  0  0  0.136763  0  1.061253  0  0  0.108905  0.130371  0  1.063829  0
H  H33  1  0.39406402  0.62249749  0.36197228  1  0  0.125757  0  1.000692  0  0  0.132945  0  1.062878  0  0  0.136868  0  1.061157  0  0  0.108968  0.130475  0  1.06374  0
H  H34  1  0.40814838  0.15541297  0.99910858  1  0  0.108167  0  0.936918  0  0  0.123957  0  0.985113  0  0  0.12657  0  0.984403  0  0  0.113427  0.121994  0  0.985907  0
H  H35  1  0.15541428  0.40814418  0.49910607  1  0  0.108287  0  0.937231  0  0  0.12408  0  0.985373  0  0  0.126695  0  0.984662  0  0  0.113479  0.122116  0  0.98617  0
H  H36  1  0.59184934  0.84458960  0.00088716  1  0  0.108298  0  0.936976  0  0  0.124065  0  0.985169  0  0  0.126678  0  0.984459  0  0  0.113494  0.1221  0  0.985965  0
H  H37  1  0.84458241  0.59185012  0.50089066  1  0  0.108317  0  0.937163  0  0  0.124107  0  0.98531  0  0  0.126721  0  0.984601  0  0  0.113488  0.122141  0  0.986106  0
C  C38  1  0.18335439  0.32807796  0.02854017  1  0  -0.153856  0  3.651507  0  0  -0.170291  0  3.895229  0  0  -0.177143  0  3.913227  0  0  -0.07773  -0.166273  0  3.883219  0
C  C39  1  0.32805551  0.18335207  0.52854828  1  0  -0.153881  0  3.651982  0  0  -0.170136  0  3.895585  0  0  -0.176991  0  3.913587  0  0  -0.077668  -0.166111  0  3.883571  0
C  C40  1  0.81665082  0.67193154  0.97145657  1  0  -0.153939  0  3.651655  0  0  -0.170359  0  3.895363  0  0  -0.17721  0  3.913352  0  0  -0.077745  -0.166332  0  3.883348  0
C  C41  1  0.67194536  0.81665499  0.47145116  1  0  -0.154042  0  3.652033  0  0  -0.170319  0  3.895676  0  0  -0.177171  0  3.913672  0  0  -0.077734  -0.166282  0  3.883653  0
C  C42  1  0.46846202  0.44483326  0.10526474  1  0  0.093145  0  3.740079  0  0  0.104199  0  3.974305  0  0  0.108218  0  3.996006  0  0  0.01061  0.10112  0  3.96031  0
C  C43  1  0.44484067  0.46844322  0.60526221  1  0  0.09299  0  3.740535  0  0  0.104269  0  3.974471  0  0  0.108286  0  3.996176  0  0  0.010624  0.101196  0  3.960478  0
C  C44  1  0.53154769  0.55516073  0.89473629  1  0  0.092874  0  3.740309  0  0  0.104076  0  3.974292  0  0  0.108095  0  3.996001  0  0  0.010622  0.101008  0  3.960295  0
C  C45  1  0.55515575  0.53155303  0.39474312  1  0  0.093183  0  3.740364  0  0  0.104382  0  3.974422  0  0  0.108404  0  3.996124  0  0  0.010684  0.101305  0  3.960432  0
C  C46  1  0.04864061  0.21004950  0.96347538  1  0  0.128071  0  3.666284  0  0  0.096859  0  3.9129  0  0  0.103236  0  3.929926  0  0  0.041696  0.092484  0  3.902072  0
C  C47  1  0.21003596  0.04863731  0.46348535  1  0  0.128292  0  3.666211  0  0  0.096948  0  3.912829  0  0  0.103328  0  3.929857  0  0  0.041692  0.092548  0  3.902022  0
C  C48  1  0.95136463  0.78996003  0.03652067  1  0  0.128238  0  3.666076  0  0  0.097004  0  3.912692  0  0  0.103386  0  3.929716  0  0  0.041761  0.092647  0  3.901846  0
C  C49  1  0.78995855  0.95136733  0.53651654  1  0  0.128297  0  3.666485  0  0  0.096936  0  3.913128  0  0  0.103315  0  3.930152  0  0  0.041666  0.092528  0  3.902337  0
C  C50  1  0.60560212  0.43357966  0.12559032  1  0  -0.150651  0  3.703999  0  0  -0.170195  0  3.951626  0  0  -0.177648  0  3.973596  0  0  -0.080131  -0.165408  0  3.937507  0
C  C51  1  0.43357930  0.60558748  0.62558146  1  0  -0.150505  0  3.703515  0  0  -0.170068  0  3.951081  0  0  -0.177522  0  3.97307  0  0  -0.08007  -0.165282  0  3.93696  0
C  C52  1  0.39440740  0.56641413  0.87441486  1  0  -0.150447  0  3.703889  0  0  -0.17001  0  3.951455  0  0  -0.177465  0  3.973429  0  0  -0.080117  -0.165221  0  3.93733  0
C  C53  1  0.56642515  0.39441846  0.37441617  1  0  -0.150378  0  3.703524  0  0  -0.169925  0  3.951092  0  0  -0.177386  0  3.973084  0  0  -0.08003  -0.165138  0  3.936968  0
C  C54  1  0.17011478  0.06369368  0.92761183  1  0  0.107245  0  3.741796  0  0  0.074837  0  3.996845  0  0  0.081547  0  4.012975  0  0  0.036156  0.069753  0  3.987272  0
C  C55  1  0.06368735  0.17011101  0.42762346  1  0  0.107372  0  3.742314  0  0  0.074933  0  3.997402  0  0  0.081663  0  4.013502  0  0  0.036102  0.069864  0  3.98781  0
C  C56  1  0.82988526  0.93630532  0.07238445  1  0  0.107356  0  3.742329  0  0  0.074907  0  3.997382  0  0  0.081615  0  4.013518  0  0  0.036166  0.069827  0  3.987797  0
C  C57  1  0.93629578  0.82988912  0.57237656  1  0  0.107289  0  3.741933  0  0  0.074785  0  3.997098  0  0  0.08153  0  4.013169  0  0  0.036001  0.069717  0  3.987508  0
C  C58  1  0.74168827  0.55889329  0.18489748  1  0  0.123875  0  3.666619  0  0  0.096855  0  3.907543  0  0  0.103049  0  3.925821  0  0  0.041252  0.092597  0  3.895567  0
C  C59  1  0.55888724  0.74169423  0.68488757  1  0  0.12388  0  3.666808  0  0  0.09688  0  3.90771  0  0  0.103049  0  3.926003  0  0  0.041263  0.092607  0  3.895722  0
C  C60  1  0.25832555  0.44109468  0.81510612  1  0  0.124096  0  3.666638  0  0  0.097139  0  3.907665  0  0  0.103329  0  3.92594  0  0  0.041425  0.09286  0  3.895703  0
C  C61  1  0.44111651  0.25831646  0.31510914  1  0  0.123705  0  3.666751  0  0  0.096703  0  3.907689  0  0  0.102885  0  3.925966  0  0  0.041169  0.092428  0  3.895704  0
C  C62  1  0.61824656  0.70746850  0.20669747  1  0  0.115724  0  3.713303  0  0  0.085493  0  3.9634  0  0  0.091536  0  3.982087  0  0  0.040618  0.081544  0  3.95201  0
C  C63  1  0.70746976  0.61825619  0.70670339  1  0  0.115799  0  3.713055  0  0  0.085574  0  3.963206  0  0  0.091614  0  3.98189  0  0  0.040544  0.081602  0  3.951819  0
C  C64  1  0.38176130  0.29252127  0.79329375  1  0  0.11569  0  3.71308  0  0  0.085456  0  3.963203  0  0  0.0915  0  3.981884  0  0  0.04056  0.081502  0  3.951821  0
C  C65  1  0.29252289  0.38174481  0.29330135  1  0  0.115815  0  3.713162  0  0  0.085607  0  3.96331  0  0  0.091634  0  3.981992  0  0  0.040627  0.081637  0  3.95192  0
C  C66  1  0.47880540  0.58766873  0.14741033  1  0  -0.151335  0  3.680067  0  0  -0.169636  0  3.924846  0  0  -0.177744  0  3.947188  0  0  -0.08041  -0.164202  0  3.909704  0
C  C67  1  0.58765863  0.47880258  0.64742327  1  0  -0.151309  0  3.68038  0  0  -0.169728  0  3.92516  0  0  -0.177836  0  3.947497  0  0  -0.080428  -0.164304  0  3.910034  0
C  C68  1  0.52120441  0.41233140  0.85258515  1  0  -0.151333  0  3.680079  0  0  -0.169609  0  3.924829  0  0  -0.17772  0  3.947181  0  0  -0.080427  -0.164185  0  3.909695  0
C  C69  1  0.41233269  0.52118987  0.35258870  1  0  -0.151434  0  3.680414  0  0  -0.16987  0  3.925244  0  0  -0.17798  0  3.947593  0  0  -0.080527  -0.164445  0  3.910117  0
C  C70  1  0.30912134  0.17673056  0.99143915  1  0  -0.144881  0  3.712148  0  0  -0.163884  0  3.962506  0  0  -0.169556  0  3.981398  0  0  -0.079909  -0.160426  0  3.94987  0
C  C71  1  0.17671979  0.30912536  0.49142734  1  0  -0.144878  0  3.712315  0  0  -0.163868  0  3.96268  0  0  -0.169541  0  3.981565  0  0  -0.079809  -0.16041  0  3.950042  0
C  C72  1  0.69087403  0.82327171  0.00856327  1  0  -0.144934  0  3.712196  0  0  -0.163924  0  3.962535  0  0  -0.169591  0  3.981418  0  0  -0.079929  -0.160465  0  3.949897  0
C  C73  1  0.82326317  0.69086413  0.50857420  1  0  -0.144987  0  3.712255  0  0  -0.163961  0  3.962625  0  0  -0.169637  0  3.981514  0  0  -0.079836  -0.160496  0  3.949978  0
C  C74  1  0.32053659  0.31587322  0.04219291  1  0  0.089247  0  3.742497  0  0  0.09619  0  3.983115  0  0  0.101851  0  4.002223  0  0  0.010229  0.093265  0  3.970102  0
C  C75  1  0.31587862  0.32054153  0.54217969  1  0  0.089091  0  3.742951  0  0  0.095897  0  3.983553  0  0  0.101561  0  4.002666  0  0  0.010066  0.092968  0  3.970537  0
C  C76  1  0.67946970  0.68412426  0.95780953  1  0  0.089194  0  3.74271  0  0  0.096136  0  3.983204  0  0  0.101798  0  4.002312  0  0  0.010179  0.093206  0  3.97019  0
C  C77  1  0.68412359  0.67946201  0.45781949  1  0  0.089177  0  3.742962  0  0  0.09603  0  3.983545  0  0  0.10169  0  4.00266  0  0  0.0101  0.093106  0  3.970522  0
N  N78  1  0.04105968  0.08000172  0.91101436  1  0  -0.311676  0  3.478201  0  0  -0.228424  0  3.780906  0  0  -0.239516  0  3.787206  0  0  -0.381198  -0.22211  0  3.776035  0
N  N79  1  0.07997437  0.04105003  0.41102240  1  0  -0.311781  0  3.478063  0  0  -0.228479  0  3.780725  0  0  -0.239586  0  3.787056  0  0  -0.381192  -0.222166  0  3.775858  0
N  N80  1  0.95893755  0.92000639  0.08898827  1  0  -0.311817  0  3.478386  0  0  -0.228536  0  3.78107  0  0  -0.239634  0  3.787386  0  0  -0.381254  -0.222214  0  3.776186  0
N  N81  1  0.92001967  0.95895959  0.58897373  1  0  -0.311765  0  3.477892  0  0  -0.228451  0  3.780598  0  0  -0.239548  0  3.786902  0  0  -0.38116  -0.222147  0  3.775754  0
N  N82  1  0.74951715  0.69535600  0.22607153  1  0  -0.29848  0  3.428332  0  0  -0.213131  0  3.720204  0  0  -0.22622  0  3.730952  0  0  -0.376362  -0.20593  0  3.713973  0
N  N83  1  0.69534171  0.74952986  0.72607219  1  0  -0.298579  0  3.428524  0  0  -0.213261  0  3.720456  0  0  -0.226332  0  3.731181  0  0  -0.376338  -0.206009  0  3.714171  0
N  N84  1  0.25048783  0.30463455  0.77392854  1  0  -0.298505  0  3.42827  0  0  -0.213175  0  3.720157  0  0  -0.226245  0  3.730872  0  0  -0.376361  -0.205969  0  3.713931  0
N  N85  1  0.30465701  0.25047709  0.27392978  1  0  -0.2985  0  3.428474  0  0  -0.213171  0  3.720374  0  0  -0.226236  0  3.731092  0  0  -0.37629  -0.205919  0  3.714092  0
O  O86  1  0.74152444  0.07376700  0.81046481  1  0  -0.91343  0  1.676995  0  0  -0.866025  0  1.986611  0  0  -0.898714  0  1.965049  0  0  -0.622117  -0.84387  0  2.000238  0
O  O87  1  0.07378066  0.74153455  0.31044713  1  0  -0.913339  0  1.677046  0  0  -0.865941  0  1.98664  0  0  -0.898628  0  1.96509  0  0  -0.622029  -0.843787  0  2.000274  0
O  O88  1  0.25847958  0.92623791  0.18952984  1  0  -0.913472  0  1.677075  0  0  -0.866061  0  1.986676  0  0  -0.898748  0  1.965117  0  0  -0.622159  -0.843904  0  2.000305  0
O  O89  1  0.92623425  0.25846998  0.68955366  1  0  -0.913338  0  1.67698  0  0  -0.865931  0  1.986586  0  0  -0.898609  0  1.965024  0  0  -0.622035  -0.843782  0  2.000225  0
O  O90  1  0.82602616  0.40108121  0.83685741  1  0  -0.866408  0  1.456612  0  0  -0.84004  0  1.702202  0  0  -0.873101  0  1.689225  0  0  -0.603817  -0.817485  0  1.710824  0
O  O91  1  0.40107776  0.82601624  0.33684353  1  0  -0.866423  0  1.456502  0  0  -0.840095  0  1.702121  0  0  -0.873158  0  1.689138  0  0  -0.603826  -0.817538  0  1.710744  0
O  O92  1  0.17396334  0.59890926  0.16314712  1  0  -0.866409  0  1.456594  0  0  -0.840073  0  1.702188  0  0  -0.873134  0  1.689215  0  0  -0.603846  -0.817521  0  1.710814  0
O  O93  1  0.59892487  0.17398992  0.66314972  1  0  -0.866453  0  1.456491  0  0  -0.840115  0  1.70212  0  0  -0.873177  0  1.689134  0  0  -0.603837  -0.81756  0  1.710744  0
