# generated using pymatgen
data_Ni3H12(C9O8)2
_symmetry_space_group_name_H-M   'P 1'
_cell_length_a   9.76122805
_cell_length_b   10.92991942
_cell_length_c   10.92985484
_cell_angle_alpha   67.78059160
_cell_angle_beta   63.46745049
_cell_angle_gamma   63.46709735
_symmetry_Int_Tables_number   1
_chemical_formula_structural   Ni3H12(C9O8)2
_chemical_formula_sum   'Ni3 H12 C18 O16'
_cell_volume   909.87350775
_cell_formula_units_Z   1
loop_
 _symmetry_equiv_pos_site_id
 _symmetry_equiv_pos_as_xyz
  1  'x, y, z'
loop_
 _atom_site_type_symbol
 _atom_site_label
 _atom_site_symmetry_multiplicity
 _atom_site_fract_x
 _atom_site_fract_y
 _atom_site_fract_z
 _atom_site_occupancy
 _atom_site_pbe_bader_charge
 _atom_site_pbe_bader_spin_density
 _atom_site_pbe_cm5_charge
 _atom_site_pbe_ddec_charge
 _atom_site_pbe_ddec_spin_density
 _atom_site_pbe_ddec_sum_bond_order
 _atom_site_pbe_magmom
Ni  Ni0  1  0.13873540  0.86814408  0.86817320  1  1.316026  1.085745  0.688845  1.071473  1.237683  2.556484  1.072
Ni  Ni1  1  0.79470073  0.05024746  0.05027484  1  1.323162  1.048954  0.704166  1.072604  1.198409  2.646255  1.034
Ni  Ni2  1  0.11119590  0.05168818  0.05171059  1  1.312921  0.996299  0.707041  1.076458  1.13747  2.6682  0.982
H  H3  1  0.54210381  0.85570622  0.07010931  1  0.132706  0.000174  0.116985  0.131347  -7e-06  0.997582  0.0
H  H4  1  0.54210849  0.07010673  0.85570359  1  0.12977  0.000168  0.116983  0.131344  -7e-06  0.997596  0.0
H  H5  1  0.52537578  0.49059069  0.02107205  1  0.094091  0.000619  0.11018  0.115623  0.000336  0.997379  0.0
H  H6  1  0.96925722  0.01913105  0.48740178  1  0.11403  0.000544  0.106009  0.109226  0.000294  1.009437  0.0
H  H7  1  0.52538522  0.02106062  0.49059157  1  0.093965  0.000619  0.110142  0.115599  0.000336  0.997316  0.0
H  H8  1  0.96925220  0.48739994  0.01912947  1  0.114042  0.000545  0.106029  0.109225  0.000294  1.009448  0.0
H  H9  1  0.52959514  0.09578207  0.22341131  1  0.637528  -0.000433  0.328722  0.404779  -0.000374  0.876243  0.0
H  H10  1  0.14400919  0.22859332  0.10115121  1  0.641422  -0.000417  0.325535  0.402004  -0.000362  0.883188  0.0
H  H11  1  0.52959719  0.22341198  0.09578373  1  0.637542  -0.000435  0.328737  0.404801  -0.000377  0.87621  0.0
H  H12  1  0.14400895  0.10115155  0.22858996  1  0.64145  -0.000416  0.325492  0.401948  -0.000359  0.88318  0.0
H  H13  1  0.20720190  0.66271148  0.78985410  1  0.627427  -0.000414  0.330964  0.40933  -0.000353  0.867346  0.0
H  H14  1  0.20718301  0.78986630  0.66271429  1  0.627461  -0.000417  0.330931  0.409268  -0.000356  0.867458  0.0
C  C15  1  0.60168808  0.74810496  0.05685272  1  -0.019396  0.000897  -0.064581  -0.092024  4.3e-05  3.891666  0.001
C  C16  1  0.60169365  0.05684765  0.74810512  1  -0.019471  0.000894  -0.06464  -0.092039  4.1e-05  3.891808  0.001
C  C17  1  0.51588599  0.68114520  0.04576059  1  0.002119  0.015714  -0.010075  -0.022284  0.009315  3.96498  0.012
C  C18  1  0.76610183  0.04386880  0.67985066  1  0.063211  0.014572  -0.012573  -0.028709  0.008689  3.975076  0.012
C  C19  1  0.51589132  0.04575351  0.68114804  1  0.002191  0.015681  -0.010065  -0.022398  0.009295  3.965031  0.012
C  C20  1  0.76610196  0.67984803  0.04386695  1  0.063265  0.014609  -0.012588  -0.028746  0.008712  3.975078  0.012
C  C21  1  0.59156810  0.54247198  0.03078184  1  0.012949  0.001601  -0.066003  -0.08897  0.000603  3.908407  0.001
C  C22  1  0.84153557  0.02912641  0.54118258  1  -0.102327  0.00174  -0.073826  -0.100749  0.000647  3.935654  0.001
C  C23  1  0.59157770  0.03077417  0.54246975  1  0.012828  0.001601  -0.065959  -0.088916  0.000604  3.908265  0.001
C  C24  1  0.84153506  0.54118055  0.02912509  1  -0.102042  0.00174  -0.073831  -0.100685  0.000646  3.935689  0.001
C  C25  1  0.75299282  0.47078106  0.02711555  1  -0.059853  0.013594  -0.015345  -0.037942  0.008082  3.972928  0.01
C  C26  1  0.75299843  0.02711433  0.47077956  1  -0.059815  0.013624  -0.015405  -0.037962  0.008101  3.973009  0.011
C  C27  1  0.83084851  0.31860662  0.02291204  1  1.577274  -0.000673  0.227778  0.610734  -0.001231  4.14331  -0.002
C  C28  1  0.83085012  0.02291113  0.31860844  1  1.57749  -0.000671  0.22778  0.610664  -0.001226  4.143363  -0.002
C  C29  1  0.34801555  0.76708550  0.03855308  1  1.569831  0.001628  0.226471  0.58572  0.001284  4.154195  0.0
C  C30  1  0.85732921  0.03633572  0.76398942  1  1.566925  0.001802  0.225168  0.598586  0.001358  4.149105  0.0
C  C31  1  0.34802206  0.03854347  0.76708527  1  1.569715  0.001617  0.226531  0.585859  0.001275  4.154102  0.0
C  C32  1  0.85732780  0.76398862  0.03633230  1  1.566656  0.001809  0.225166  0.598563  0.001364  4.149138  0.0
O  O33  1  0.29999236  0.73543919  0.96743956  1  -1.093146  0.070005  -0.29035  -0.510929  0.038354  2.288533  0.063
O  O34  1  0.00870989  0.96503969  0.73203240  1  -1.133113  0.063456  -0.30153  -0.56143  0.034878  2.312818  0.058
O  O35  1  0.30000455  0.96742644  0.73544029  1  -1.093423  0.069967  -0.290401  -0.510963  0.038338  2.288404  0.063
O  O36  1  0.00870861  0.73202879  0.96504026  1  -1.133091  0.063552  -0.301537  -0.561434  0.034928  2.312938  0.058
O  O37  1  0.27375896  0.86933563  0.09910775  1  -1.100079  0.070807  -0.293456  -0.511635  0.03874  2.345515  0.064
O  O38  1  0.77107866  0.09728025  0.86569513  1  -1.100345  0.068183  -0.29032  -0.508488  0.037395  2.342986  0.062
O  O39  1  0.27376452  0.09909882  0.86933664  1  -1.100204  0.070752  -0.29344  -0.511643  0.038711  2.345231  0.064
O  O40  1  0.77107393  0.86569568  0.09727577  1  -1.100415  0.068251  -0.290283  -0.508507  0.037427  2.343217  0.062
O  O41  1  0.74512215  0.25859713  0.02315449  1  -1.131934  0.06195  -0.296295  -0.553116  0.034244  2.360117  0.057
O  O42  1  0.97673965  0.02263477  0.25915680  1  -1.136129  0.059555  -0.298117  -0.556994  0.032939  2.366577  0.055
O  O43  1  0.74512594  0.02314683  0.25860046  1  -1.132004  0.062025  -0.296256  -0.553055  0.034281  2.360269  0.057
O  O44  1  0.97674142  0.25915712  0.02263437  1  -1.136005  0.059472  -0.298133  -0.557037  0.032899  2.366385  0.055
O  O45  1  0.54152537  0.12368061  0.12367820  1  -1.149164  0.034779  -0.528405  -0.660114  0.019557  2.098527  0.03
O  O46  1  0.20745172  0.13019283  0.13018952  1  -1.156361  0.030111  -0.529849  -0.660122  0.016941  2.087927  0.026
O  O47  1  0.26211327  0.73223014  0.73221839  1  -1.129815  0.035739  -0.531445  -0.667131  0.020036  2.053009  0.031
O  O48  1  0.01679925  0.98854788  0.98843762  1  -0.839867  -0.121519  -0.480945  -0.821132  -0.119899  2.386782  -0.104
