# generated using pymatgen
data_CuH6C8N3Cl
_symmetry_space_group_name_H-M   'P 1'
_cell_length_a   3.77830874
_cell_length_b   13.81223508
_cell_length_c   15.27409615
_cell_angle_alpha   90.04438073
_cell_angle_beta   90.08971939
_cell_angle_gamma   94.19768160
_symmetry_Int_Tables_number   1
_chemical_formula_structural   CuH6C8N3Cl
_chemical_formula_sum   'Cu4 H24 C32 N12 Cl4'
_cell_volume   794.96797250
_cell_formula_units_Z   4
loop_
 _symmetry_equiv_pos_site_id
 _symmetry_equiv_pos_as_xyz
  1  'x, y, z'
loop_
 _atom_site_type_symbol
 _atom_site_label
 _atom_site_symmetry_multiplicity
 _atom_site_fract_x
 _atom_site_fract_y
 _atom_site_fract_z
 _atom_site_occupancy
 _atom_site_pbe_cm5_charge
 _atom_site_pbe_ddec_charge
 _atom_site_pbe_ddec_spin_density
 _atom_site_pbe_ddec_sum_bond_order
 _atom_site_pbe_magmom
Cu  Cu0  1  0.66412391  0.42462677  0.60034666  1  0.669438  0.610242  0.647001  2.429193  0.494
Cu  Cu1  1  0.33953597  0.07546670  0.09963221  1  0.652746  0.579304  -0.002907  2.440788  -0.003
Cu  Cu2  1  0.33587994  0.57537810  0.39965122  1  0.66942  0.610223  -0.646999  2.42913  -0.494
Cu  Cu3  1  0.66043381  0.92452868  0.90036697  1  0.652804  0.579283  0.002903  2.441061  0.003
H  H4  1  0.46651219  0.66903227  0.83630637  1  0.095949  0.128255  0.000506  1.03362  0.001
H  H5  1  0.53123962  0.83099593  0.33621846  1  0.096104  0.128712  -0.00149  1.034218  0.0
H  H6  1  0.53348407  0.33097403  0.16369282  1  0.095893  0.128185  -0.000506  1.033752  -0.001
H  H7  1  0.46875876  0.16899732  0.66378138  1  0.096116  0.128732  0.00149  1.0341  0.0
H  H8  1  0.66059210  0.57288420  0.96337476  1  0.103587  0.094204  1.1e-05  1.019835  0.0
H  H9  1  0.33852949  0.92744747  0.46320355  1  0.103556  0.094291  5e-06  1.019895  0.0
H  H10  1  0.33938246  0.42711989  0.03662442  1  0.10362  0.09431  -1.1e-05  1.019869  0.0
H  H11  1  0.66154908  0.07254884  0.53681071  1  0.103601  0.09436  -5e-06  1.020067  0.0
H  H12  1  0.84699078  0.40291102  0.93695289  1  0.104815  0.109107  0.000601  1.015006  0.001
H  H13  1  0.15384930  0.09758534  0.43673967  1  0.104642  0.109283  -5.8e-05  1.015416  0.0
H  H14  1  0.15299206  0.59709453  0.06304171  1  0.104858  0.109139  -0.000601  1.014909  -0.001
H  H15  1  0.84620210  0.90241890  0.56327786  1  0.104664  0.109177  5.8e-05  1.015731  0.0
H  H16  1  0.85576378  0.34196051  0.78242207  1  0.106116  0.085974  0.001018  1.04981  0.002
H  H17  1  0.14615638  0.15842613  0.28220283  1  0.106016  0.086143  -2.7e-05  1.049458  0.0
H  H18  1  0.14425385  0.65804656  0.21757647  1  0.106153  0.085964  -0.001019  1.049844  -0.002
H  H19  1  0.85385085  0.84155988  0.71780421  1  0.106022  0.086153  2.7e-05  1.049348  0.0
H  H20  1  0.25473670  0.74764627  0.69815685  1  0.098737  0.129105  -8.4e-05  1.052706  0.0
H  H21  1  0.74493919  0.75215217  0.19778749  1  0.098535  0.129102  -0.000256  1.052048  0.0
H  H22  1  0.74524209  0.25235347  0.30184234  1  0.098705  0.129036  8.4e-05  1.052682  0.0
H  H23  1  0.25503395  0.24784611  0.80221103  1  0.098555  0.129178  0.000256  1.051987  0.0
H  H24  1  0.13152303  0.74628961  0.51824554  1  0.102168  0.101848  0.000792  1.046209  0.001
H  H25  1  0.86625993  0.75421849  0.01750700  1  0.102365  0.102459  -1.2e-05  1.048187  0.0
H  H26  1  0.86844500  0.25370939  0.48175561  1  0.102185  0.101841  -0.000792  1.046171  -0.001
H  H27  1  0.13377215  0.24578280  0.98248499  1  0.102371  0.102464  1.2e-05  1.048217  0.0
C  C28  1  0.56106041  0.55584566  0.74317635  1  0.123163  0.199654  -0.000446  3.994804  -0.001
C  C29  1  0.43876443  0.94435253  0.24312313  1  0.122429  0.1966  -1.9e-05  4.002668  0.0
C  C30  1  0.43893796  0.44415847  0.25681826  1  0.123149  0.19971  0.000445  3.994835  0.001
C  C31  1  0.56121241  0.05565012  0.75687671  1  0.122442  0.196739  1.9e-05  4.001949  0.0
C  C32  1  0.55542183  0.59645299  0.82718216  1  -0.082276  -0.144984  0.003394  3.898531  0.004
C  C33  1  0.44366112  0.90368671  0.32707216  1  -0.08259  -0.144584  -0.001429  3.901175  -0.002
C  C34  1  0.44457107  0.40355041  0.17281376  1  -0.082212  -0.144859  -0.003393  3.898815  -0.004
C  C35  1  0.55635490  0.09630294  0.67292309  1  -0.082598  -0.144612  0.001429  3.901234  0.002
C  C36  1  0.66219353  0.54225443  0.89763971  1  -0.072085  -0.028635  -0.002282  3.993036  -0.002
C  C37  1  0.33748164  0.95805140  0.39748733  1  -0.072437  -0.029423  4e-06  3.993667  0.0
C  C38  1  0.33780096  0.45774461  0.10235816  1  -0.072188  -0.028865  0.002282  3.993249  0.002
C  C39  1  0.66256777  0.04194484  0.60251513  1  -0.072597  -0.029699  -4e-06  3.993992  0.0
C  C40  1  0.76712202  0.44864289  0.88347560  1  -0.095947  -0.153554  0.004016  3.999402  0.005
C  C41  1  0.23347240  0.05173404  0.38329855  1  -0.095557  -0.153957  -8.9e-05  3.999224  0.0
C  C42  1  0.23287583  0.55135907  0.11652097  1  -0.095968  -0.153601  -0.004016  3.999109  -0.005
C  C43  1  0.76656659  0.94826291  0.61670326  1  -0.095588  -0.153775  8.9e-05  3.998976  0.0
C  C44  1  0.77116045  0.41348931  0.79815012  1  0.042727  0.101188  0.000224  3.948156  -0.001
C  C45  1  0.23024783  0.08686288  0.29797375  1  0.043128  0.101229  -1.3e-05  3.948199  0.0
C  C46  1  0.22885647  0.58651486  0.20184907  1  0.042671  0.101189  -0.000224  3.947997  0.001
C  C47  1  0.76975709  0.91313546  0.70202871  1  0.043185  0.101284  1.3e-05  3.947882  0.0
C  C48  1  0.44736885  0.60345180  0.66526270  1  0.07663  0.092633  0.000368  4.081869  0.001
C  C49  1  0.55179610  0.89643626  0.16533168  1  0.078264  0.092484  -1.3e-05  4.076663  0.0
C  C50  1  0.55262953  0.39655233  0.33473452  1  0.076625  0.092542  -0.000368  4.082073  -0.001
C  C51  1  0.44817406  0.10356057  0.83467470  1  0.078282  0.092537  1.3e-05  4.076343  0.0
C  C52  1  0.30763929  0.69310737  0.64985868  1  -0.116999  -0.232361  -0.001724  3.974053  -0.002
C  C53  1  0.69134027  0.80675095  0.14963658  1  -0.115699  -0.230667  -0.000115  3.972137  0.0
C  C54  1  0.69233774  0.30689600  0.35014181  1  -0.116982  -0.232285  0.001724  3.974012  0.002
C  C55  1  0.30864435  0.19325098  0.85036391  1  -0.115721  -0.230805  0.000116  3.97229  0.0
C  C56  1  0.24652307  0.69358333  0.56000958  1  -0.001771  -0.002167  0.000784  3.972078  0.001
C  C57  1  0.75134980  0.80647806  0.05976026  1  -0.000669  -0.003938  -3e-05  3.963266  0.0
C  C58  1  0.75345114  0.30641931  0.43999222  1  -0.001729  -0.002069  -0.000785  3.97178  -0.001
C  C59  1  0.24865898  0.19352536  0.94023303  1  -0.000697  -0.003912  3.1e-05  3.963465  0.0
N  N60  1  0.46644324  0.55456692  0.58830662  1  -0.270105  -0.210188  0.052416  3.613188  0.068
N  N61  1  0.53208313  0.94501260  0.08822075  1  -0.264052  -0.194999  -0.000194  3.645758  0.0
N  N62  1  0.53356255  0.44543505  0.41169257  1  -0.270091  -0.210163  -0.052423  3.613195  -0.068
N  N63  1  0.46790836  0.05497410  0.91177778  1  -0.264089  -0.194995  0.000195  3.645915  0.0
N  N64  1  0.34377452  0.60900288  0.52461169  1  -0.270916  -0.132437  -0.052115  3.643663  -0.068
N  N65  1  0.65320288  0.89143314  0.02508519  1  -0.267009  -0.121379  0.000226  3.677305  0.0
N  N66  1  0.65621558  0.39099979  0.47539143  1  -0.270995  -0.132518  0.052108  3.643579  0.068
N  N67  1  0.34681294  0.10856667  0.97490418  1  -0.266884  -0.121354  -0.000225  3.677241  0.0
N  N68  1  0.67435914  0.46598056  0.72955988  1  -0.338431  -0.251954  0.05656  3.560451  0.072
N  N69  1  0.32715375  0.03427977  0.22949264  1  -0.335563  -0.247151  -0.000271  3.557153  0.0
N  N70  1  0.32564754  0.53402504  0.27043931  1  -0.338361  -0.251882  -0.056551  3.560348  -0.072
N  N71  1  0.67283582  0.96570984  0.77051243  1  -0.335668  -0.24739  0.000271  3.557006  0.0
Cl  Cl72  1  0.07721749  0.31192155  0.63120052  1  -0.27453  -0.49636  0.070938  1.419205  0.085
Cl  Cl73  1  0.92245788  0.18781703  0.13064692  1  -0.274425  -0.492977  -0.000488  1.423169  -0.001
Cl  Cl74  1  0.92278636  0.68808332  0.36879736  1  -0.274556  -0.496394  -0.070932  1.419251  -0.085
Cl  Cl75  1  0.07753750  0.81217476  0.86935488  1  -0.274452  -0.492974  0.000488  1.423079  0.001
