# generated using pymatgen
data_HgH10C14(SN3)2
_symmetry_space_group_name_H-M   'P 1'
_cell_length_a   7.64537589
_cell_length_b   8.18175461
_cell_length_c   15.28079033
_cell_angle_alpha   92.45893067
_cell_angle_beta   90.02848193
_cell_angle_gamma   117.91623765
_symmetry_Int_Tables_number   1
_chemical_formula_structural   HgH10C14(SN3)2
_chemical_formula_sum   'Hg2 H20 C28 S4 N12'
_cell_volume   843.61614035
_cell_formula_units_Z   2
loop_
 _symmetry_equiv_pos_site_id
 _symmetry_equiv_pos_as_xyz
  1  'x, y, z'
loop_
 _atom_site_type_symbol
 _atom_site_label
 _atom_site_symmetry_multiplicity
 _atom_site_fract_x
 _atom_site_fract_y
 _atom_site_fract_z
 _atom_site_occupancy
 _atom_site_hle17_bader_spin_density
 _atom_site_hle17_ddec_charge
 _atom_site_hle17_ddec_spin_density
 _atom_site_hle17_ddec_sum_bond_order
 _atom_site_hle17_magmom
 _atom_site_hse06_10hf_bader_spin_density
 _atom_site_hse06_10hf_ddec_charge
 _atom_site_hse06_10hf_ddec_spin_density
 _atom_site_hse06_10hf_ddec_sum_bond_order
 _atom_site_hse06_10hf_magmom
 _atom_site_hse06_bader_spin_density
 _atom_site_hse06_ddec_charge
 _atom_site_hse06_ddec_spin_density
 _atom_site_hse06_ddec_sum_bond_order
 _atom_site_hse06_magmom
 _atom_site_pbe_bader_spin_density
 _atom_site_pbe_cm5_charge
 _atom_site_pbe_ddec_charge
 _atom_site_pbe_ddec_spin_density
 _atom_site_pbe_ddec_sum_bond_order
 _atom_site_pbe_magmom
Hg  Hg0  1  0.43238186  0.99975221  0.25019471  1  0  0.610006  0  2.046136  0  0  0.448099  0  2.531198  0  0  0.490347  0  2.507226  0  0  0.516476  0.419732  0  2.546769  0
Hg  Hg1  1  0.56762370  0.00024916  0.74980427  1  0  0.610004  0  2.046144  0  0  0.448111  0  2.531202  0  0  0.49036  0  2.507224  0  0  0.51647  0.419739  0  2.546782  0
H  H2  1  0.38972285  0.33470789  0.38659260  1  0  0.080288  0  0.95139  0  0  0.088664  0  1.015395  0  0  0.090279  0  1.014411  0  0  0.110922  0.087513  0  1.016101  0
H  H3  1  0.05436703  0.66514068  0.11336767  1  0  0.080619  0  0.950858  0  0  0.08919  0  1.014801  0  0  0.090743  0  1.013893  0  0  0.111119  0.088066  0  1.015465  0
H  H4  1  0.61025599  0.66526620  0.61341703  1  0  0.080198  0  0.951427  0  0  0.088727  0  1.015283  0  0  0.090291  0  1.014353  0  0  0.110942  0.087573  0  1.015988  0
H  H5  1  0.94562996  0.33488801  0.88662002  1  0  0.080732  0  0.950761  0  0  0.089297  0  1.014715  0  0  0.090853  0  1.013803  0  0  0.111135  0.088173  0  1.015385  0
H  H6  1  0.12191244  0.37990689  0.46017984  1  0  0.118951  0  0.954822  0  0  0.126529  0  1.01983  0  0  0.129936  0  1.017873  0  0  0.108846  0.124084  0  1.021357  0
H  H7  1  0.74109468  0.62010340  0.03986581  1  0  0.119613  0  0.953825  0  0  0.127022  0  1.018825  0  0  0.130438  0  1.016839  0  0  0.10907  0.12458  0  1.020349  0
H  H8  1  0.87803925  0.62004172  0.53981890  1  0  0.119189  0  0.954425  0  0  0.12661  0  1.01959  0  0  0.130017  0  1.017636  0  0  0.108876  0.124168  0  1.021109  0
H  H9  1  0.25891697  0.37995717  0.96012255  1  0  0.119588  0  0.953869  0  0  0.126995  0  1.018926  0  0  0.130406  0  1.016944  0  0  0.109131  0.124556  0  1.02045  0
H  H10  1  0.71792404  0.80821794  0.38663374  1  0  0.109064  0  0.976599  0  0  0.112544  0  1.047322  0  0  0.116176  0  1.045341  0  0  0.101396  0.109977  0  1.048845  0
H  H11  1  0.91032733  0.19174223  0.11357661  1  0  0.108527  0  0.97688  0  0  0.112134  0  1.047615  0  0  0.115731  0  1.04568  0  0  0.10139  0.109596  0  1.049122  0
H  H12  1  0.28207209  0.19172539  0.61336217  1  0  0.108814  0  0.976572  0  0  0.112245  0  1.047404  0  0  0.115882  0  1.045432  0  0  0.101284  0.109681  0  1.048915  0
H  H13  1  0.08969981  0.80830223  0.88643859  1  0  0.108559  0  0.977061  0  0  0.112165  0  1.047749  0  0  0.115766  0  1.045809  0  0  0.101373  0.109623  0  1.049252  0
H  H14  1  0.00097701  0.78555135  0.31782187  1  0  0.071628  0  0.965925  0  0  0.076896  0  1.037052  0  0  0.078335  0  1.036708  0  0  0.104876  0.075822  0  1.037366  0
H  H15  1  0.21640072  0.21434444  0.18214953  1  0  0.072268  0  0.965778  0  0  0.07734  0  1.037198  0  0  0.078761  0  1.036853  0  0  0.105021  0.07631  0  1.037436  0
H  H16  1  0.99903502  0.21442114  0.68217394  1  0  0.071887  0  0.965885  0  0  0.077094  0  1.037049  0  0  0.078535  0  1.036703  0  0  0.104964  0.076017  0  1.037367  0
H  H17  1  0.78361517  0.78567234  0.81786451  1  0  0.072363  0  0.965829  0  0  0.077444  0  1.037208  0  0  0.078866  0  1.036861  0  0  0.105097  0.076378  0  1.037487  0
H  H18  1  0.77918366  0.24753505  0.51202313  1  0  0.086432  0  0.917804  0  0  0.095342  0  0.98467  0  0  0.099063  0  0.980004  0  0  0.118268  0.092589  0  0.98824  0
H  H19  1  0.53097536  0.75244279  0.98813802  1  0  0.08635  0  0.917122  0  0  0.094855  0  0.984594  0  0  0.098595  0  0.97989  0  0  0.118231  0.09209  0  0.988205  0
H  H20  1  0.22077803  0.75240742  0.48796619  1  0  0.08667  0  0.917733  0  0  0.0954  0  0.984641  0  0  0.09912  0  0.979982  0  0  0.118329  0.09266  0  0.988197  0
H  H21  1  0.46904478  0.24763213  0.01186142  1  0  0.086174  0  0.91698  0  0  0.094742  0  0.984383  0  0  0.098482  0  0.97968  0  0  0.118209  0.091976  0  0.98799  0
C  C22  1  0.23810462  0.22274694  0.38685275  1  0  0.123519  0  3.699279  0  0  0.093983  0  3.950467  0  0  0.100662  0  3.969483  0  0  0.043056  0.089624  0  3.937231  0
C  C23  1  0.01496069  0.77711612  0.11315274  1  0  0.122064  0  3.701242  0  0  0.092009  0  3.952647  0  0  0.098719  0  3.971742  0  0  0.042284  0.087645  0  3.939345  0
C  C24  1  0.76187447  0.77722505  0.61314894  1  0  0.123491  0  3.699313  0  0  0.093843  0  3.950493  0  0  0.100561  0  3.969531  0  0  0.04296  0.089489  0  3.937252  0
C  C25  1  0.98504130  0.22291209  0.88684081  1  0  0.121981  0  3.701411  0  0  0.091922  0  3.952855  0  0  0.09863  0  3.971942  0  0  0.042355  0.087558  0  3.939557  0
C  C26  1  0.08836668  0.24785402  0.42687882  1  0  -0.132986  0  3.67225  0  0  -0.151104  0  3.914023  0  0  -0.158425  0  3.936512  0  0  -0.072174  -0.146007  0  3.898538  0
C  C27  1  0.83995072  0.75207042  0.07320271  1  0  -0.13284  0  3.6732  0  0  -0.150653  0  3.91444  0  0  -0.158009  0  3.936971  0  0  -0.071763  -0.145521  0  3.898893  0
C  C28  1  0.91160662  0.75210119  0.57312413  1  0  -0.133253  0  3.672204  0  0  -0.151224  0  3.914069  0  0  -0.158547  0  3.93654  0  0  -0.072244  -0.146125  0  3.898572  0
C  C29  1  0.16005624  0.24797295  0.92679214  1  0  -0.132557  0  3.673169  0  0  -0.15046  0  3.914408  0  0  -0.157832  0  3.936985  0  0  -0.071679  -0.145324  0  3.898849  0
C  C30  1  0.89625303  0.09844507  0.42717546  1  0  0.082981  0  3.784252  0  0  0.100534  0  4.01118  0  0  0.10164  0  4.035617  0  0  0.007868  0.099944  0  3.994605  0
C  C31  1  0.79757844  0.90151371  0.07299245  1  0  0.081737  0  3.786151  0  0  0.100373  0  4.011732  0  0  0.101508  0  4.03615  0  0  0.007796  0.099761  0  3.99518  0
C  C32  1  0.10371780  0.90150261  0.57281801  1  0  0.083067  0  3.784858  0  0  0.100506  0  4.011631  0  0  0.101623  0  4.036058  0  0  0.007796  0.09991  0  3.995064  0
C  C33  1  0.20243684  0.09853582  0.92701183  1  0  0.081282  0  3.786535  0  0  0.100108  0  4.011951  0  0  0.101239  0  4.036363  0  0  0.007651  0.099501  0  3.995393  0
C  C34  1  0.86327242  0.92892928  0.38648659  1  0  -0.138381  0  3.69646  0  0  -0.154215  0  3.937473  0  0  -0.161068  0  3.959857  0  0  -0.077347  -0.149924  0  3.922663  0
C  C35  1  0.93465409  0.07098652  0.11366636  1  0  -0.136688  0  3.696497  0  0  -0.153421  0  3.937822  0  0  -0.16024  0  3.960133  0  0  -0.077216  -0.149174  0  3.923094  0
C  C36  1  0.13671553  0.07102123  0.61350634  1  0  -0.137959  0  3.696227  0  0  -0.153707  0  3.937142  0  0  -0.160575  0  3.959539  0  0  -0.077147  -0.149413  0  3.92233  0
C  C37  1  0.06536664  0.92905300  0.88634142  1  0  -0.136633  0  3.69687  0  0  -0.153394  0  3.93818  0  0  -0.160217  0  3.960494  0  0  -0.077218  -0.149138  0  3.923433  0
C  C38  1  0.02096311  0.91620145  0.34828593  1  0  0.116706  0  3.72605  0  0  0.088417  0  3.974809  0  0  0.094147  0  3.99506  0  0  0.035876  0.084705  0  3.961059  0
C  C39  1  0.10529012  0.08368096  0.15175389  1  0  0.115478  0  3.726269  0  0  0.087221  0  3.975331  0  0  0.092985  0  3.995537  0  0  0.035526  0.083487  0  3.961592  0
C  C40  1  0.97903742  0.08376634  0.65171624  1  0  0.116348  0  3.726146  0  0  0.088092  0  3.974896  0  0  0.093817  0  3.995155  0  0  0.035789  0.084375  0  3.961156  0
C  C41  1  0.89472222  0.91634179  0.84825516  1  0  0.115478  0  3.726216  0  0  0.087195  0  3.975314  0  0  0.09296  0  3.995518  0  0  0.035542  0.08349  0  3.961592  0
C  C42  1  0.74065275  0.11748224  0.47433644  1  0  0.104539  0  3.644955  0  0  0.068422  0  3.910329  0  0  0.075442  0  3.922468  0  0  0.079027  0.063506  0  3.902238  0
C  C43  1  0.62287393  0.88252000  0.02578951  1  0  0.106131  0  3.643559  0  0  0.070012  0  3.908723  0  0  0.077018  0  3.920853  0  0  0.079749  0.065087  0  3.900655  0
C  C44  1  0.25931434  0.88245272  0.52565977  1  0  0.104196  0  3.645459  0  0  0.068494  0  3.910451  0  0  0.07551  0  3.922596  0  0  0.079238  0.06357  0  3.902371  0
C  C45  1  0.37715308  0.11754514  0.97421083  1  0  0.106651  0  3.643412  0  0  0.070409  0  3.90856  0  0  0.077419  0  3.920687  0  0  0.079874  0.065486  0  3.90049  0
C  C46  1  0.73427743  0.40622439  0.31434330  1  0  0.2226  0  3.947756  0  0  0.214998  0  4.253795  0  0  0.231106  0  4.269382  0  0  0.128909  0.204006  0  4.243299  0
C  C47  1  0.32705028  0.59329288  0.18616847  1  0  0.222732  0  3.948029  0  0  0.215163  0  4.254025  0  0  0.231279  0  4.269585  0  0  0.129051  0.204164  0  4.243541  0
C  C48  1  0.26572770  0.59374999  0.68566308  1  0  0.222767  0  3.948055  0  0  0.215162  0  4.254102  0  0  0.231265  0  4.269679  0  0  0.12893  0.204172  0  4.243607  0
C  C49  1  0.67296320  0.40672692  0.81382604  1  0  0.222809  0  3.947847  0  0  0.215232  0  4.253858  0  0  0.231348  0  4.269413  0  0  0.129167  0.20423  0  4.243381  0
S  S50  1  0.67332995  0.31565370  0.21242329  1  0  -0.201547  0  2.277053  0  0  -0.166301  0  2.629509  0  0  -0.181739  0  2.622315  0  0  -0.085699  -0.156028  0  2.634451  0
S  S51  1  0.35614942  0.68374008  0.28809088  1  0  -0.201119  0  2.277093  0  0  -0.165842  0  2.629554  0  0  -0.181253  0  2.622277  0  0  -0.085181  -0.15558  0  2.634544  0
S  S52  1  0.32668722  0.68435256  0.78758376  1  0  -0.201653  0  2.276787  0  0  -0.166392  0  2.629218  0  0  -0.181828  0  2.622017  0  0  -0.08569  -0.156119  0  2.634159  0
S  S53  1  0.64385504  0.31625648  0.71189939  1  0  -0.201153  0  2.276734  0  0  -0.165864  0  2.629196  0  0  -0.181277  0  2.621917  0  0  -0.085191  -0.155598  0  2.634185  0
N  N54  1  0.20507668  0.05966887  0.34826450  1  0  -0.303601  0  3.249871  0  0  -0.228583  0  3.511755  0  0  -0.248069  0  3.534017  0  0  -0.314507  -0.214949  0  3.495889  0
N  N55  1  0.14550734  0.94011504  0.15174606  1  0  -0.30269  0  3.24982  0  0  -0.227266  0  3.511402  0  0  -0.246747  0  3.533654  0  0  -0.314268  -0.213657  0  3.495568  0
N  N56  1  0.79491823  0.94030860  0.65173807  1  0  -0.303456  0  3.250115  0  0  -0.228491  0  3.512089  0  0  -0.247972  0  3.534334  0  0  -0.314474  -0.214854  0  3.496219  0
N  N57  1  0.85449542  0.05990427  0.84825433  1  0  -0.302891  0  3.249895  0  0  -0.227453  0  3.511513  0  0  -0.246927  0  3.533751  0  0  -0.314489  -0.213844  0  3.495676  0
N  N58  1  0.56243081  0.98085286  0.47367397  1  0  -0.209971  0  3.05254  0  0  -0.177754  0  3.34801  0  0  -0.187587  0  3.365078  0  0  -0.212676  -0.17089  0  3.336157  0
N  N59  1  0.58158932  0.01916259  0.02637409  1  0  -0.210765  0  3.052986  0  0  -0.178569  0  3.348527  0  0  -0.188386  0  3.3656  0  0  -0.213129  -0.171708  0  3.336667  0
N  N60  1  0.43753443  0.01908104  0.52631827  1  0  -0.209809  0  3.052847  0  0  -0.177679  0  3.34815  0  0  -0.187517  0  3.365226  0  0  -0.212705  -0.170815  0  3.336297  0
N  N61  1  0.41844047  0.98091594  0.97363204  1  0  -0.211244  0  3.053267  0  0  -0.179012  0  3.34885  0  0  -0.188835  0  3.365922  0  0  -0.213201  -0.172155  0  3.336997  0
N  N62  1  0.78096888  0.47452823  0.38573749  1  0  -0.435397  0  2.61466  0  0  -0.412613  0  2.844315  0  0  -0.425283  0  2.855065  0  0  -0.335049  -0.40402  0  2.837142  0
N  N63  1  0.30588291  0.52513830  0.11478339  1  0  -0.436206  0  2.615272  0  0  -0.413409  0  2.844706  0  0  -0.42607  0  2.855453  0  0  -0.335818  -0.404819  0  2.837524  0
N  N64  1  0.21904410  0.52544092  0.61428177  1  0  -0.435426  0  2.615183  0  0  -0.412678  0  2.844877  0  0  -0.425338  0  2.855618  0  0  -0.335087  -0.404088  0  2.837707  0
N  N65  1  0.69413640  0.47489318  0.88520441  1  0  -0.436252  0  2.615442  0  0  -0.413457  0  2.844893  0  0  -0.426119  0  2.855643  0  0  -0.335915  -0.404864  0  2.837709  0
