# generated using pymatgen
data_CuH16C14(IO2)4
_symmetry_space_group_name_H-M   'P 1'
_cell_length_a   9.47861985
_cell_length_b   9.59438646
_cell_length_c   13.44859516
_cell_angle_alpha   94.03934357
_cell_angle_beta   89.86443597
_cell_angle_gamma   114.01585965
_symmetry_Int_Tables_number   1
_chemical_formula_structural   CuH16C14(IO2)4
_chemical_formula_sum   'Cu2 H32 C28 I8 O16'
_cell_volume   1113.92168211
_cell_formula_units_Z   2
loop_
 _symmetry_equiv_pos_site_id
 _symmetry_equiv_pos_as_xyz
  1  'x, y, z'
loop_
 _atom_site_type_symbol
 _atom_site_label
 _atom_site_symmetry_multiplicity
 _atom_site_fract_x
 _atom_site_fract_y
 _atom_site_fract_z
 _atom_site_occupancy
 _atom_site_hle17_ddec_charge
 _atom_site_hle17_ddec_spin_density
 _atom_site_hle17_ddec_sum_bond_order
 _atom_site_hle17_magmom
 _atom_site_hse06_10hf_ddec_charge
 _atom_site_hse06_10hf_ddec_spin_density
 _atom_site_hse06_10hf_ddec_sum_bond_order
 _atom_site_hse06_10hf_magmom
 _atom_site_hse06_ddec_charge
 _atom_site_hse06_ddec_spin_density
 _atom_site_hse06_ddec_sum_bond_order
 _atom_site_hse06_magmom
 _atom_site_pbe_cm5_charge
 _atom_site_pbe_ddec_charge
 _atom_site_pbe_ddec_spin_density
 _atom_site_pbe_ddec_sum_bond_order
 _atom_site_pbe_magmom
Cu  Cu0  1  0.60382095  0.09957676  0.23867180  1  0.941427  -0.677832  1.687638  -0.514  0.93816  -0.789033  2.069186  -0.65  1.031062  -0.856352  2.007228  -0.744  0.710025  0.868904  -0.737186  2.126712  -0.585
Cu  Cu1  1  0.39617884  0.90042621  0.76132631  1  0.941408  -0.677846  1.687737  -0.514  0.938096  -0.789039  2.069362  -0.65  1.031041  -0.856356  2.007286  -0.744  0.710023  0.868952  -0.737191  2.126732  -0.585
H  H2  1  0.49304848  0.75443359  0.15965747  1  0.082472  3.4e-05  0.91878  0.0  0.094631  2.5e-05  0.98152  0.0  0.095244  4.7e-05  0.98142  0.0  0.106131  0.094204  -4e-06  0.981583  0.0
H  H3  1  0.50695451  0.24556942  0.84033991  1  0.082541  3e-05  0.91882  0.0  0.094661  2.5e-05  0.981535  0.0  0.095275  4.7e-05  0.981437  0.0  0.106138  0.094232  -4e-06  0.981601  0.0
H  H4  1  0.29546267  0.67623821  0.11527688  1  0.048036  1.4e-05  0.937885  0.0  0.059585  1.3e-05  1.011985  0.0  0.060181  1.1e-05  1.011313  0.0  0.087841  0.058995  9e-06  1.012756  0.0
H  H5  1  0.70454154  0.32376255  0.88472041  1  0.048091  8e-06  0.937932  0.0  0.059601  1.3e-05  1.012009  0.0  0.060198  1.1e-05  1.011338  0.0  0.087844  0.059008  9e-06  1.012777  0.0
H  H6  1  0.31800753  0.53356684  0.25880890  1  0.063901  -6.1e-05  0.97705  0.0  0.072227  -1.3e-05  1.054786  0.0  0.073125  -5e-06  1.054237  0.0  0.086629  0.07144  -2.8e-05  1.055388  0.0
H  H7  1  0.68199590  0.46643732  0.74118929  1  0.063894  -5.8e-05  0.977113  0.0  0.072212  -1.3e-05  1.054856  0.0  0.073102  -5e-06  1.054313  0.0  0.086624  0.071424  -2.8e-05  1.055454  0.0
H  H8  1  0.40601195  0.70997274  0.33390937  1  0.048196  -5.8e-05  0.951924  0.0  0.062284  -8.9e-05  1.022147  0.0  0.062777  -5.9e-05  1.02161  0.0  0.089294  0.061876  -0.000117  1.022643  0.0
H  H9  1  0.59399105  0.29003028  0.66608727  1  0.048184  -5.8e-05  0.951908  0.0  0.062252  -8.9e-05  1.022156  0.0  0.062757  -5.9e-05  1.021607  0.0  0.089302  0.061846  -0.000117  1.022648  0.0
H  H10  1  0.24760838  0.84592264  0.38204367  1  0.057168  1.4e-05  0.922482  0.0  0.074061  1e-05  0.983154  0.0  0.07438  1.5e-05  0.982955  0.0  0.097003  0.073771  -2e-06  0.983444  0.0
H  H11  1  0.75239615  0.15408154  0.61795230  1  0.057124  8e-06  0.922539  0.0  0.074016  1e-05  0.98322  0.0  0.074334  1.5e-05  0.983023  0.0  0.096997  0.073733  -2e-06  0.983507  0.0
H  H12  1  0.05316187  0.76875774  0.33210328  1  0.05873  5e-06  0.978113  0.0  0.069687  -1e-05  1.051575  0.0  0.069375  -5e-06  1.052772  0.0  0.089097  0.069806  -1.9e-05  1.050873  0.0
H  H13  1  0.94684216  0.23124529  0.66789560  1  0.058696  3e-06  0.978095  0.0  0.069657  -1e-05  1.051565  0.0  0.069345  -5e-06  1.052761  0.0  0.089079  0.069779  -1.9e-05  1.050867  0.0
H  H14  1  0.14391318  0.82665729  0.16298120  1  0.044226  -5.6e-05  0.959116  0.0  0.060925  -5.7e-05  1.026564  0.0  0.061862  -3.9e-05  1.02515  0.0  0.085638  0.060086  -7.7e-05  1.027935  0.0
H  H15  1  0.85608663  0.17333772  0.83701505  1  0.044171  -5.7e-05  0.95914  0.0  0.060878  -5.7e-05  1.026609  0.0  0.061813  -3.8e-05  1.025199  0.0  0.085615  0.060047  -7.7e-05  1.027976  0.0
H  H16  1  0.23910690  0.99701103  0.24298334  1  0.077901  8e-06  0.924396  0.0  0.089168  2e-06  0.990938  0.0  0.090127  2.4e-05  0.989802  0.0  0.1039  0.088516  -2.6e-05  0.991729  0.0
H  H17  1  0.76089160  0.00298850  0.75700940  1  0.077827  8e-06  0.92435  0.0  0.089125  2e-06  0.990902  0.0  0.090082  2.4e-05  0.98977  0.0  0.103855  0.088474  -2.6e-05  0.991695  0.0
H  H18  1  0.62461978  0.10718815  0.00792964  1  0.105898  -0.00065  0.94157  -0.002  0.123787  -0.000484  0.999628  -0.001  0.123838  -0.000226  0.999899  -0.001  0.102928  0.123599  -0.00073  0.999485  -0.002
H  H19  1  0.37538546  0.89282059  0.99206952  1  0.105887  -0.000655  0.941549  -0.002  0.123755  -0.000485  0.999639  -0.001  0.123804  -0.000226  0.999916  -0.001  0.102909  0.12357  -0.000731  0.999486  -0.002
H  H20  1  0.72281067  0.98747699  0.97371562  1  0.074019  -0.005178  0.973428  -0.007  0.086586  -0.003425  1.047556  -0.005  0.085389  -0.002093  1.0483  -0.003  0.08167  0.087219  -0.00451  1.047291  -0.006
H  H21  1  0.27719386  0.01252719  0.02627960  1  0.074073  -0.005177  0.973572  -0.007  0.086631  -0.003425  1.047694  -0.005  0.085431  -0.002092  1.04844  -0.003  0.081707  0.087259  -0.00451  1.047429  -0.006
H  H22  1  0.82953417  0.17954023  0.02776208  1  0.046388  0.000313  0.999638  0.0  0.056392  0.000336  1.085366  0.0  0.056173  0.000326  1.085622  0.0  0.071108  0.056306  0.000281  1.085404  0.0
H  H23  1  0.17047225  0.82046626  0.97223920  1  0.046408  0.000312  0.999626  0.0  0.056428  0.000336  1.08531  0.0  0.056205  0.000326  1.085585  0.0  0.071139  0.05634  0.000281  1.085343  0.0
H  H24  1  0.61972992  0.12593630  0.47036962  1  0.094235  -0.000619  0.954691  -0.002  0.112334  -0.000467  1.016322  -0.001  0.112508  -0.000192  1.016363  -0.001  0.097906  0.112026  -0.000735  1.016371  -0.002
H  H25  1  0.38025966  0.87405172  0.52963070  1  0.094226  -0.000619  0.954778  -0.002  0.112386  -0.000467  1.016321  -0.001  0.112559  -0.000192  1.016365  -0.001  0.097951  0.112085  -0.000736  1.016368  -0.002
H  H26  1  0.48128995  0.20276294  0.50583822  1  0.072457  -0.004761  0.968611  -0.007  0.085346  -0.003261  1.04239  -0.005  0.084527  -0.001987  1.042463  -0.003  0.082567  0.085663  -0.004302  1.042645  -0.006
H  H27  1  0.51869277  0.79722383  0.49416423  1  0.072512  -0.004763  0.968701  -0.007  0.085432  -0.003261  1.042457  -0.005  0.084615  -0.001987  1.042529  -0.003  0.082604  0.085759  -0.004302  1.042707  -0.006
H  H28  1  0.66679924  0.32533845  0.46159007  1  0.065073  0.000313  0.971431  0.0  0.075728  0.000335  1.0514  0.0  0.076037  0.000313  1.051209  0.0  0.080936  0.075251  0.000297  1.051745  0.0
H  H29  1  0.33319030  0.67465752  0.53841360  1  0.06502  0.000297  0.971515  0.0  0.075686  0.000334  1.051494  0.0  0.075994  0.000312  1.051305  0.0  0.080911  0.07521  0.000297  1.051837  0.0
H  H30  1  0.78789317  0.01481076  0.15685175  1  0.363542  0.000242  0.93172  0.001  0.341874  -0.000406  0.997119  0.0  0.354366  -9.3e-05  0.98502  0.0  0.290086  0.333113  -0.000674  1.005365  0.0
H  H31  1  0.21210232  0.98518418  0.84314893  1  0.36348  0.000241  0.931925  0.001  0.341865  -0.000406  0.997237  0.0  0.354348  -9.3e-05  0.98515  0.0  0.29007  0.333105  -0.000674  1.005484  0.0
H  H32  1  0.50076506  0.26538525  0.32678590  1  0.364032  0.000383  0.930034  0.001  0.341407  -0.000251  0.996352  0.0  0.353724  4.2e-05  0.984598  0.0  0.29185  0.332785  -0.000515  1.004305  0.0
H  H33  1  0.49922859  0.73461307  0.67321642  1  0.364053  0.000383  0.929964  0.001  0.341431  -0.000251  0.996279  0.0  0.353749  4.2e-05  0.984524  0.0  0.291849  0.332808  -0.000515  1.004237  0.0
C  C34  1  0.51810149  0.33770129  0.17118902  1  0.636144  0.005771  3.940217  0.005  0.589095  0.000982  4.244861  0.001  0.626845  0.001052  4.235473  0.001  0.199912  0.563128  0.000712  4.250201  0.002
C  C35  1  0.48190889  0.66230185  0.82881138  1  0.636342  0.005771  3.93996  0.005  0.589377  0.000982  4.244488  0.001  0.627126  0.001053  4.235102  0.001  0.200081  0.563406  0.000713  4.249832  0.002
C  C36  1  0.50836254  0.42242671  0.08258035  1  -0.06822  -0.013184  3.718533  -0.013  -0.062903  -0.005215  3.962817  -0.006  -0.067149  -0.003056  3.982628  -0.004  -0.021962  -0.060123  -0.007469  3.949761  -0.008
C  C37  1  0.49164357  0.57756840  0.91742114  1  -0.068346  -0.013153  3.718835  -0.013  -0.06306  -0.005216  3.963116  -0.006  -0.067307  -0.003056  3.982935  -0.004  -0.022015  -0.060275  -0.007469  3.950053  -0.008
C  C38  1  0.64493736  0.52197521  0.04035587  1  -0.01768  -0.002562  3.645159  -0.002  -0.005312  -0.001501  3.909278  -0.001  -0.002755  -0.00082  3.930688  -0.001  -0.054698  -0.00723  -0.002298  3.895149  -0.002
C  C39  1  0.35506949  0.47802673  0.95963703  1  -0.017569  -0.002602  3.645169  -0.002  -0.005205  -0.0015  3.909279  -0.001  -0.002653  -0.000819  3.930702  -0.001  -0.054664  -0.007126  -0.002298  3.895156  -0.002
C  C40  1  0.63680410  0.60029123  0.95764114  1  -0.025608  -0.001134  3.640246  -0.001  -0.012614  -0.001249  3.901662  -0.001  -0.010904  -0.000713  3.924113  -0.001  -0.054911  -0.014043  -0.001826  3.886909  -0.001
C  C41  1  0.36319696  0.39970948  0.04235315  1  -0.025633  -0.001094  3.640032  -0.001  -0.012636  -0.00125  3.901446  -0.001  -0.010925  -0.000714  3.923894  -0.001  -0.054888  -0.014068  -0.001827  3.886702  -0.001
C  C42  1  0.84172366  0.01709211  0.31897951  1  0.641913  0.006201  3.93868  0.006  0.59749  0.000895  4.244382  0.001  0.635742  0.000939  4.234517  0.001  0.199474  0.570991  0.000639  4.25025  0.002
C  C43  1  0.15826744  0.98289707  0.68102087  1  0.642198  0.006199  3.938613  0.006  0.597675  0.000893  4.244422  0.001  0.635951  0.000937  4.23455  0.001  0.199498  0.571167  0.000637  4.250279  0.002
C  C44  1  0.92212621  0.00758646  0.41362351  1  -0.064922  -0.018095  3.718265  -0.018  -0.061595  -0.005821  3.964069  -0.006  -0.066185  -0.003281  3.984002  -0.004  -0.024597  -0.05826  -0.008596  3.95063  -0.009
C  C45  1  0.07786423  0.99241180  0.58638102  1  -0.065264  -0.018107  3.718805  -0.018  -0.061838  -0.00582  3.964567  -0.006  -0.066492  -0.003281  3.98458  -0.004  -0.024669  -0.058412  -0.008596  3.951002  -0.009
C  C46  1  0.88870818  0.86530376  0.45181147  1  -0.033721  -0.00014  3.654187  0.0  -0.019639  -0.001315  3.916494  -0.001  -0.017714  -0.000708  3.938369  -0.001  -0.060466  -0.021254  -0.001962  3.902033  -0.002
C  C47  1  0.11129054  0.13468896  0.54819656  1  -0.033475  -0.000123  3.654149  0.0  -0.019445  -0.001314  3.916456  -0.001  -0.017502  -0.000708  3.938351  -0.001  -0.060398  -0.02109  -0.001961  3.901974  -0.002
C  C48  1  0.03196869  0.14283023  0.46221406  1  -0.02895  -0.004308  3.646565  -0.004  -0.017571  -0.001636  3.913156  -0.001  -0.015744  -0.000864  3.935543  -0.001  -0.062187  -0.018931  -0.002599  3.898111  -0.002
C  C49  1  0.96803402  0.85716710  0.53779198  1  -0.028733  -0.004297  3.646828  -0.004  -0.017385  -0.001635  3.913365  -0.001  -0.01554  -0.000862  3.935772  -0.001  -0.062121  -0.018779  -0.002597  3.89831  -0.002
C  C50  1  0.37498379  0.73749024  0.17913860  1  0.055026  0.000208  3.632898  0.0  -0.002672  0.000226  3.904597  0.0  0.003946  0.000249  3.910074  0.0  -0.082251  -0.007068  0.000169  3.900075  0.0
C  C51  1  0.62501814  0.26251276  0.82085803  1  0.054732  0.000226  3.633249  0.0  -0.002739  0.000226  3.904675  0.0  0.003869  0.000248  3.91017  0.0  -0.082261  -0.007127  0.000169  3.900156  0.0
C  C52  1  0.32383832  0.65001698  0.27114582  1  0.027512  -6e-05  3.673411  0.0  -0.033607  -6.5e-05  3.938626  0.0  -0.027595  -4.5e-05  3.944248  0.0  -0.094763  -0.037638  -0.0001  3.934702  0.0
C  C53  1  0.67616312  0.34998487  0.72885299  1  0.027556  -6.9e-05  3.673457  0.0  -0.033602  -6.5e-05  3.938673  0.0  -0.027593  -4.4e-05  3.944294  0.0  -0.094789  -0.037635  -0.000101  3.934746  0.0
C  C54  1  0.17238197  0.78622214  0.31617055  1  0.046836  -2.7e-05  3.643098  0.0  -0.012834  -2e-06  3.907677  0.0  -0.00669  0.0  3.914025  0.0  -0.08597  -0.01701  -1.8e-05  3.903286  0.0
C  C55  1  0.82762057  0.21377973  0.68382604  1  0.046971  -1.3e-05  3.643046  0.0  -0.012697  -1e-06  3.907691  0.0  -0.006556  1e-06  3.914038  0.0  -0.085879  -0.01688  -1.8e-05  3.903309  0.0
C  C56  1  0.22710913  0.87910930  0.22625085  1  0.052429  0.000143  3.634337  0.0  -0.005236  6.7e-05  3.900843  0.0  0.001765  0.000113  3.90513  0.0  -0.082118  -0.009894  -2e-06  3.897112  0.0
C  C57  1  0.77289341  0.12089257  0.77374573  1  0.052505  0.000145  3.634185  0.0  -0.005225  6.7e-05  3.900827  0.0  0.001773  0.000112  3.905121  0.0  -0.082126  -0.009899  -2e-06  3.897138  0.0
C  C58  1  0.71995457  0.07747993  0.02781287  1  -0.021566  -0.000679  3.618924  0.0  -0.111607  -0.002744  3.882422  -0.002  -0.102151  -0.001473  3.887441  -0.001  -0.162465  -0.117704  -0.004007  3.87864  -0.003
C  C59  1  0.28004701  0.92252761  0.97218769  1  -0.02163  -0.000673  3.618987  0.0  -0.111638  -0.002745  3.882512  -0.002  -0.102188  -0.001473  3.887525  -0.001  -0.162526  -0.117727  -0.004008  3.878733  -0.003
C  C60  1  0.57353342  0.20957607  0.45408799  1  -0.028034  -4.2e-05  3.62376  0.0  -0.117395  -0.002249  3.885705  -0.002  -0.108391  -0.001093  3.890753  -0.001  -0.159315  -0.12317  -0.003447  3.881973  -0.002
C  C61  1  0.42645583  0.79041649  0.54591478  1  -0.028085  -1e-05  3.624363  0.001  -0.117552  -0.002249  3.886313  -0.002  -0.108543  -0.001093  3.891354  -0.001  -0.159402  -0.123338  -0.003448  3.882593  -0.002
I  I62  1  0.85819957  0.54678128  0.10277181  1  0.035765  -0.002659  1.485449  -0.002  0.005444  -0.000202  1.821863  -0.001  0.005716  0.000257  1.807235  0.0  0.125155  0.005478  -0.001225  1.832169  -0.001
I  I63  1  0.14181212  0.45321960  0.89722180  1  0.035775  -0.002656  1.485377  -0.002  0.005452  -0.000202  1.821795  -0.001  0.005726  0.000258  1.80717  0.0  0.12516  0.005479  -0.001225  1.832109  -0.001
I  I64  1  0.83539255  0.75151954  0.88952723  1  0.083308  -0.003388  1.487101  -0.003  0.06576  -0.000976  1.810765  -0.001  0.065283  -0.000347  1.798065  0.0  0.149666  0.066139  -0.002031  1.81993  -0.002
I  I65  1  0.16461228  0.24848009  0.11046852  1  0.083268  -0.003389  1.487066  -0.003  0.065704  -0.000976  1.810749  -0.001  0.065224  -0.000346  1.79805  0.0  0.14964  0.066083  -0.002032  1.819918  -0.002
I  I66  1  0.72160122  0.66778255  0.37509568  1  0.064792  -0.004229  1.534008  -0.003  0.043144  -0.001069  1.863473  -0.001  0.042351  -0.000377  1.850819  0.0  0.132961  0.044057  -0.002317  1.872436  -0.002
I  I67  1  0.27840336  0.33221140  0.62490649  1  0.064798  -0.004228  1.533972  -0.003  0.043177  -0.001068  1.863424  -0.001  0.042383  -0.000377  1.850772  0.0  0.132993  0.044095  -0.002317  1.872385  -0.002
I  I68  1  0.06854089  0.35373691  0.40534307  1  0.046418  -0.006733  1.532606  -0.006  0.011914  -0.000526  1.867025  -0.001  0.011932  9.8e-05  1.853662  0.0  0.120608  0.012621  -0.001913  1.876129  -0.002
I  I69  1  0.93146292  0.64626044  0.59466000  1  0.046409  -0.006729  1.532723  -0.006  0.011918  -0.000526  1.867132  -0.001  0.011934  9.8e-05  1.85377  0.0  0.120626  0.012623  -0.001913  1.87625  -0.002
O  O70  1  0.53992442  0.21650189  0.14810596  1  -0.590616  -0.070141  2.12745  -0.097  -0.565622  -0.043951  2.421145  -0.067  -0.607431  -0.031594  2.41131  -0.053  -0.314422  -0.535605  -0.051716  2.427195  -0.074
O  O71  1  0.46009076  0.78351611  0.85189890  1  -0.59076  -0.070183  2.127187  -0.097  -0.565824  -0.04397  2.420892  -0.067  -0.607656  -0.031605  2.411051  -0.053  -0.314575  -0.535822  -0.051747  2.426926  -0.074
O  O72  1  0.50414919  0.38989416  0.25767096  1  -0.574133  0.001496  2.035474  0.0  -0.515002  0.001013  2.258076  0.0  -0.540865  0.001544  2.249665  0.001  -0.299128  -0.497108  0.000283  2.263457  0.0
O  O73  1  0.49584944  0.61011674  0.74233421  1  -0.574183  0.001498  2.035806  0.0  -0.515079  0.001015  2.258374  0.0  -0.540934  0.001544  2.249955  0.001  -0.299125  -0.497195  0.000285  2.263764  0.0
O  O74  1  0.71365736  0.03069142  0.33305221  1  -0.606022  -0.079057  2.11428  -0.11  -0.585532  -0.048493  2.410951  -0.074  -0.628204  -0.034327  2.398744  -0.058  -0.323431  -0.554922  -0.057497  2.418741  -0.083
O  O75  1  0.28633175  0.96930910  0.66695986  1  -0.606083  -0.079009  2.114755  -0.11  -0.585547  -0.048473  2.411476  -0.074  -0.628218  -0.034313  2.399239  -0.058  -0.323377  -0.554978  -0.057466  2.419276  -0.083
O  O76  1  0.90429989  0.01229096  0.23677503  1  -0.574532  0.001104  1.990256  0.0  -0.525617  0.000959  2.209722  0.0  -0.551147  0.001526  2.20082  0.001  -0.306168  -0.507903  0.00013  2.215515  -0.001
O  O77  1  0.09568313  0.98769696  0.76323863  1  -0.5747  0.001095  1.989695  0.0  -0.525783  0.000957  2.209208  0.0  -0.551314  0.001526  2.2003  0.001  -0.306252  -0.508071  0.000125  2.215017  -0.001
O  O78  1  0.37641825  0.88791593  0.19670988  1  -0.336731  0.001653  2.321625  0.0  -0.271192  0.001536  2.593037  0.001  -0.290945  0.001762  2.592548  0.001  -0.239282  -0.255801  0.001261  2.592338  0.0
O  O79  1  0.62358382  0.11208480  0.80328739  1  -0.336556  0.001654  2.321621  0.0  -0.271081  0.001536  2.593005  0.001  -0.290841  0.001762  2.59252  0.001  -0.239199  -0.255707  0.001262  2.592302  0.0
O  O80  1  0.17146469  0.63643603  0.29691757  1  -0.304266  -0.000148  2.229928  0.0  -0.221891  -8.9e-05  2.473483  0.0  -0.238983  -3.8e-05  2.474236  0.0  -0.238992  -0.209607  -0.000174  2.472592  0.0
O  O81  1  0.82853948  0.36356473  0.70308121  1  -0.304262  -0.000144  2.229866  0.0  -0.221884  -8.9e-05  2.473448  0.0  -0.238966  -3.9e-05  2.474196  0.0  -0.239021  -0.209596  -0.000174  2.472552  0.0
O  O82  1  0.69177559  0.01860421  0.12480361  1  -0.513769  -0.061744  2.264258  -0.086  -0.456173  -0.04588  2.528668  -0.07  -0.489577  -0.034327  2.516809  -0.057  -0.408238  -0.432739  -0.052741  2.536567  -0.075
O  O83  1  0.30821856  0.98139525  0.87519579  1  -0.513737  -0.061752  2.264402  -0.086  -0.456167  -0.045884  2.528777  -0.07  -0.489574  -0.034329  2.516927  -0.057  -0.408253  -0.43275  -0.052747  2.536678  -0.075
O  O84  1  0.50819023  0.17155772  0.35395422  1  -0.509154  -0.060388  2.226119  -0.084  -0.453085  -0.04592  2.489236  -0.07  -0.485897  -0.034208  2.477094  -0.057  -0.407083  -0.430038  -0.052917  2.497364  -0.075
O  O85  1  0.49180003  0.82843713  0.64604122  1  -0.509051  -0.060382  2.226234  -0.084  -0.452959  -0.045915  2.48935  -0.07  -0.485779  -0.034204  2.477206  -0.057  -0.407013  -0.429936  -0.052908  2.497485  -0.075
