# generated using pymatgen
data_CuH18C18(N2O3)2
_symmetry_space_group_name_H-M   'P 1'
_cell_length_a   9.63648446
_cell_length_b   10.13377293
_cell_length_c   11.56291621
_cell_angle_alpha   84.68418041
_cell_angle_beta   67.10935571
_cell_angle_gamma   61.90371286
_symmetry_Int_Tables_number   1
_chemical_formula_structural   CuH18C18(N2O3)2
_chemical_formula_sum   'Cu2 H36 C36 N8 O12'
_cell_volume   911.94361094
_cell_formula_units_Z   2
loop_
 _symmetry_equiv_pos_site_id
 _symmetry_equiv_pos_as_xyz
  1  'x, y, z'
loop_
 _atom_site_type_symbol
 _atom_site_label
 _atom_site_symmetry_multiplicity
 _atom_site_fract_x
 _atom_site_fract_y
 _atom_site_fract_z
 _atom_site_occupancy
 _atom_site_pbe_cm5_charge
 _atom_site_pbe_ddec_charge
 _atom_site_pbe_ddec_spin_density
 _atom_site_pbe_ddec_sum_bond_order
 _atom_site_pbe_magmom
Cu  Cu0  1  0.80355124  0.33532903  0.72227170  1  0.726827  0.861718  -0.753055  2.186234  -0.599
Cu  Cu1  1  0.19644985  0.66467482  0.27772554  1  0.726783  0.861607  -0.753047  2.186342  -0.599
H  H2  1  0.99147868  0.36310029  0.46109099  1  0.281512  0.377586  0.000108  0.962044  0.0
H  H3  1  0.00852813  0.63690128  0.53890546  1  0.281504  0.377595  0.000108  0.962062  0.0
H  H4  1  0.83975515  0.50313734  0.55414799  1  0.275327  0.356208  0.000172  0.99999  0.0
H  H5  1  0.16025279  0.49686422  0.44584810  1  0.275336  0.356236  0.000172  0.999937  0.0
H  H6  1  0.70122906  0.62502113  0.00406736  1  0.107801  0.117808  -0.00029  1.012418  0.0
H  H7  1  0.29877160  0.37497937  0.99592595  1  0.107804  0.117821  -0.00029  1.012393  0.0
H  H8  1  0.79855932  0.89344994  0.70378458  1  0.105653  0.109659  -0.000421  1.025893  0.0
H  H9  1  0.20144682  0.10655500  0.29621356  1  0.10568  0.109718  -0.000421  1.025837  0.0
H  H10  1  0.66174867  0.05314731  0.08303833  1  0.104608  0.110174  3.1e-05  1.014117  0.0
H  H11  1  0.33825260  0.94684980  0.91696369  1  0.104613  0.11016  3.1e-05  1.014122  0.0
H  H12  1  0.49638002  0.89050603  0.25380087  1  0.121086  0.113055  -0.000159  0.995481  0.0
H  H13  1  0.50362361  0.10948884  0.74619538  1  0.121085  0.11304  -0.000158  0.995464  0.0
H  H14  1  0.64601510  0.69796900  0.21256563  1  0.122961  0.11215  -9.9e-05  0.999613  0.0
H  H15  1  0.35398568  0.30202701  0.78743144  1  0.122963  0.112175  -9.9e-05  0.999566  0.0
H  H16  1  0.42596726  0.12992360  0.35103646  1  0.104525  0.118324  -0.000213  1.052509  0.0
H  H17  1  0.57402515  0.87006682  0.64897236  1  0.104587  0.118358  -0.000213  1.052549  0.0
H  H18  1  0.42476640  0.30311527  0.48774007  1  0.107225  0.111732  2.7e-05  0.996669  0.0
H  H19  1  0.57522369  0.69687742  0.51226845  1  0.107198  0.111781  2.7e-05  0.996582  0.0
H  H20  1  0.67006242  0.22988574  0.54928487  1  0.107104  0.118893  0.000105  1.020368  0.0
H  H21  1  0.32992981  0.77011143  0.45072003  1  0.107134  0.118947  0.000105  1.020354  0.0
H  H22  1  0.93368955  0.98227540  0.46323940  1  0.112546  0.127941  -0.000113  1.019621  0.0
H  H23  1  0.06630774  0.01772287  0.53676208  1  0.112558  0.127941  -0.000113  1.019672  0.0
H  H24  1  0.44680196  0.57632643  0.88991377  1  0.137012  0.090042  -0.001449  0.989271  -0.002
H  H25  1  0.55319858  0.42367629  0.11008806  1  0.136977  0.089995  -0.00145  0.989306  -0.002
H  H26  1  0.37566066  0.50017984  0.62358200  1  0.111439  0.134096  -0.000369  1.00179  0.0
H  H27  1  0.62433827  0.49981952  0.37642233  1  0.11146  0.134129  -0.000369  1.001815  0.0
H  H28  1  0.18760429  0.67790125  0.66180266  1  0.105515  0.130727  9.5e-05  1.008419  0.0
H  H29  1  0.81239524  0.32209698  0.33820157  1  0.105523  0.130743  9.5e-05  1.008477  0.0
H  H30  1  0.17190299  0.51877177  0.73050144  1  0.10033  0.110004  8.8e-05  1.022944  0.0
H  H31  1  0.82809993  0.48122644  0.26950343  1  0.100345  0.110037  8.8e-05  1.022871  0.0
H  H32  1  0.03453863  0.69521112  0.94228518  1  0.097092  0.110507  3.6e-05  1.026916  0.0
H  H33  1  0.96546193  0.30479161  0.05771405  1  0.097105  0.110506  3.6e-05  1.026929  0.0
H  H34  1  0.09164117  0.83203478  0.86159572  1  0.099873  0.118397  1e-06  0.988168  0.0
H  H35  1  0.90836112  0.16796683  0.13840218  1  0.099893  0.118416  1e-06  0.988164  0.0
H  H36  1  0.17649505  0.73764966  0.97651941  1  0.108493  0.140466  9e-06  1.046451  0.0
H  H37  1  0.82350257  0.26235646  0.02348136  1  0.108472  0.140426  9e-06  1.046412  0.0
C  C38  1  0.67980682  0.83417501  0.06010145  1  -0.012895  0.078138  -0.000425  4.001968  -0.001
C  C39  1  0.32019208  0.16582661  0.93989839  1  -0.012921  0.078005  -0.000425  4.001989  -0.001
C  C40  1  0.71035827  0.72663587  0.97370044  1  -0.073771  -0.121033  0.000694  3.907109  0.0
C  C41  1  0.28963883  0.27336913  0.02629971  1  -0.073697  -0.120896  0.000694  3.90708  0.0
C  C42  1  0.75078523  0.74816413  0.84560827  1  -0.017242  -0.032024  -0.005438  3.980355  -0.006
C  C43  1  0.24921533  0.25183860  0.15439009  1  -0.017247  -0.032063  -0.005439  3.980433  -0.006
C  C44  1  0.76405932  0.87722380  0.80359850  1  -0.078106  -0.119862  -0.000384  3.94268  -0.001
C  C45  1  0.23594238  0.12277892  0.19639950  1  -0.078186  -0.119985  -0.000384  3.942659  -0.001
C  C46  1  0.73135664  0.98660604  0.89015503  1  -0.017466  -0.024683  -0.005796  3.986391  -0.007
C  C47  1  0.26864392  0.01339670  0.10984247  1  -0.017425  -0.024634  -0.005796  3.98634  -0.007
C  C48  1  0.68863629  0.96479764  0.01795577  1  -0.076263  -0.131382  0.000189  3.923143  0.0
C  C49  1  0.31136029  0.03520625  0.98204204  1  -0.076307  -0.131355  0.000189  3.923108  0.0
C  C50  1  0.63110994  0.81141000  0.19822515  1  -0.03791  -0.130618  -0.000631  3.878906  -0.001
C  C51  1  0.36889023  0.18858713  0.80177376  1  -0.037877  -0.13057  -0.000631  3.878849  -0.001
C  C52  1  0.82868112  0.91757911  0.35722795  1  0.097119  0.12254  -0.002163  4.046969  -0.003
C  C53  1  0.17131391  0.08241916  0.64277425  1  0.097171  0.122582  -0.002162  4.046987  -0.003
C  C54  1  0.68530765  0.95775337  0.32825405  1  0.103477  0.059986  -0.002156  4.036253  -0.002
C  C55  1  0.31469031  0.04224152  0.67174660  1  0.103425  0.059801  -0.002156  4.036501  -0.002
C  C56  1  0.53703331  0.09693626  0.37335965  1  -0.092287  -0.158675  5.7e-05  3.990686  0.0
C  C57  1  0.46296078  0.90305528  0.62664596  1  -0.092344  -0.158601  5.7e-05  3.990825  0.0
C  C58  1  0.53723384  0.19302166  0.45126899  1  -0.085926  -0.065301  -0.00024  3.97087  0.0
C  C59  1  0.46275792  0.80697215  0.54873632  1  -0.085903  -0.065382  -0.00024  3.970836  0.0
C  C60  1  0.67749289  0.15184540  0.48546479  1  -0.088925  -0.091158  0.000662  3.983968  0.0
C  C61  1  0.32249821  0.84815177  0.51454047  1  -0.088959  -0.091222  0.000662  3.984022  0.0
C  C62  1  0.82471880  0.01449765  0.43904059  1  -0.080684  -0.131362  -0.000375  3.943963  0.0
C  C63  1  0.17527563  0.98550175  0.56096258  1  -0.080751  -0.131405  -0.000375  3.944077  0.0
C  C64  1  0.43821510  0.53789598  0.80815385  1  0.177528  0.285579  0.00087  4.034782  0.002
C  C65  1  0.56178530  0.46211123  0.19184768  1  0.177627  0.285702  0.000869  4.034959  0.002
C  C66  1  0.25347073  0.57360242  0.69882493  1  -0.140062  -0.285244  -0.000691  3.89824  -0.001
C  C67  1  0.74652932  0.42639693  0.30118077  1  -0.140148  -0.285375  -0.000691  3.898358  -0.001
C  C68  1  0.13831671  0.72506171  0.90224881  1  -0.139249  -0.284896  -0.00077  3.885558  -0.001
C  C69  1  0.86168730  0.27493875  0.09774949  1  -0.139275  -0.284877  -0.000769  3.8855  -0.001
C  C70  1  0.77615201  0.63309995  0.75580907  1  0.215227  0.576107  0.001406  4.189479  0.003
C  C71  1  0.22385355  0.36690613  0.24418485  1  0.215289  0.576234  0.001406  4.189672  0.003
C  C72  1  0.73742606  0.12990366  0.85065849  1  0.189483  0.544208  0.001781  4.240281  0.003
C  C73  1  0.26256990  0.87010135  0.14934289  1  0.18947  0.544201  0.00178  4.240343  0.003
N  N74  1  0.28406336  0.60777389  0.80350904  1  -0.278114  0.039722  -0.00186  3.725018  -0.003
N  N75  1  0.71593956  0.39222432  0.19649410  1  -0.278128  0.039694  -0.001861  3.725019  -0.003
N  N76  1  0.73142511  0.83441606  0.25389476  1  -0.12102  0.124428  -0.001612  3.706846  -0.003
N  N77  1  0.26857678  0.16557993  0.74610369  1  -0.121037  0.124465  -0.001612  3.706875  -0.003
N  N78  1  0.89140738  0.72664837  0.23453296  1  -0.065723  -0.057315  0.000674  3.111908  0.0
N  N79  1  0.10859499  0.27335099  0.76546248  1  -0.065697  -0.057327  0.000674  3.111785  0.0
N  N80  1  0.95121402  0.77552750  0.29551834  1  -0.22317  -0.213521  -0.04855  3.556218  -0.064
N  N81  1  0.04878721  0.22447187  0.70447920  1  -0.22315  -0.213448  -0.048548  3.556084  -0.064
O  O82  1  0.76106293  0.51995906  0.80523034  1  -0.3185  -0.552152  -0.056275  2.420318  -0.082
O  O83  1  0.23894153  0.48004703  0.19476047  1  -0.318552  -0.552181  -0.056278  2.420398  -0.082
O  O84  1  0.80681980  0.65524802  0.64056812  1  -0.307933  -0.551894  -0.000656  2.234195  -0.002
O  O85  1  0.19318638  0.34475693  0.35942395  1  -0.307953  -0.551983  -0.000656  2.234378  -0.002
O  O86  1  0.79839288  0.13841796  0.73015607  1  -0.326919  -0.550969  -0.067183  2.305542  -0.096
O  O87  1  0.20160247  0.86158816  0.26984628  1  -0.326924  -0.550996  -0.067182  2.305666  -0.096
O  O88  1  0.68532022  0.23277712  0.93359102  1  -0.323497  -0.568638  0.000446  2.202222  -0.002
O  O89  1  0.31467633  0.76722675  0.06641113  1  -0.323464  -0.568582  0.000445  2.202109  -0.002
O  O90  1  0.56632854  0.43439362  0.72427266  1  -0.306409  -0.440754  -0.056082  2.438754  -0.08
O  O91  1  0.43367839  0.56560345  0.27572756  1  -0.306396  -0.440734  -0.056075  2.43896  -0.08
O  O92  1  0.86936326  0.40343148  0.51769857  1  -0.607686  -0.788709  -1e-06  2.050723  -0.002
O  O93  1  0.13064300  0.59656897  0.48229987  1  -0.607667  -0.788705  0.0  2.050708  -0.002
