# generated using pymatgen
data_AgH12C14N3O7
_symmetry_space_group_name_H-M   'P 1'
_cell_length_a   11.08533495
_cell_length_b   11.65649570
_cell_length_c   11.99308255
_cell_angle_alpha   98.87563132
_cell_angle_beta   89.99991754
_cell_angle_gamma   89.99988623
_symmetry_Int_Tables_number   1
_chemical_formula_structural   AgH12C14N3O7
_chemical_formula_sum   'Ag4 H48 C56 N12 O28'
_cell_volume   1531.14329862
_cell_formula_units_Z   4
loop_
 _symmetry_equiv_pos_site_id
 _symmetry_equiv_pos_as_xyz
  1  'x, y, z'
loop_
 _atom_site_type_symbol
 _atom_site_label
 _atom_site_symmetry_multiplicity
 _atom_site_fract_x
 _atom_site_fract_y
 _atom_site_fract_z
 _atom_site_occupancy
 _atom_site_hle17_bader_spin_density
 _atom_site_hle17_ddec_charge
 _atom_site_hle17_ddec_spin_density
 _atom_site_hle17_ddec_sum_bond_order
 _atom_site_hle17_magmom
 _atom_site_hse06_10hf_bader_spin_density
 _atom_site_hse06_10hf_ddec_charge
 _atom_site_hse06_10hf_ddec_spin_density
 _atom_site_hse06_10hf_ddec_sum_bond_order
 _atom_site_hse06_10hf_magmom
 _atom_site_hse06_bader_spin_density
 _atom_site_hse06_ddec_charge
 _atom_site_hse06_ddec_spin_density
 _atom_site_hse06_ddec_sum_bond_order
 _atom_site_hse06_magmom
 _atom_site_pbe_bader_spin_density
 _atom_site_pbe_cm5_charge
 _atom_site_pbe_ddec_charge
 _atom_site_pbe_ddec_spin_density
 _atom_site_pbe_ddec_sum_bond_order
 _atom_site_pbe_magmom
Ag  Ag0  1  0.84442743  0.27363682  0.68232936  1  0  0.521671  0  1.369864  0  0  0.367129  0  1.798119  0  0  0.398107  0  1.751825  0  0  0.453452  0.346402  0  1.829987  0
Ag  Ag1  1  0.34442715  0.22636271  0.81767014  1  0  0.521652  0  1.369864  0  0  0.367117  0  1.798128  0  0  0.398091  0  1.751835  0  0  0.453431  0.346387  0  1.829996  0
Ag  Ag2  1  0.15557210  0.72636325  0.31767112  1  0  0.521644  0  1.369889  0  0  0.367129  0  1.79813  0  0  0.398101  0  1.751837  0  0  0.453435  0.346396  0  1.829996  0
Ag  Ag3  1  0.65557148  0.77363736  0.18232950  1  0  0.521621  0  1.369897  0  0  0.367102  0  1.798135  0  0  0.398073  0  1.751846  0  0  0.453427  0.346369  0  1.830002  0
H  H4  1  0.69673172  0.07857753  0.53439942  1  0  0.083267  0  0.942691  0  0  0.091599  0  1.005365  0  0  0.092963  0  1.005752  0  0  0.116936  0.090499  0  1.005295  0
H  H5  1  0.19673169  0.42142232  0.96560033  1  0  0.083275  0  0.942697  0  0  0.0916  0  1.005369  0  0  0.092965  0  1.005756  0  0  0.116934  0.0905  0  1.005298  0
H  H6  1  0.30326781  0.92142254  0.46560189  1  0  0.083269  0  0.94273  0  0  0.091599  0  1.005394  0  0  0.092962  0  1.005783  0  0  0.116933  0.090498  0  1.005323  0
H  H7  1  0.80326693  0.57857949  0.03439874  1  0  0.083269  0  0.942732  0  0  0.091598  0  1.005408  0  0  0.092961  0  1.005797  0  0  0.116944  0.090498  0  1.005337  0
H  H8  1  0.70822902  0.86371127  0.46891026  1  0  0.132479  0  0.95923  0  0  0.13927  0  1.026164  0  0  0.143124  0  1.023259  0  0  0.116578  0.136391  0  1.028462  0
H  H9  1  0.20822847  0.63628837  0.03108931  1  0  0.132498  0  0.959216  0  0  0.139283  0  1.026158  0  0  0.143138  0  1.023253  0  0  0.116588  0.136404  0  1.028455  0
H  H10  1  0.29177141  0.13628794  0.53109009  1  0  0.132449  0  0.95922  0  0  0.139227  0  1.026182  0  0  0.143082  0  1.023276  0  0  0.116561  0.136347  0  1.028481  0
H  H11  1  0.79177196  0.36371258  0.96890963  1  0  0.13251  0  0.959179  0  0  0.139294  0  1.026132  0  0  0.14315  0  1.023226  0  0  0.116585  0.136418  0  1.028429  0
H  H12  1  0.03044410  0.08258883  0.69022060  1  0  0.083609  0  0.96885  0  0  0.09071  0  1.036209  0  0  0.092448  0  1.035283  0  0  0.115025  0.089318  0  1.037081  0
H  H13  1  0.53044569  0.41740964  0.80978166  1  0  0.083604  0  0.968852  0  0  0.090726  0  1.036181  0  0  0.092469  0  1.035247  0  0  0.115026  0.089328  0  1.037068  0
H  H14  1  0.96955453  0.91740950  0.30978128  1  0  0.083604  0  0.968844  0  0  0.090707  0  1.036204  0  0  0.092445  0  1.035279  0  0  0.115025  0.089315  0  1.037074  0
H  H15  1  0.46955384  0.58259044  0.19021965  1  0  0.083603  0  0.968844  0  0  0.090701  0  1.036202  0  0  0.092443  0  1.035269  0  0  0.115016  0.089306  0  1.037081  0
H  H16  1  0.05717865  0.86770027  0.62852026  1  0  0.116021  0  0.947564  0  0  0.125654  0  1.008887  0  0  0.128449  0  1.008484  0  0  0.114407  0.123617  0  1.009341  0
H  H17  1  0.55717984  0.63229775  0.87147989  1  0  0.11603  0  0.947576  0  0  0.125641  0  1.008915  0  0  0.128432  0  1.008513  0  0  0.114417  0.123603  0  1.009369  0
H  H18  1  0.94281998  0.13229806  0.37147995  1  0  0.116028  0  0.947575  0  0  0.125661  0  1.008889  0  0  0.128455  0  1.008488  0  0  0.11443  0.123625  0  1.009344  0
H  H19  1  0.44282060  0.36770232  0.12851975  1  0  0.116031  0  0.947578  0  0  0.125641  0  1.008915  0  0  0.128432  0  1.008512  0  0  0.114416  0.123604  0  1.009368  0
H  H20  1  0.85244063  0.50170483  0.49257730  1  0  0.082945  0  0.927448  0  0  0.0931  0  0.992742  0  0  0.093662  0  0.991889  0  0  0.109862  0.092656  0  0.993402  0
H  H21  1  0.35244117  0.99829623  0.00742228  1  0  0.082896  0  0.927447  0  0  0.093063  0  0.992701  0  0  0.093623  0  0.99185  0  0  0.10986  0.092619  0  0.99336  0
H  H22  1  0.14755890  0.49829524  0.50742234  1  0  0.082966  0  0.927431  0  0  0.09312  0  0.99272  0  0  0.093682  0  0.991866  0  0  0.109866  0.092676  0  0.993379  0
H  H23  1  0.64755926  0.00170558  0.99257845  1  0  0.082935  0  0.927446  0  0  0.093101  0  0.992731  0  0  0.093664  0  0.991876  0  0  0.109861  0.092657  0  0.993391  0
H  H24  1  0.86177917  0.53492655  0.35305139  1  0  0.067031  0  0.938017  0  0  0.080975  0  1.000415  0  0  0.080453  0  1.000847  0  0  0.10621  0.081228  0  1.000264  0
H  H25  1  0.36177956  0.96507363  0.14694806  1  0  0.06709  0  0.937969  0  0  0.081019  0  1.000371  0  0  0.080498  0  1.000803  0  0  0.106219  0.081267  0  1.000221  0
H  H26  1  0.13821946  0.46507353  0.64694742  1  0  0.067044  0  0.938003  0  0  0.080984  0  1.000398  0  0  0.080463  0  1.000829  0  0  0.106207  0.081234  0  1.000248  0
H  H27  1  0.63822088  0.03492558  0.85305229  1  0  0.067055  0  0.937976  0  0  0.081002  0  1.000379  0  0  0.080481  0  1.000811  0  0  0.106219  0.081253  0  1.000228  0
H  H28  1  0.62485526  0.51302204  0.48480236  1  0  0.089016  0  0.931632  0  0  0.098397  0  0.999357  0  0  0.099308  0  0.998018  0  0  0.112296  0.097625  0  1.000482  0
H  H29  1  0.12485491  0.98697864  0.01519830  1  0  0.089028  0  0.931635  0  0  0.098404  0  0.999353  0  0  0.099312  0  0.998024  0  0  0.112297  0.097632  0  1.000477  0
H  H30  1  0.37514427  0.48697803  0.51519811  1  0  0.089024  0  0.931626  0  0  0.0984  0  0.999331  0  0  0.099308  0  0.998002  0  0  0.112303  0.097628  0  1.000456  0
H  H31  1  0.87514462  0.01302143  0.98480218  1  0  0.089016  0  0.931626  0  0  0.098396  0  0.999356  0  0  0.099304  0  0.998026  0  0  0.112299  0.097625  0  1.00048  0
H  H32  1  0.63385821  0.55573729  0.34887268  1  0  0.068558  0  0.947235  0  0  0.076448  0  1.020166  0  0  0.076471  0  1.020104  0  0  0.102159  0.076268  0  1.020456  0
H  H33  1  0.13385773  0.94426251  0.15112701  1  0  0.068576  0  0.947228  0  0  0.076459  0  1.020159  0  0  0.076483  0  1.020097  0  0  0.102161  0.076278  0  1.020451  0
H  H34  1  0.36614042  0.44426105  0.65112671  1  0  0.068568  0  0.947179  0  0  0.076414  0  1.02012  0  0  0.076437  0  1.020057  0  0  0.102157  0.076237  0  1.020405  0
H  H35  1  0.86614180  0.05573670  0.84887334  1  0  0.068567  0  0.947236  0  0  0.076458  0  1.020167  0  0  0.076482  0  1.020104  0  0  0.102167  0.076278  0  1.020459  0
H  H36  1  0.78919270  0.21241136  0.24218689  1  0  0.122521  0  0.944382  0  0  0.129038  0  1.010289  0  0  0.133221  0  1.007406  0  0  0.113742  0.126058  0  1.012452  0
H  H37  1  0.28919238  0.28758849  0.25781377  1  0  0.122522  0  0.944415  0  0  0.129024  0  1.010327  0  0  0.133206  0  1.007446  0  0  0.11374  0.126045  0  1.012485  0
H  H38  1  0.21080683  0.78758784  0.75780929  1  0  0.122517  0  0.944479  0  0  0.129077  0  1.010352  0  0  0.133261  0  1.007465  0  0  0.113755  0.126095  0  1.012513  0
H  H39  1  0.71080895  0.71241159  0.74218837  1  0  0.122503  0  0.944387  0  0  0.129028  0  1.010303  0  0  0.133209  0  1.007423  0  0  0.113754  0.126049  0  1.012461  0
H  H40  1  0.80737271  0.99935242  0.17992237  1  0  0.092013  0  0.943861  0  0  0.09888  0  1.010108  0  0  0.101578  0  1.007919  0  0  0.11868  0.096862  0  1.011792  0
H  H41  1  0.30737289  0.50064700  0.32007787  1  0  0.092011  0  0.94386  0  0  0.098879  0  1.010102  0  0  0.101578  0  1.007914  0  0  0.118676  0.096861  0  1.011784  0
H  H42  1  0.19262773  0.00064592  0.82007618  1  0  0.092052  0  0.943855  0  0  0.098879  0  1.010123  0  0  0.101576  0  1.007933  0  0  0.118691  0.096864  0  1.011801  0
H  H43  1  0.69263025  0.49935394  0.67991857  1  0  0.092018  0  0.943835  0  0  0.098847  0  1.010123  0  0  0.101543  0  1.007933  0  0  0.118692  0.096831  0  1.011803  0
H  H44  1  0.43382587  0.15197145  0.36845314  1  0  0.11663  0  0.952501  0  0  0.125354  0  1.015594  0  0  0.128747  0  1.014133  0  0  0.112332  0.122807  0  1.016908  0
H  H45  1  0.93382698  0.34802896  0.13154658  1  0  0.116617  0  0.952521  0  0  0.125334  0  1.015621  0  0  0.128729  0  1.014161  0  0  0.112317  0.122787  0  1.016935  0
H  H46  1  0.56617366  0.84802862  0.63154650  1  0  0.116633  0  0.952561  0  0  0.125339  0  1.015668  0  0  0.12874  0  1.014197  0  0  0.112338  0.122791  0  1.016983  0
H  H47  1  0.06617436  0.65197025  0.86845460  1  0  0.116631  0  0.952509  0  0  0.12534  0  1.015616  0  0  0.128739  0  1.014148  0  0  0.112334  0.122791  0  1.016929  0
H  H48  1  0.46876405  0.93758177  0.30358331  1  0  0.076453  0  0.98954  0  0  0.080314  0  1.062853  0  0  0.082744  0  1.060775  0  0  0.111441  0.07846  0  1.064463  0
H  H49  1  0.96876475  0.56241817  0.19641679  1  0  0.076483  0  0.989507  0  0  0.080329  0  1.062838  0  0  0.082759  0  1.06076  0  0  0.111446  0.078474  0  1.06445  0
H  H50  1  0.53123638  0.06241744  0.69641620  1  0  0.076452  0  0.989525  0  0  0.080294  0  1.062859  0  0  0.082723  0  1.060781  0  0  0.111436  0.07844  0  1.06447  0
H  H51  1  0.03123658  0.43758103  0.80358356  1  0  0.076482  0  0.989469  0  0  0.08032  0  1.062814  0  0  0.082749  0  1.060737  0  0  0.11145  0.078467  0  1.064423  0
C  C52  1  0.77393104  0.02810993  0.55563665  1  0  0.116953  0  3.680845  0  0  0.090439  0  3.926749  0  0  0.095498  0  3.946836  0  0  0.045626  0.087012  0  3.913321  0
C  C53  1  0.27393095  0.47189062  0.94436394  1  0  0.116913  0  3.680916  0  0  0.090429  0  3.926788  0  0  0.095487  0  3.946876  0  0  0.045624  0.087001  0  3.913355  0
C  C54  1  0.22606939  0.97189014  0.44436383  1  0  0.116929  0  3.680887  0  0  0.090441  0  3.926754  0  0  0.0955  0  3.94684  0  0  0.045631  0.087015  0  3.913322  0
C  C55  1  0.72606858  0.52811119  0.05563597  1  0  0.116907  0  3.680799  0  0  0.090412  0  3.926686  0  0  0.095469  0  3.946773  0  0  0.045603  0.086985  0  3.913256  0
C  C56  1  0.78088619  0.90900674  0.51876135  1  0  -0.115016  0  3.670696  0  0  -0.139972  0  3.917856  0  0  -0.143842  0  3.937328  0  0  -0.072753  -0.137508  0  3.905112  0
C  C57  1  0.28088593  0.59099167  0.98123773  1  0  -0.115052  0  3.670646  0  0  -0.139998  0  3.917803  0  0  -0.143869  0  3.937277  0  0  -0.072777  -0.137534  0  3.905055  0
C  C58  1  0.21911334  0.09099247  0.48123899  1  0  -0.115002  0  3.670533  0  0  -0.139937  0  3.917677  0  0  -0.143807  0  3.937147  0  0  -0.072768  -0.137473  0  3.904935  0
C  C59  1  0.71911360  0.40900927  0.01876121  1  0  -0.115029  0  3.670613  0  0  -0.139977  0  3.917784  0  0  -0.143848  0  3.937258  0  0  -0.072745  -0.137514  0  3.90504  0
C  C60  1  0.96075979  0.03030381  0.64257242  1  0  0.110193  0  3.696335  0  0  0.080785  0  3.947991  0  0  0.086158  0  3.96748  0  0  0.042496  0.077197  0  3.934909  0
C  C61  1  0.46076074  0.46969547  0.85742856  1  0  0.110187  0  3.696332  0  0  0.08078  0  3.947964  0  0  0.086152  0  3.967453  0  0  0.042483  0.07719  0  3.934876  0
C  C62  1  0.03923974  0.96969539  0.35742876  1  0  0.110185  0  3.696357  0  0  0.08078  0  3.948002  0  0  0.086151  0  3.967493  0  0  0.042486  0.077194  0  3.934916  0
C  C63  1  0.53923879  0.53030547  0.14257204  1  0  0.110159  0  3.696356  0  0  0.080773  0  3.947979  0  0  0.086142  0  3.967474  0  0  0.04247  0.077186  0  3.934889  0
C  C64  1  0.97553608  0.91185930  0.60807230  1  0  -0.110265  0  3.715735  0  0  -0.135402  0  3.963886  0  0  -0.140031  0  3.985944  0  0  -0.074964  -0.132362  0  3.949142  0
C  C65  1  0.47553596  0.58813869  0.89192646  1  0  -0.110273  0  3.715705  0  0  -0.135376  0  3.963886  0  0  -0.140001  0  3.985939  0  0  -0.074946  -0.132336  0  3.94914  0
C  C66  1  0.02446436  0.08813991  0.39192721  1  0  -0.110273  0  3.715674  0  0  -0.135389  0  3.96384  0  0  -0.140018  0  3.985897  0  0  -0.074958  -0.132352  0  3.9491  0
C  C67  1  0.52446357  0.41186138  0.10807318  1  0  -0.110287  0  3.715726  0  0  -0.13538  0  3.963902  0  0  -0.140005  0  3.985957  0  0  -0.07495  -0.13234  0  3.949156  0
C  C68  1  0.88386823  0.84948782  0.54604007  1  0  -0.014677  0  3.748515  0  0  0.003596  0  3.983031  0  0  0.000507  0  4.003443  0  0  0.004506  0.005625  0  3.969426  0
C  C69  1  0.38386970  0.65051211  0.95395994  1  0  -0.014582  0  3.748307  0  0  0.003635  0  3.982881  0  0  0.000545  0  4.003292  0  0  0.004527  0.005662  0  3.969272  0
C  C70  1  0.11613039  0.15051312  0.45396054  1  0  -0.014629  0  3.748292  0  0  0.003588  0  3.982857  0  0  0.000499  0  4.003268  0  0  0.004501  0.005613  0  3.969254  0
C  C71  1  0.61613073  0.34948883  0.04603983  1  0  -0.014582  0  3.748369  0  0  0.003636  0  3.982957  0  0  0.000544  0  4.003366  0  0  0.004526  0.005663  0  3.969354  0
C  C72  1  0.90202031  0.72249127  0.50884331  1  0  0.57776  0  3.821957  0  0  0.524553  0  4.121456  0  0  0.556957  0  4.113686  0  0  0.235598  0.502303  0  4.126621  0
C  C73  1  0.40202054  0.77750949  0.99115679  1  0  0.577739  0  3.821921  0  0  0.524535  0  4.121425  0  0  0.556939  0  4.113655  0  0  0.235628  0.502286  0  4.126586  0
C  C74  1  0.09797832  0.27750881  0.49115716  1  0  0.577771  0  3.821904  0  0  0.524583  0  4.121402  0  0  0.556989  0  4.113631  0  0  0.235636  0.502342  0  4.126559  0
C  C75  1  0.59797989  0.22249058  0.00884285  1  0  0.577746  0  3.82194  0  0  0.524543  0  4.121465  0  0  0.556958  0  4.113678  0  0  0.235586  0.502294  0  4.126632  0
C  C76  1  0.80732427  0.54705384  0.43044862  1  0  0.079902  0  3.566242  0  0  0.017262  0  3.834296  0  0  0.026168  0  3.837846  0  0  -0.062256  0.011227  0  3.831884  0
C  C77  1  0.30732480  0.95294645  0.06955091  1  0  0.079855  0  3.566263  0  0  0.017239  0  3.83426  0  0  0.026147  0  3.837805  0  0  -0.062285  0.011209  0  3.83184  0
C  C78  1  0.19267526  0.45294623  0.56955019  1  0  0.079802  0  3.566356  0  0  0.017168  0  3.834367  0  0  0.02608  0  3.837905  0  0  -0.062295  0.011136  0  3.831951  0
C  C79  1  0.69267563  0.04705449  0.93044970  1  0  0.079872  0  3.566245  0  0  0.017203  0  3.834346  0  0  0.026108  0  3.837895  0  0  -0.062268  0.011171  0  3.83193  0
C  C80  1  0.67901427  0.50611241  0.40744036  1  0  0.073534  0  3.566818  0  0  0.00682  0  3.841496  0  0  0.01571  0  3.84398  0  0  -0.068964  0.000779  0  3.839929  0
C  C81  1  0.17901468  0.99388729  0.09255925  1  0  0.07353  0  3.566805  0  0  0.006835  0  3.841427  0  0  0.015723  0  3.84391  0  0  -0.068941  0.000795  0  3.839859  0
C  C82  1  0.32098526  0.49388767  0.59256011  1  0  0.073541  0  3.56677  0  0  0.006917  0  3.841349  0  0  0.015803  0  3.843835  0  0  -0.068981  0.000876  0  3.839782  0
C  C83  1  0.82098575  0.00611191  0.90744027  1  0  0.073555  0  3.566791  0  0  0.006851  0  3.841469  0  0  0.015739  0  3.843953  0  0  -0.068959  0.00081  0  3.839903  0
C  C84  1  0.58608993  0.32497880  0.34674804  1  0  0.588552  0  3.832048  0  0  0.531704  0  4.139239  0  0  0.565215  0  4.129061  0  0  0.235284  0.508653  0  4.146075  0
C  C85  1  0.08608911  0.17502148  0.15325295  1  0  0.588505  0  3.832162  0  0  0.531655  0  4.139379  0  0  0.565163  0  4.129208  0  0  0.235263  0.508606  0  4.146214  0
C  C86  1  0.41391320  0.67501953  0.65325134  1  0  0.588685  0  3.832048  0  0  0.531829  0  4.139214  0  0  0.565348  0  4.129043  0  0  0.235327  0.50878  0  4.146049  0
C  C87  1  0.91391132  0.82497772  0.84674739  1  0  0.58864  0  3.831999  0  0  0.531781  0  4.139188  0  0  0.565293  0  4.129007  0  0  0.235309  0.50873  0  4.146024  0
C  C88  1  0.60835465  0.19860739  0.30977853  1  0  -0.006169  0  3.751683  0  0  0.010233  0  3.98794  0  0  0.007691  0  4.008026  0  0  0.007207  0.011928  0  3.97462  0
C  C89  1  0.10835440  0.30139284  0.19022326  1  0  -0.006125  0  3.751683  0  0  0.010231  0  3.988001  0  0  0.007688  0  4.00809  0  0  0.007188  0.011923  0  3.97468  0
C  C90  1  0.39164669  0.80139268  0.69021944  1  0  -0.006387  0  3.75186  0  0  0.010101  0  3.988051  0  0  0.007524  0  4.008188  0  0  0.00716  0.011795  0  3.974726  0
C  C91  1  0.89164693  0.69860723  0.80977805  1  0  -0.006345  0  3.751783  0  0  0.010107  0  3.988018  0  0  0.007564  0  4.008105  0  0  0.00717  0.011802  0  3.974695  0
C  C92  1  0.71546922  0.15534651  0.25773376  1  0  -0.115519  0  3.680662  0  0  -0.141719  0  3.932795  0  0  -0.14589  0  3.951768  0  0  -0.076474  -0.139071  0  3.920234  0
C  C93  1  0.21546881  0.34465263  0.24226689  1  0  -0.115507  0  3.680633  0  0  -0.14167  0  3.932775  0  0  -0.14584  0  3.95175  0  0  -0.076439  -0.139021  0  3.92021  0
C  C94  1  0.28453121  0.84465009  0.74226286  1  0  -0.115298  0  3.680636  0  0  -0.141617  0  3.932787  0  0  -0.145781  0  3.951774  0  0  -0.076414  -0.138966  0  3.920221  0
C  C95  1  0.78453253  0.65534744  0.75773359  1  0  -0.115375  0  3.680582  0  0  -0.141645  0  3.932794  0  0  -0.145814  0  3.951762  0  0  -0.076459  -0.138997  0  3.920232  0
C  C96  1  0.72646318  0.03606881  0.22325151  1  0  0.11672  0  3.672429  0  0  0.088475  0  3.920877  0  0  0.093954  0  3.940157  0  0  0.048738  0.084837  0  3.90792  0
C  C97  1  0.22646246  0.46393117  0.27674926  1  0  0.116731  0  3.672431  0  0  0.088483  0  3.92087  0  0  0.093966  0  3.940138  0  0  0.048738  0.084844  0  3.907909  0
C  C98  1  0.27353816  0.96393039  0.77674550  1  0  0.116565  0  3.672342  0  0  0.088389  0  3.920818  0  0  0.093872  0  3.94009  0  0  0.048669  0.084747  0  3.907863  0
C  C99  1  0.77353978  0.53606890  0.72324955  1  0  0.116703  0  3.672354  0  0  0.088502  0  3.920819  0  0  0.093986  0  3.940094  0  0  0.048707  0.084862  0  3.907863  0
C  C100  1  0.51733446  0.12023839  0.32693461  1  0  -0.109528  0  3.695746  0  0  -0.13239  0  3.937453  0  0  -0.137039  0  3.957672  0  0  -0.073505  -0.129416  0  3.924204  0
C  C101  1  0.01733498  0.37976204  0.17306566  1  0  -0.109586  0  3.695798  0  0  -0.132418  0  3.937501  0  0  -0.137071  0  3.957724  0  0  -0.073524  -0.129444  0  3.924252  0
C  C102  1  0.48266778  0.87976168  0.67306420  1  0  -0.109494  0  3.695795  0  0  -0.13235  0  3.937452  0  0  -0.136996  0  3.957676  0  0  -0.073514  -0.129376  0  3.924202  0
C  C103  1  0.98266725  0.62023803  0.82693565  1  0  -0.109485  0  3.695738  0  0  -0.132324  0  3.937407  0  0  -0.136977  0  3.957622  0  0  -0.073504  -0.129347  0  3.924155  0
C  C104  1  0.53652753  0.00245684  0.29201988  1  0  0.107959  0  3.705943  0  0  0.081596  0  3.950647  0  0  0.086884  0  3.969881  0  0  0.041545  0.078053  0  3.937813  0
C  C105  1  0.03652776  0.49754355  0.20798037  1  0  0.107972  0  3.705863  0  0  0.081617  0  3.950564  0  0  0.086906  0  3.969799  0  0  0.041555  0.078073  0  3.937732  0
C  C106  1  0.46347199  0.99754410  0.70797906  1  0  0.107993  0  3.705877  0  0  0.081642  0  3.950588  0  0  0.086932  0  3.969819  0  0  0.041565  0.078097  0  3.937757  0
C  C107  1  0.96347358  0.50245565  0.79201998  1  0  0.107945  0  3.705828  0  0  0.081581  0  3.950546  0  0  0.086869  0  3.969783  0  0  0.041546  0.078037  0  3.937716  0
N  N108  1  0.86140235  0.08825423  0.61747967  1  0  -0.279945  0  3.313321  0  0  -0.196237  0  3.591917  0  0  -0.213172  0  3.607155  0  0  -0.337771  -0.184844  0  3.581582  0
N  N109  1  0.36140248  0.41174526  0.88252064  1  0  -0.279954  0  3.313297  0  0  -0.196263  0  3.591896  0  0  -0.213197  0  3.607133  0  0  -0.337787  -0.184869  0  3.581558  0
N  N110  1  0.13859718  0.91174497  0.38252068  1  0  -0.279913  0  3.313299  0  0  -0.196218  0  3.591892  0  0  -0.21315  0  3.607126  0  0  -0.337762  -0.184823  0  3.581552  0
N  N111  1  0.63859615  0.58825568  0.11747996  1  0  -0.279926  0  3.313205  0  0  -0.196226  0  3.591804  0  0  -0.213157  0  3.60704  0  0  -0.337769  -0.184831  0  3.581464  0
N  N112  1  0.63886178  0.96048413  0.24003805  1  0  -0.274462  0  3.310295  0  0  -0.189347  0  3.584124  0  0  -0.206975  0  3.600374  0  0  -0.337344  -0.177477  0  3.573103  0
N  N113  1  0.13886197  0.53951565  0.25996246  1  0  -0.274483  0  3.310265  0  0  -0.189363  0  3.584089  0  0  -0.206992  0  3.600341  0  0  -0.337347  -0.177493  0  3.573065  0
N  N114  1  0.36113865  0.03951507  0.75996063  1  0  -0.274468  0  3.310333  0  0  -0.189351  0  3.584134  0  0  -0.20698  0  3.600383  0  0  -0.337343  -0.177482  0  3.573116  0
N  N115  1  0.86114026  0.46048442  0.74003635  1  0  -0.274486  0  3.310303  0  0  -0.189338  0  3.584074  0  0  -0.20697  0  3.600324  0  0  -0.337339  -0.17747  0  3.573058  0
N  N116  1  0.56547966  0.26102106  0.63346635  1  0  0.703816  0  4.122767  0  0  0.724427  0  4.427087  0  0  0.752369  0  4.433866  0  0  0.084221  0.705533  0  4.42182  0
N  N117  1  0.06547837  0.23897647  0.86653156  1  0  0.703849  0  4.122664  0  0  0.724453  0  4.426971  0  0  0.752397  0  4.433747  0  0  0.084238  0.705559  0  4.421705  0
N  N118  1  0.43451806  0.73898162  0.36653785  1  0  0.703727  0  4.122742  0  0  0.724345  0  4.427085  0  0  0.752289  0  4.433862  0  0  0.084177  0.70545  0  4.421812  0
N  N119  1  0.93451935  0.76102100  0.13346603  1  0  0.70375  0  4.122685  0  0  0.724345  0  4.427033  0  0  0.752291  0  4.433802  0  0  0.084206  0.705451  0  4.421762  0
O  O120  1  0.99942742  0.67349379  0.51218825  1  0  -0.512243  0  1.945454  0  0  -0.477278  0  2.179388  0  0  -0.495028  0  2.169532  0  0  -0.269651  -0.465178  0  2.186095  0
O  O121  1  0.49942847  0.82650589  0.98781156  1  0  -0.512243  0  1.945453  0  0  -0.477284  0  2.179386  0  0  -0.495034  0  2.169531  0  0  -0.269672  -0.465184  0  2.186092  0
O  O122  1  0.00057120  0.32650715  0.48781235  1  0  -0.512253  0  1.945483  0  0  -0.477287  0  2.179402  0  0  -0.495039  0  2.169551  0  0  -0.269657  -0.465188  0  2.186106  0
O  O123  1  0.50057467  0.17349505  0.01218904  1  0  -0.512215  0  1.945467  0  0  -0.47724  0  2.179384  0  0  -0.49499  0  2.169519  0  0  -0.269604  -0.465142  0  2.186098  0
O  O124  1  0.79847909  0.66988442  0.47217220  1  0  -0.294405  0  2.298069  0  0  -0.218156  0  2.532726  0  0  -0.24115  0  2.533096  0  0  -0.149949  -0.202227  0  2.532089  0
O  O125  1  0.29847814  0.83011588  0.02782651  1  0  -0.29437  0  2.298076  0  0  -0.218108  0  2.532701  0  0  -0.241101  0  2.533069  0  0  -0.149944  -0.202179  0  2.532064  0
O  O126  1  0.20152134  0.33011739  0.52782770  1  0  -0.294365  0  2.298136  0  0  -0.218128  0  2.532786  0  0  -0.241123  0  2.533155  0  0  -0.149925  -0.202201  0  2.532148  0
O  O127  1  0.70152229  0.16988419  0.97217146  1  0  -0.294423  0  2.298065  0  0  -0.218174  0  2.532745  0  0  -0.24117  0  2.533107  0  0  -0.149986  -0.202246  0  2.532113  0
O  O128  1  0.68992073  0.38543735  0.35739702  1  0  -0.309427  0  2.291733  0  0  -0.232894  0  2.527693  0  0  -0.255571  0  2.527174  0  0  -0.157815  -0.217155  0  2.52765  0
O  O129  1  0.18992096  0.11456271  0.14260298  1  0  -0.309444  0  2.291715  0  0  -0.232917  0  2.527675  0  0  -0.255595  0  2.527155  0  0  -0.157834  -0.21718  0  2.527629  0
O  O130  1  0.31007970  0.61456186  0.64260333  1  0  -0.309489  0  2.291705  0  0  -0.232976  0  2.527639  0  0  -0.255653  0  2.527116  0  0  -0.157819  -0.217238  0  2.527594  0
O  O131  1  0.81007947  0.88543649  0.85739737  1  0  -0.30944  0  2.291708  0  0  -0.232909  0  2.527673  0  0  -0.255589  0  2.527153  0  0  -0.157819  -0.217172  0  2.527629  0
O  O132  1  0.48543347  0.36772246  0.36246010  1  0  -0.514494  0  1.959028  0  0  -0.476616  0  2.190616  0  0  -0.496026  0  2.182589  0  0  -0.26662  -0.4634  0  2.196052  0
O  O133  1  0.98543322  0.13227784  0.13754037  1  0  -0.514446  0  1.959115  0  0  -0.476556  0  2.190698  0  0  -0.495963  0  2.182676  0  0  -0.266582  -0.463341  0  2.196134  0
O  O134  1  0.51456606  0.63227675  0.63754107  1  0  -0.514524  0  1.95913  0  0  -0.476653  0  2.190718  0  0  -0.496063  0  2.182695  0  0  -0.266644  -0.463439  0  2.196155  0
O  O135  1  0.01456722  0.86772310  0.86245857  1  0  -0.514551  0  1.959022  0  0  -0.476669  0  2.190612  0  0  -0.496078  0  2.182584  0  0  -0.266647  -0.463454  0  2.196049  0
O  O136  1  0.63834261  0.29937038  0.56640304  1  0  -0.477532  0  1.778297  0  0  -0.457021  0  2.013886  0  0  -0.473563  0  2.006634  0  0  -0.192231  -0.444986  0  2.018457  0
O  O137  1  0.13834129  0.20063220  0.93359720  1  0  -0.477597  0  1.778352  0  0  -0.457118  0  2.013969  0  0  -0.473659  0  2.006717  0  0  -0.192297  -0.445084  0  2.018539  0
O  O138  1  0.36165602  0.70062448  0.43359666  1  0  -0.477561  0  1.778274  0  0  -0.457087  0  2.013928  0  0  -0.473623  0  2.006669  0  0  -0.192314  -0.445053  0  2.018496  0
O  O139  1  0.86165734  0.79936961  0.06640354  1  0  -0.47752  0  1.778355  0  0  -0.457006  0  2.013951  0  0  -0.473552  0  2.006701  0  0  -0.192235  -0.444973  0  2.018519  0
O  O140  1  0.60314558  0.24418109  0.73079455  1  0  -0.518967  0  1.759823  0  0  -0.49762  0  2.002589  0  0  -0.513557  0  1.991689  0  0  -0.215184  -0.48611  0  2.009764  0
O  O141  1  0.10314622  0.25581982  0.76920548  1  0  -0.518981  0  1.759821  0  0  -0.49762  0  2.002572  0  0  -0.513557  0  1.991674  0  0  -0.215185  -0.486111  0  2.009745  0
O  O142  1  0.39685485  0.75581898  0.26920759  1  0  -0.518936  0  1.759872  0  0  -0.497598  0  2.002645  0  0  -0.513536  0  1.991747  0  0  -0.215162  -0.486089  0  2.009816  0
O  O143  1  0.89685422  0.74418112  0.23079429  1  0  -0.518948  0  1.759801  0  0  -0.49761  0  2.002584  0  0  -0.513545  0  1.991683  0  0  -0.215187  -0.486101  0  2.009758  0
O  O144  1  0.45722497  0.23897478  0.60514453  1  0  -0.47495  0  1.768627  0  0  -0.462117  0  2.008808  0  0  -0.476553  0  2.000527  0  0  -0.192845  -0.451605  0  2.014185  0
O  O145  1  0.95722224  0.26101930  0.89485150  1  0  -0.474917  0  1.768516  0  0  -0.462053  0  2.008695  0  0  -0.476489  0  2.000413  0  0  -0.192797  -0.451542  0  2.014074  0
O  O146  1  0.54276914  0.76104005  0.39486733  1  0  -0.474838  0  1.768476  0  0  -0.462013  0  2.008682  0  0  -0.476449  0  2.000404  0  0  -0.192731  -0.451502  0  2.014054  0
O  O147  1  0.04277458  0.73897557  0.10514402  1  0  -0.474931  0  1.768539  0  0  -0.462083  0  2.00874  0  0  -0.476516  0  2.000454  0  0  -0.192831  -0.451572  0  2.014117  0
