# generated using pymatgen
data_CoH18C12(N3O2)2
_symmetry_space_group_name_H-M   'P 1'
_cell_length_a   7.35464065
_cell_length_b   7.91679618
_cell_length_c   8.42327760
_cell_angle_alpha   67.79520199
_cell_angle_beta   64.12732778
_cell_angle_gamma   62.32211467
_symmetry_Int_Tables_number   1
_chemical_formula_structural   CoH18C12(N3O2)2
_chemical_formula_sum   'Co1 H18 C12 N6 O4'
_cell_volume   381.22608811
_cell_formula_units_Z   1
loop_
 _symmetry_equiv_pos_site_id
 _symmetry_equiv_pos_as_xyz
  1  'x, y, z'
loop_
 _atom_site_type_symbol
 _atom_site_label
 _atom_site_symmetry_multiplicity
 _atom_site_fract_x
 _atom_site_fract_y
 _atom_site_fract_z
 _atom_site_occupancy
 _atom_site_pbe_cm5_charge
 _atom_site_pbe_ddec_charge
 _atom_site_pbe_ddec_spin_density
 _atom_site_pbe_ddec_sum_bond_order
 _atom_site_pbe_magmom
Co  Co0  1  0.99999509  0.00000091  0.99999946  1  0.718783  0.274935  1.029616  3.547178  0.939
H  H1  1  0.87990695  0.38411372  0.85591649  1  0.293575  0.290484  5.7e-05  1.057551  0.0
H  H2  1  0.12008786  0.61588699  0.14408402  1  0.293576  0.290488  5.7e-05  1.057534  0.0
H  H3  1  0.51265102  0.60519911  0.60984045  1  0.099805  0.142479  -0.000393  0.996679  0.0
H  H4  1  0.72779000  0.39477711  0.39015706  1  0.099338  0.141871  -0.000393  0.996212  0.0
H  H5  1  0.48735146  0.39480305  0.39015904  1  0.099813  0.142482  -0.000393  0.996693  0.0
H  H6  1  0.27221483  0.60522213  0.60984183  1  0.099344  0.141884  -0.000393  0.996236  0.0
H  H7  1  0.39690594  0.76975640  0.43628516  1  0.091521  0.129076  -4.7e-05  1.025174  0.0
H  H8  1  0.60309618  0.23024430  0.56371405  1  0.091524  0.129085  -4.7e-05  1.025166  0.0
H  H9  1  0.13351917  0.31605876  0.41683032  1  0.101908  0.157144  3.1e-05  1.027694  0.0
H  H10  1  0.86648390  0.68394195  0.58316946  1  0.101908  0.157128  3.1e-05  1.027739  0.0
H  H11  1  0.14027091  0.11426053  0.36448663  1  0.0941  0.136837  -0.000786  1.012457  -0.001
H  H12  1  0.61908889  0.88574122  0.63548737  1  0.094346  0.136735  -0.000789  1.013532  -0.001
H  H13  1  0.85972909  0.88574017  0.63551320  1  0.094115  0.136885  -0.000787  1.012416  -0.001
H  H14  1  0.38091169  0.11425802  0.36451277  1  0.094348  0.136738  -0.000789  1.013521  -0.001
H  H15  1  0.78133767  0.69569970  0.08292794  1  0.123007  0.096554  0.001125  1.025956  0.002
H  H16  1  0.56004132  0.30421808  0.91709912  1  0.122906  0.097167  0.001125  1.023536  0.002
H  H17  1  0.21866586  0.30429808  0.91707011  1  0.123004  0.096555  0.001126  1.025962  0.002
H  H18  1  0.43996197  0.69577969  0.08290069  1  0.122905  0.097171  0.001125  1.023522  0.002
C  C19  1  0.22846526  0.84764668  0.69545951  1  0.087001  0.105277  -0.009482  3.971821  -0.005
C  C20  1  0.77153475  0.15235402  0.30454032  1  0.087012  0.105337  -0.009482  3.971755  -0.005
C  C21  1  0.15585708  0.05952250  0.62875613  1  0.108572  0.160565  -0.013201  3.955243  -0.007
C  C22  1  0.84414234  0.94047967  0.37124340  1  0.108569  0.160561  -0.013201  3.955158  -0.007
C  C23  1  0.35939828  0.70049433  0.58062669  1  -0.237296  -0.41761  -0.000647  3.969719  0.0
C  C24  1  0.64060266  0.29950637  0.41937372  1  -0.237306  -0.417607  -0.000647  3.969691  0.0
C  C25  1  0.20495886  0.15699170  0.43303558  1  -0.238427  -0.423214  -0.000818  3.914482  0.0
C  C26  1  0.79504360  0.84300754  0.56696570  1  -0.238455  -0.423271  -0.000818  3.914492  0.0
C  C27  1  0.65520922  0.83238151  0.04666497  1  0.057541  0.049289  -0.000433  3.89882  0.001
C  C28  1  0.53429829  0.16756106  0.95331418  1  0.057382  0.048122  -0.00046  3.896726  0.001
C  C29  1  0.34479501  0.16761627  0.95333541  1  0.057561  0.049319  -0.000432  3.898839  0.001
C  C30  1  0.46570348  0.83243818  0.04668476  1  0.057389  0.048133  -0.000459  3.896716  0.001
N  N31  1  0.68865686  0.99995844  0.99997094  1  -0.287305  -0.176488  0.035419  3.513314  0.059
N  N32  1  0.31134737  0.00003934  0.00002944  1  -0.287306  -0.176538  0.035423  3.513293  0.059
N  N33  1  0.16583179  0.79438581  0.87408104  1  -0.267038  -0.025642  -0.009208  3.809815  -0.006
N  N34  1  0.83416420  0.20561489  0.12591827  1  -0.267072  -0.025738  -0.009209  3.809906  -0.006
N  N35  1  0.04271870  0.15388115  0.76056949  1  -0.280278  -0.066843  -0.001559  3.696157  0.0
N  N36  1  0.95727942  0.84611955  0.23942920  1  -0.280251  -0.066785  -0.00156  3.696004  0.0
O  O37  1  0.96195604  0.35373048  0.72219566  1  -0.256532  -0.342382  -0.003966  2.249517  -0.004
O  O38  1  0.03803759  0.64627022  0.27780603  1  -0.256547  -0.342411  -0.003966  2.249461  -0.004
O  O39  1  0.21815388  0.60727873  0.95666556  1  -0.223529  -0.376903  -0.010386  2.112954  -0.009
O  O40  1  0.78183326  0.39272052  0.04333596  1  -0.22351  -0.376869  -0.010387  2.113012  -0.009
