# generated using pymatgen
data_FeH4(CN2)4
_symmetry_space_group_name_H-M   'P 1'
_cell_length_a   6.41635475
_cell_length_b   6.84995510
_cell_length_c   8.37071848
_cell_angle_alpha   114.13559922
_cell_angle_beta   90.18461652
_cell_angle_gamma   89.52006281
_symmetry_Int_Tables_number   1
_chemical_formula_structural   FeH4(CN2)4
_chemical_formula_sum   'Fe2 H8 C8 N16'
_cell_volume   335.73349286
_cell_formula_units_Z   2
loop_
 _symmetry_equiv_pos_site_id
 _symmetry_equiv_pos_as_xyz
  1  'x, y, z'
loop_
 _atom_site_type_symbol
 _atom_site_label
 _atom_site_symmetry_multiplicity
 _atom_site_fract_x
 _atom_site_fract_y
 _atom_site_fract_z
 _atom_site_occupancy
 _atom_site_pbe_cm5_charge
 _atom_site_pbe_ddec_charge
 _atom_site_pbe_ddec_spin_density
 _atom_site_pbe_ddec_sum_bond_order
 _atom_site_pbe_magmom
Fe  Fe0  1  0.00000000  0.00000000  0.00000000  1  0.774399  0.735701  3.812403  2.865958  3.475
Fe  Fe1  1  0.50000238  0.00000074  0.99999910  1  0.754446  0.508546  0.195564  3.571615  0.182
H  H2  1  0.00410960  0.54349719  0.72595304  1  0.121822  0.095475  0.000705  1.029231  0.002
H  H3  1  0.49627154  0.54047987  0.72606301  1  0.122438  0.096128  -7.8e-05  1.041534  0.0
H  H4  1  0.50374534  0.18573181  0.72607134  1  0.122512  0.09625  -8e-05  1.041389  0.0
H  H5  1  0.00415236  0.81726365  0.27413293  1  0.121753  0.095336  0.000708  1.029257  0.002
H  H6  1  0.99588850  0.45650307  0.27404743  1  0.121825  0.095468  0.000705  1.029251  0.002
H  H7  1  0.50372967  0.45952198  0.27393803  1  0.122438  0.096149  -7.8e-05  1.04149  0.0
H  H8  1  0.49625587  0.81427007  0.27392851  1  0.122516  0.096247  -8e-05  1.041387  0.0
H  H9  1  0.99584730  0.18273501  0.72586698  1  0.121751  0.095338  0.000708  1.029242  0.002
C  C10  1  0.00071366  0.52503684  0.84885933  1  0.044393  0.041282  -0.023805  3.92644  -0.007
C  C11  1  0.49994073  0.52659988  0.85066939  1  0.041277  0.027005  -0.008114  3.897287  -0.002
C  C12  1  0.50000901  0.32413695  0.85067644  1  0.040238  0.026627  -0.008125  3.8975  -0.002
C  C13  1  0.00073094  0.67601526  0.15121560  1  0.043593  0.041164  -0.023869  3.926439  -0.007
C  C14  1  0.99928289  0.47496339  0.15114233  1  0.044388  0.041303  -0.023808  3.926338  -0.007
C  C15  1  0.50005893  0.47340040  0.14932990  1  0.041268  0.026997  -0.008115  3.897165  -0.002
C  C16  1  0.49999064  0.67586494  0.14932341  1  0.040255  0.026641  -0.008126  3.897481  -0.002
C  C17  1  0.99926872  0.32398499  0.84878488  1  0.043596  0.04117  -0.023873  3.926438  -0.007
N  N18  1  0.00139412  0.70275430  0.00005151  1  -0.344966  -0.210103  -0.024764  3.605882  -0.015
N  N19  1  0.50041366  0.70854864  0.99998575  1  -0.326713  -0.140217  -0.028408  3.577732  -0.02
N  N20  1  0.49958601  0.29145002  0.00001416  1  -0.3267  -0.140223  -0.028409  3.577676  -0.02
N  N21  1  0.99860554  0.29724436  0.99994840  1  -0.344978  -0.210097  -0.024761  3.60581  -0.015
N  N22  1  0.73202717  0.09525175  0.17665889  1  -0.320657  -0.481596  0.019245  3.29213  0.026
N  N23  1  0.26795263  0.08127212  0.17670176  1  -0.320638  -0.482295  0.019207  3.29015  0.026
N  N24  1  0.73204858  0.91872822  0.82329516  1  -0.320674  -0.482341  0.019201  3.290196  0.026
N  N25  1  0.26797093  0.90474711  0.82333392  1  -0.32064  -0.481552  0.019233  3.292549  0.026
N  N26  1  0.73297585  0.11928989  0.32867214  1  0.094944  0.409189  0.001427  4.398572  0.003
N  N27  1  0.26698760  0.20933149  0.32868992  1  0.094807  0.409863  0.001386  4.394508  0.003
N  N28  1  0.73301050  0.79067190  0.67131404  1  0.094933  0.410074  0.001383  4.394258  0.003
N  N29  1  0.26702539  0.88071165  0.67133954  1  0.0949  0.409209  0.00142  4.398677  0.003
N  N30  1  0.74292444  0.14527199  0.47481821  1  -0.149635  -0.322971  0.035318  2.613146  0.056
N  N31  1  0.25701197  0.32955897  0.47482861  1  -0.149538  -0.323227  0.035277  2.610851  0.056
N  N32  1  0.74298924  0.67044297  0.52516888  1  -0.149665  -0.323434  0.035283  2.610603  0.056
N  N33  1  0.25707366  0.85472834  0.52517989  1  -0.149691  -0.323104  0.03533  2.6127  0.056
