# generated using pymatgen
data_ZnH32C34S2(N5O2)2
_symmetry_space_group_name_H-M   'P 1'
_cell_length_a   8.45601410
_cell_length_b   8.47691735
_cell_length_c   12.42109105
_cell_angle_alpha   93.88924239
_cell_angle_beta   97.30226034
_cell_angle_gamma   91.32610427
_symmetry_Int_Tables_number   1
_chemical_formula_structural   ZnH32C34S2(N5O2)2
_chemical_formula_sum   'Zn1 H32 C34 S2 N10 O4'
_cell_volume   880.64627190
_cell_formula_units_Z   1
loop_
 _symmetry_equiv_pos_site_id
 _symmetry_equiv_pos_as_xyz
  1  'x, y, z'
loop_
 _atom_site_type_symbol
 _atom_site_label
 _atom_site_symmetry_multiplicity
 _atom_site_fract_x
 _atom_site_fract_y
 _atom_site_fract_z
 _atom_site_occupancy
 _atom_site_hle17_bader_spin_density
 _atom_site_hle17_ddec_charge
 _atom_site_hle17_ddec_spin_density
 _atom_site_hle17_ddec_sum_bond_order
 _atom_site_hle17_magmom
 _atom_site_hse06_10hf_bader_spin_density
 _atom_site_hse06_10hf_ddec_charge
 _atom_site_hse06_10hf_ddec_spin_density
 _atom_site_hse06_10hf_ddec_sum_bond_order
 _atom_site_hse06_10hf_magmom
 _atom_site_hse06_bader_spin_density
 _atom_site_hse06_ddec_charge
 _atom_site_hse06_ddec_spin_density
 _atom_site_hse06_ddec_sum_bond_order
 _atom_site_hse06_magmom
 _atom_site_pbe_bader_spin_density
 _atom_site_pbe_cm5_charge
 _atom_site_pbe_ddec_charge
 _atom_site_pbe_ddec_spin_density
 _atom_site_pbe_ddec_sum_bond_order
 _atom_site_pbe_magmom
Zn  Zn0  1  0.00000187  0.00000491  0.99999923  1  0  0.892861  0  2.053115  0  0  0.701754  0  2.504636  0  0  0.743849  0  2.465717  0  0  0.703654  0.673211  0  2.530463  0
H  H1  1  0.27760140  0.81376453  0.93233573  1  0  0.087193  0  0.960693  0  0  0.093468  0  1.028461  0  0  0.096043  0  1.026212  0  0  0.11649  0.091545  0  1.030144  0
H  H2  1  0.72239412  0.18624174  0.06765980  1  0  0.08717  0  0.96072  0  0  0.093428  0  1.028497  0  0  0.096002  0  1.026248  0  0  0.116498  0.091505  0  1.03017  0
H  H3  1  0.54132790  0.71706372  0.01441511  1  0  0.095854  0  0.963423  0  0  0.108314  0  1.020483  0  0  0.111043  0  1.020205  0  0  0.106306  0.106337  0  1.020891  0
H  H4  1  0.45867005  0.28294375  0.98558310  1  0  0.095914  0  0.963451  0  0  0.108392  0  1.020468  0  0  0.111121  0  1.02019  0  0  0.106343  0.106438  0  1.020852  0
H  H5  1  0.67076934  0.84703259  0.19375414  1  0  0.106181  0  0.930605  0  0  0.115597  0  0.992071  0  0  0.118253  0  0.990892  0  0  0.110284  0.113601  0  0.993049  0
H  H6  1  0.32922484  0.15296900  0.80624591  1  0  0.106158  0  0.930562  0  0  0.115576  0  0.992037  0  0  0.118231  0  0.990859  0  0  0.110275  0.113577  0  0.993017  0
H  H7  1  0.25994522  0.13921650  0.19319605  1  0  0.089614  0  0.943474  0  0  0.098832  0  1.004136  0  0  0.101657  0  1.001626  0  0  0.120253  0.096796  0  1.005952  0
H  H8  1  0.74004887  0.86078272  0.80680309  1  0  0.089587  0  0.943467  0  0  0.098821  0  1.004113  0  0  0.101646  0  1.001604  0  0  0.120258  0.096788  0  1.005927  0
H  H9  1  0.60937756  0.80962608  0.44408516  1  0  0.071514  0  0.915028  0  0  0.088736  0  0.977133  0  0  0.088903  0  0.977341  0  0  0.105889  0.088506  0  0.977108  0
H  H10  1  0.39062711  0.19036840  0.55591631  1  0  0.071516  0  0.915051  0  0  0.088759  0  0.977138  0  0  0.088927  0  0.977344  0  0  0.105882  0.08853  0  0.977112  0
H  H11  1  0.44778355  0.81716997  0.33791941  1  0  0.088132  0  0.953129  0  0  0.105643  0  1.012244  0  0  0.105736  0  1.013078  0  0  0.112548  0.105511  0  1.011719  0
H  H12  1  0.55221873  0.18282451  0.66208105  1  0  0.088106  0  0.953103  0  0  0.105623  0  1.012228  0  0  0.105717  0  1.013061  0  0  0.112552  0.105495  0  1.011706  0
H  H13  1  0.64102770  0.25020827  0.48464052  1  0  0.094437  0  0.934745  0  0  0.110745  0  0.99216  0  0  0.112349  0  0.990786  0  0  0.117043  0.109473  0  0.993297  0
H  H14  1  0.35897331  0.74978383  0.51535892  1  0  0.09434  0  0.93472  0  0  0.110782  0  0.992014  0  0  0.112385  0  0.990637  0  0  0.117038  0.109509  0  0.993151  0
H  H15  1  0.72987142  0.07707555  0.53620845  1  0  0.065486  0  0.952728  0  0  0.072384  0  1.033543  0  0  0.072879  0  1.033447  0  0  0.092009  0.071937  0  1.033737  0
H  H16  1  0.27012843  0.92291774  0.46379095  1  0  0.065495  0  0.952705  0  0  0.072419  0  1.033538  0  0  0.072913  0  1.03344  0  0  0.092018  0.071971  0  1.03373  0
H  H17  1  0.20010363  0.30743981  0.06963036  1  0  0.078339  0  0.944375  0  0  0.086416  0  1.010389  0  0  0.089157  0  1.007448  0  0  0.117462  0.084419  0  1.012489  0
H  H18  1  0.79989412  0.69256179  0.93037242  1  0  0.078333  0  0.94436  0  0  0.086435  0  1.010347  0  0  0.089176  0  1.007405  0  0  0.117463  0.084441  0  1.012446  0
H  H19  1  0.28204351  0.55535157  0.99226919  1  0  0.098269  0  0.967744  0  0  0.110823  0  1.024713  0  0  0.113846  0  1.024245  0  0  0.105998  0.108671  0  1.025219  0
H  H20  1  0.71794718  0.44465245  0.00773630  1  0  0.098256  0  0.967799  0  0  0.110794  0  1.024792  0  0  0.113817  0  1.024324  0  0  0.105996  0.108642  0  1.025299  0
H  H21  1  0.14771831  0.62140331  0.80930307  1  0  0.117536  0  0.944847  0  0  0.126638  0  1.006791  0  0  0.129605  0  1.004422  0  0  0.114585  0.124378  0  1.00869  0
H  H22  1  0.85227825  0.37859833  0.19070363  1  0  0.117618  0  0.944825  0  0  0.126713  0  1.006773  0  0  0.12968  0  1.004404  0  0  0.114619  0.124451  0  1.008675  0
H  H23  1  0.86729710  0.18880653  0.80016692  1  0  0.080034  0  0.959913  0  0  0.085556  0  1.028713  0  0  0.087941  0  1.02709  0  0  0.114522  0.0838  0  1.029926  0
H  H24  1  0.13270990  0.81118673  0.19983067  1  0  0.079955  0  0.959945  0  0  0.085514  0  1.028715  0  0  0.087899  0  1.027092  0  0  0.114463  0.083756  0  1.029928  0
H  H25  1  0.19130412  0.45005286  0.65763691  1  0  0.081104  0  0.934805  0  0  0.101817  0  0.988233  0  0  0.101436  0  0.989347  0  0  0.113486  0.101991  0  0.987577  0
H  H26  1  0.80870388  0.54993448  0.34236133  1  0  0.081047  0  0.934829  0  0  0.101793  0  0.988245  0  0  0.101413  0  0.98936  0  0  0.113505  0.101968  0  0.987583  0
H  H27  1  0.16702640  0.63553178  0.60066833  1  0  0.083163  0  0.945645  0  0  0.091214  0  1.020732  0  0  0.092348  0  1.019977  0  0  0.103272  0.090287  0  1.021361  0
H  H28  1  0.83298402  0.36445674  0.39933017  1  0  0.083104  0  0.945624  0  0  0.091169  0  1.020731  0  0  0.092302  0  1.019975  0  0  0.103264  0.090243  0  1.021358  0
H  H29  1  0.87929492  0.69701801  0.51811520  1  0  0.06342  0  0.946128  0  0  0.070507  0  1.027097  0  0  0.071124  0  1.026598  0  0  0.094959  0.069998  0  1.027483  0
H  H30  1  0.12071085  0.30297406  0.48188143  1  0  0.063438  0  0.946035  0  0  0.070493  0  1.026999  0  0  0.071111  0  1.026499  0  0  0.094936  0.069982  0  1.027385  0
H  H31  1  0.72685389  0.55105730  0.53130381  1  0  0.096271  0  0.921029  0  0  0.114511  0  0.973615  0  0  0.116425  0  0.971622  0  0  0.118675  0.112973  0  0.975229  0
H  H32  1  0.27315312  0.44893596  0.46869379  1  0  0.096232  0  0.921135  0  0  0.114432  0  0.973717  0  0  0.116348  0  0.971724  0  0  0.118656  0.112894  0  0.97533  0
C  C33  1  0.33678685  0.86331347  0.01082186  1  0  0.115465  0  3.698281  0  0  0.081934  0  3.954647  0  0  0.089014  0  3.972389  0  0  0.043884  0.077409  0  3.942573  0
C  C34  1  0.66320995  0.13669517  0.98917549  1  0  0.115371  0  3.698333  0  0  0.081922  0  3.954654  0  0  0.089004  0  3.972395  0  0  0.043868  0.077407  0  3.94257  0
C  C35  1  0.48346656  0.81163871  0.05671236  1  0  -0.112627  0  3.74421  0  0  -0.125045  0  3.997605  0  0  -0.131779  0  4.018343  0  0  -0.083341  -0.120774  0  3.983706  0
C  C36  1  0.51652773  0.18836640  0.94328543  1  0  -0.11271  0  3.744391  0  0  -0.125153  0  3.997783  0  0  -0.131889  0  4.018524  0  0  -0.083382  -0.120899  0  3.983864  0
C  C37  1  0.55514362  0.88362865  0.15569536  1  0  -0.016355  0  3.670553  0  0  -0.044442  0  3.918492  0  0  -0.039354  0  3.934203  0  0  -0.057642  -0.047539  0  3.907874  0
C  C38  1  0.44484948  0.11637650  0.84430555  1  0  -0.016324  0  3.670557  0  0  -0.044433  0  3.918505  0  0  -0.039345  0  3.934215  0  0  -0.057704  -0.047532  0  3.9079  0
C  C39  1  0.47653121  0.00665826  0.20501049  1  0  -0.072606  0  3.755127  0  0  -0.047715  0  3.99475  0  0  -0.055646  0  4.015027  0  0  0.000272  -0.042952  0  3.981381  0
C  C40  1  0.52346050  0.99334099  0.79499167  1  0  -0.072604  0  3.755127  0  0  -0.047663  0  3.99469  0  0  -0.055592  0  4.014967  0  0  0.00032  -0.042902  0  3.981319  0
C  C41  1  0.32744379  0.04803124  0.15482764  1  0  0.097447  0  3.678183  0  0  0.057496  0  3.930037  0  0  0.064599  0  3.945856  0  0  0.051537  0.052501  0  3.920311  0
C  C42  1  0.67254915  0.95196917  0.84517306  1  0  0.097487  0  3.678089  0  0  0.057525  0  3.930004  0  0  0.064622  0  3.945828  0  0  0.051563  0.052529  0  3.920278  0
C  C43  1  0.54759109  0.10510123  0.30522780  1  0  0.482911  0  3.883726  0  0  0.429295  0  4.182999  0  0  0.458503  0  4.183872  0  0  0.234583  0.409687  0  4.181681  0
C  C44  1  0.45240416  0.89489679  0.69477059  1  0  0.48286  0  3.883751  0  0  0.429263  0  4.183038  0  0  0.45847  0  4.183911  0  0  0.234552  0.409665  0  4.181713  0
C  C45  1  0.50297879  0.87547020  0.41527895  1  0  -0.012365  0  3.63884  0  0  -0.07863  0  3.90432  0  0  -0.074318  0  3.916184  0  0  -0.05797  -0.081373  0  3.896094  0
C  C46  1  0.49702345  0.12452311  0.58472307  1  0  -0.012327  0  3.638745  0  0  -0.078616  0  3.904243  0  0  -0.074303  0  3.916105  0  0  -0.057978  -0.081372  0  3.896038  0
C  C47  1  0.61678259  0.12818071  0.50269131  1  0  -0.014532  0  3.641889  0  0  -0.075367  0  3.902601  0  0  -0.070924  0  3.912936  0  0  -0.061024  -0.07831  0  3.895689  0
C  C48  1  0.38321845  0.87181259  0.49730980  1  0  -0.014428  0  3.641755  0  0  -0.075394  0  3.902548  0  0  -0.070942  0  3.912872  0  0  -0.060972  -0.078339  0  3.895632  0
C  C49  1  0.14699967  0.33759816  0.98937143  1  0  0.125724  0  3.708704  0  0  0.090936  0  3.967816  0  0  0.098664  0  3.985252  0  0  0.045661  0.086  0  3.955978  0
C  C50  1  0.85300174  0.66240580  0.01063096  1  0  0.12566  0  3.70878  0  0  0.090866  0  3.967928  0  0  0.0986  0  3.985367  0  0  0.045618  0.085928  0  3.95609  0
C  C51  1  0.19163150  0.47580156  0.94575669  1  0  -0.119767  0  3.742179  0  0  -0.130361  0  3.993668  0  0  -0.138194  0  4.014514  0  0  -0.086412  -0.125449  0  3.979767  0
C  C52  1  0.80836256  0.52419650  0.05424481  1  0  -0.119649  0  3.742149  0  0  -0.130211  0  3.993616  0  0  -0.138043  0  4.014462  0  0  -0.086384  -0.125302  0  3.979724  0
C  C53  1  0.11662651  0.51202013  0.84409939  1  0  -0.021953  0  3.675032  0  0  -0.05241  0  3.924723  0  0  -0.046034  0  3.939858  0  0  -0.060486  -0.056388  0  3.914587  0
C  C54  1  0.88336528  0.48798150  0.15590449  1  0  -0.022124  0  3.674994  0  0  -0.052577  0  3.92472  0  0  -0.046199  0  3.939854  0  0  -0.060522  -0.056548  0  3.914586  0
C  C55  1  0.99619975  0.40865212  0.79030201  1  0  -0.09025  0  3.756102  0  0  -0.066311  0  3.998165  0  0  -0.076181  0  4.019451  0  0  -0.005373  -0.060386  0  3.984295  0
C  C56  1  0.00380047  0.59135181  0.20969785  1  0  -0.090183  0  3.755921  0  0  -0.066226  0  3.998023  0  0  -0.076096  0  4.019307  0  0  -0.005363  -0.060322  0  3.98418  0
C  C57  1  0.96041408  0.27142841  0.84015093  1  0  0.118235  0  3.693295  0  0  0.077132  0  3.944097  0  0  0.085377  0  3.961245  0  0  0.054442  0.071852  0  3.932646  0
C  C58  1  0.03958967  0.72857434  0.15984920  1  0  0.1183  0  3.693159  0  0  0.077185  0  3.943996  0  0  0.085433  0  3.961149  0  0  0.054477  0.071912  0  3.932553  0
C  C59  1  0.88832130  0.44495120  0.68975890  1  0  0.478578  0  3.861763  0  0  0.428002  0  4.154604  0  0  0.457343  0  4.15594  0  0  0.234475  0.408328  0  4.153045  0
C  C60  1  0.11168019  0.55505508  0.31023957  1  0  0.478576  0  3.861796  0  0  0.42792  0  4.154755  0  0  0.457263  0  4.156087  0  0  0.234455  0.408251  0  4.153195  0
C  C61  1  0.12306921  0.51155599  0.59327253  1  0  -0.022139  0  3.642624  0  0  -0.085745  0  3.906669  0  0  -0.081433  0  3.918216  0  0  -0.05959  -0.088446  0  3.898595  0
C  C62  1  0.87694261  0.48843847  0.40672875  1  0  -0.022099  0  3.642446  0  0  -0.085764  0  3.906686  0  0  -0.081453  0  3.918235  0  0  -0.059667  -0.088466  0  3.898613  0
C  C63  1  0.85100613  0.56891979  0.51679778  1  0  -0.016951  0  3.638992  0  0  -0.078609  0  3.90112  0  0  -0.073969  0  3.911104  0  0  -0.059322  -0.081598  0  3.89426  0
C  C64  1  0.14900560  0.43107229  0.48320097  1  0  -0.016899  0  3.638954  0  0  -0.078392  0  3.900816  0  0  -0.073757  0  3.910805  0  0  -0.059222  -0.081373  0  3.893934  0
C  C65  1  0.03651799  0.93331798  0.75673222  1  0  0.287614  0  4.061867  0  0  0.267773  0  4.368391  0  0  0.290932  0  4.382209  0  0  0.13684  0.252218  0  4.358321  0
C  C66  1  0.96348008  0.06669304  0.24326534  1  0  0.287541  0  4.061647  0  0  0.267698  0  4.368178  0  0  0.290858  0  4.381999  0  0  0.136747  0.252142  0  4.358105  0
S  S67  1  0.03856726  0.98878619  0.63532941  1  0  -0.338159  0  2.042739  0  0  -0.320315  0  2.348207  0  0  -0.333531  0  2.343759  0  0  -0.163412  -0.311049  0  2.350952  0
S  S68  1  0.96142831  0.01122125  0.36466537  1  0  -0.338164  0  2.042774  0  0  -0.320318  0  2.348249  0  0  -0.33353  0  2.343802  0  0  -0.163391  -0.311055  0  2.350992  0
N  N69  1  0.25806891  0.97759598  0.06010861  1  0  -0.311199  0  3.28075  0  0  -0.236535  0  3.549858  0  0  -0.254109  0  3.568448  0  0  -0.318385  -0.224608  0  3.536889  0
N  N70  1  0.74192781  0.02241032  0.93989025  1  0  -0.31107  0  3.280646  0  0  -0.236474  0  3.549755  0  0  -0.254043  0  3.568339  0  0  -0.318358  -0.224567  0  3.536839  0
N  N71  1  0.55296104  0.03825942  0.40167480  1  0  -0.215909  0  3.428593  0  0  -0.129244  0  3.6696  0  0  -0.150949  0  3.692394  0  0  -0.277706  -0.114549  0  3.653694  0
N  N72  1  0.44703647  0.96173506  0.59832524  1  0  -0.215868  0  3.428612  0  0  -0.129292  0  3.669771  0  0  -0.150997  0  3.692561  0  0  -0.277726  -0.114596  0  3.653869  0
N  N73  1  0.03524318  0.23483938  0.93640019  1  0  -0.311547  0  3.276742  0  0  -0.236135  0  3.543285  0  0  -0.254715  0  3.562752  0  0  -0.318441  -0.223761  0  3.529989  0
N  N74  1  0.96475819  0.76516338  0.06360053  1  0  -0.311547  0  3.276788  0  0  -0.2362  0  3.543446  0  0  -0.254791  0  3.562923  0  0  -0.318421  -0.223826  0  3.530148  0
N  N75  1  0.95364764  0.50560712  0.60622496  1  0  -0.203057  0  3.391148  0  0  -0.116193  0  3.629788  0  0  -0.138212  0  3.652536  0  0  -0.275104  -0.1013  0  3.613856  0
N  N76  1  0.04636171  0.49438494  0.39377198  1  0  -0.202972  0  3.390962  0  0  -0.116105  0  3.629594  0  0  -0.138129  0  3.652351  0  0  -0.275045  -0.101208  0  3.61365  0
N  N77  1  0.03339572  0.89487351  0.84717337  1  0  -0.588169  0  2.955262  0  0  -0.531279  0  3.246679  0  0  -0.55361  0  3.251459  0  0  -0.412113  -0.515884  0  3.242932  0
N  N78  1  0.96661065  0.10513626  0.15282083  1  0  -0.588055  0  2.955023  0  0  -0.531165  0  3.24645  0  0  -0.553498  0  3.251234  0  0  -0.412024  -0.515768  0  3.242697  0
O  O79  1  0.74176187  0.42372550  0.68915642  1  0  -0.541047  0  1.877961  0  0  -0.505272  0  2.086799  0  0  -0.525565  0  2.081222  0  0  -0.312182  -0.490862  0  2.090026  0
O  O80  1  0.25823637  0.57629030  0.31084699  1  0  -0.541025  0  1.877971  0  0  -0.50523  0  2.086883  0  0  -0.525524  0  2.081306  0  0  -0.312156  -0.490822  0  2.090104  0
O  O81  1  0.59267478  0.24343222  0.29489437  1  0  -0.540383  0  1.887675  0  0  -0.5051  0  2.101361  0  0  -0.52664  0  2.096483  0  0  -0.308843  -0.48965  0  2.103966  0
O  O82  1  0.40732039  0.75656347  0.70510714  1  0  -0.540383  0  1.887585  0  0  -0.505123  0  2.101292  0  0  -0.526668  0  2.096419  0  0  -0.308834  -0.489674  0  2.103894  0
