# generated using pymatgen
data_Zn4H22C38O13
_symmetry_space_group_name_H-M   'P 1'
_cell_length_a   15.10934943
_cell_length_b   20.11860570
_cell_length_c   22.54638146
_cell_angle_alpha   90.32037364
_cell_angle_beta   89.53415780
_cell_angle_gamma   89.47918862
_symmetry_Int_Tables_number   1
_chemical_formula_structural   Zn4H22C38O13
_chemical_formula_sum   'Zn8 H44 C76 O26'
_cell_volume   6853.00781305
_cell_formula_units_Z   2
loop_
 _symmetry_equiv_pos_site_id
 _symmetry_equiv_pos_as_xyz
  1  'x, y, z'
loop_
 _atom_site_type_symbol
 _atom_site_label
 _atom_site_symmetry_multiplicity
 _atom_site_fract_x
 _atom_site_fract_y
 _atom_site_fract_z
 _atom_site_occupancy
 _atom_site_pbe_bader_charge
 _atom_site_pbe_bader_spin_density
 _atom_site_pbe_cm5_charge
 _atom_site_pbe_ddec_charge
 _atom_site_pbe_ddec_spin_density
 _atom_site_pbe_ddec_sum_bond_order
 _atom_site_pbe_magmom
Zn  Zn0  1  0.56414930  0.58242494  0.00403436  1  1.312061  0  0.671484  0.963885  0  2.365291  0
Zn  Zn1  1  0.56326281  0.08178428  0.49556177  1  1.311652  0  0.671137  0.960453  0  2.371276  0
Zn  Zn2  1  0.58239574  0.42311221  0.00025021  1  1.316789  0  0.672423  0.971657  0  2.358204  0
Zn  Zn3  1  0.58060579  0.92193855  0.50013914  1  1.315019  0  0.671294  0.96771  0  2.362495  0
Zn  Zn4  1  0.42577109  0.49803601  0.92865503  1  1.315768  0  0.671244  0.968043  0  2.36321  0
Zn  Zn5  1  0.42116457  0.49266623  0.06898735  1  1.314456  0  0.670757  0.960754  0  2.396186  0
Zn  Zn6  1  0.41724343  0.99618790  0.43331559  1  1.313086  0  0.670418  0.963771  0  2.378401  0
Zn  Zn7  1  0.43004373  0.99389605  0.57481621  1  1.316629  0  0.67179  0.966368  0  2.38047  0
H  H8  1  0.46082068  0.38197453  0.77709879  1  0.1065  0  0.108637  0.115549  0  0.995992  0
H  H9  1  0.14412521  0.04523724  0.44071067  1  0.086973  0  0.107345  0.115068  0  0.994482  0
H  H10  1  0.55569643  0.23940087  0.90347033  1  0.105024  0  0.108042  0.11446  0  0.991936  0
H  H11  1  0.67160390  0.31315273  0.15152471  1  0.07223  0  0.107319  0.113389  0  0.993857  0
H  H12  1  0.66211741  0.81449824  0.34770272  1  0.093376  0  0.107628  0.114179  0  0.994002  0
H  H13  1  0.56239793  0.73693869  0.59688879  1  0.110708  0  0.108323  0.115675  0  0.991594  0
H  H14  1  0.44635589  0.34917406  0.67051431  1  0.071715  0  0.105728  0.106519  0  0.988215  0
H  H15  1  0.32339697  0.27051142  0.26890589  1  0.07083  0  0.105959  0.106835  0  0.989355  0
H  H16  1  0.31479975  0.76757152  0.23333692  1  0.074674  0  0.106279  0.107472  0  0.988233  0
H  H17  1  0.45084939  0.84861359  0.83092116  1  0.045596  0  0.106254  0.106968  0  0.988984  0
H  H18  1  0.67842803  0.73387163  0.26383953  1  0.077427  0  0.105768  0.106981  0  0.989832  0
H  H19  1  0.39553006  0.34123943  0.19273055  1  0.092751  0  0.109452  0.116931  0  0.994066  0
H  H20  1  0.55789762  0.64810824  0.67356846  1  0.080047  0  0.104914  0.106222  0  0.991114  0
H  H21  1  0.55262654  0.15009681  0.82639667  1  0.095514  0  0.105062  0.105534  0  0.990609  0
H  H22  1  0.68629925  0.23222344  0.23438594  1  0.057737  0  0.10312  0.10239  0  0.997692  0
H  H23  1  0.32877785  0.67936411  0.15564546  1  0.118833  0  0.107808  0.113245  0  0.990731  0
H  H24  1  0.45632505  0.76139841  0.90901037  1  0.066171  0  0.108296  0.114052  0  0.988388  0
H  H25  1  0.45395231  0.26153760  0.59208956  1  0.124048  0  0.108133  0.11344  0  0.988727  0
H  H26  1  0.33497038  0.18163084  0.34532839  1  0.092358  0  0.108045  0.113332  0  0.989967  0
H  H27  1  0.61065779  0.67067604  0.18066285  1  0.079204  0  0.10876  0.11447  0  0.992017  0
H  H28  1  0.52477192  0.61337855  0.77762058  1  0.087305  0  0.108168  0.114396  0  0.994198  0
H  H29  1  0.51940140  0.11444355  0.72288682  1  0.098657  0  0.108422  0.11438  0  0.993503  0
H  H30  1  0.38514542  0.83882285  0.31037544  1  0.126625  0  0.109212  0.116363  0  0.994415  0
H  H31  1  0.61683186  0.16983475  0.31811314  1  0.094317  0  0.107132  0.112331  0  1.00049  0
H  H32  1  0.85172877  0.44524136  0.04429317  1  0.066091  0  0.107081  0.113102  0  0.993434  0
H  H33  1  0.85080647  0.94379554  0.55914516  1  0.085538  0  0.107478  0.114226  0  0.993205  0
H  H34  1  0.99991350  0.40927895  0.08153165  1  0.067545  0  0.103841  0.103724  0  0.993094  0
H  H35  1  0.99889381  0.90892429  0.59742359  1  0.054767  0  0.104673  0.10535  0  0.990777  0
H  H36  1  0.91695070  0.67767481  0.86439907  1  0.035752  0  0.085722  0.109743  0  1.005234  0
H  H37  1  0.90016548  0.60846505  0.81659145  1  0.020168  0  0.085618  0.110699  0  1.005211  0
H  H38  1  0.82000851  0.67340869  0.82104971  1  0.03339  0  0.089487  0.117676  0  0.999013  0
H  H39  1  0.76353342  0.57838033  0.87764202  1  0.028479  0  0.09437  0.092426  0  0.968128  0
H  H40  1  0.78363312  0.64449987  0.92560025  1  0.054298  0  0.099109  0.105527  0  0.966951  0
H  H41  1  0.46958178  0.88098746  0.72495833  1  0.122923  0  0.108959  0.116735  0  0.9976  0
H  H42  1  0.91601154  0.16983524  0.37228296  1  -0.013537  0  0.086049  0.110525  0  1.005792  0
H  H43  1  0.89832872  0.09919739  0.32629054  1  0.021889  0  0.085454  0.110439  0  1.002736  0
H  H44  1  0.81838888  0.16433992  0.32982899  1  -1.2e-05  0  0.085834  0.110716  0  1.008261  0
H  H45  1  0.76265463  0.07108390  0.38902307  1  0.040811  0  0.094333  0.093684  0  0.968247  0
H  H46  1  0.78297290  0.13884110  0.43491892  1  0.065807  0  0.099822  0.108224  0  0.965974  0
H  H47  1  0.99763127  0.59250680  0.89763465  1  0.049271  0  0.102051  0.106066  0  1.021403  0
H  H48  1  0.99715354  0.08556023  0.40831642  1  0.057867  0  0.100806  0.104192  0  1.022927  0
H  H49  1  0.16447143  0.41456682  0.07392830  1  0.087237  0  0.105395  0.112068  0  0.997549  0
H  H50  1  0.16358924  0.91641709  0.59180522  1  0.096493  0  0.106622  0.112445  0  0.992083  0
H  H51  1  0.14476229  0.55023118  0.92777238  1  0.061701  0  0.108084  0.115629  0  0.992895  0
C  C52  1  0.52359435  0.38108810  0.11915967  1  1.520406  0  0.227073  0.608079  0  4.16155  0
C  C53  1  0.46334698  0.26809446  0.24691544  1  -0.02994  0  -0.003388  0.078509  0  3.99892  0
C  C54  1  0.45466579  0.76690637  0.25429533  1  -0.063165  0  -0.00288  0.077557  0  4.000199  0
C  C55  1  0.49016966  0.78152093  0.75962684  1  0.009497  0  -0.003966  0.075319  0  4.002332  0
C  C56  1  0.48174416  0.33127773  0.78710713  1  -0.049772  0  -0.075027  -0.13458  0  3.922877  0
C  C57  1  0.45847627  0.31659175  0.20194167  1  -0.003781  0  -0.074638  -0.134298  0  3.925531  0
C  C58  1  0.44866607  0.81511433  0.30006511  1  -0.068337  0  -0.073905  -0.132266  0  3.92276  0
C  C59  1  0.48968926  0.83002838  0.71454293  1  -0.037316  0  -0.074494  -0.132395  0  3.92405  0
C  C60  1  0.53462138  0.25003213  0.85838689  1  -0.113346  0  -0.08646  -0.099791  0  3.999345  0
C  C61  1  0.61497035  0.30063465  0.17937019  1  0.025517  0  -0.086762  -0.099231  0  3.999369  0
C  C62  1  0.60567660  0.80124269  0.32044977  1  -0.00891  0  -0.085766  -0.098292  0  3.999176  0
C  C63  1  0.50479620  0.36865692  0.89101466  1  1.53266  0  0.227192  0.608198  0  4.161235  0
C  C64  1  0.54161709  0.74802984  0.64228199  1  -0.027082  0  -0.086013  -0.099532  0  3.999369  0
C  C65  1  0.53331696  0.20099383  0.81560727  1  -0.078314  0  -0.086679  -0.131676  0  3.996157  0
C  C66  1  0.62258208  0.25569981  0.22487454  1  -0.039172  0  -0.087599  -0.132792  0  3.997917  0
C  C67  1  0.61422412  0.75648878  0.27439144  1  -0.033541  0  -0.087142  -0.132885  0  3.998176  0
C  C68  1  0.53939974  0.69923783  0.68482697  1  -0.066644  0  -0.088042  -0.135085  0  3.997672  0
C  C69  1  0.83333390  0.51898438  0.97743341  1  -0.020594  0  -0.013401  -0.081159  0  3.941739  0
C  C70  1  0.83286493  0.01556380  0.49068359  1  -0.065518  0  -0.015275  -0.084245  0  3.944936  0
C  C71  1  0.16346279  0.48238815  0.99967679  1  -0.066021  0  -0.019831  -0.037989  0  3.997542  0
C  C72  1  0.16253081  0.98131189  0.51545989  1  -0.059649  0  -0.019758  -0.035705  0  4.002385  0
C  C73  1  0.03176315  0.44051756  0.04833075  1  -0.048649  0  -0.088429  -0.130696  0  4.006045  0
C  C74  1  0.51441588  0.86729031  0.61112812  1  1.533917  0  0.22616  0.6041  0  4.166042  0
C  C75  1  0.03092167  0.93961693  0.56389622  1  -0.090284  0  -0.087818  -0.130196  0  3.999706  0
C  C76  1  0.12248395  0.44288469  0.04402915  1  0.010976  0  -0.089626  -0.103004  0  4.005535  0
C  C77  1  0.12174952  0.94314260  0.56066273  1  0.021132  0  -0.088876  -0.103324  0  4.004571  0
C  C78  1  0.11237497  0.52002882  0.96146657  1  -0.019586  0  -0.075647  -0.133427  0  3.918376  0
C  C79  1  0.11155388  0.01649223  0.47534684  1  -0.045961  0  -0.077817  -0.139414  0  3.926934  0
C  C80  1  0.48939463  0.62954114  0.89336159  1  1.563237  0  0.226787  0.607342  0  4.158816  0
C  C81  1  0.47947091  0.62002340  0.11543710  1  1.578071  0  0.227962  0.609292  0  4.152201  0
C  C82  1  0.48362434  0.12085325  0.38383962  1  1.542102  0  0.226486  0.605035  0  4.166083  0
C  C83  1  0.48610183  0.12938981  0.60738420  1  1.528894  0  0.230289  0.612848  0  4.152738  0
C  C84  1  0.01891892  0.52076753  0.96669341  1  0.014994  0  -0.004782  0.08471  0  4.015073  0
C  C85  1  0.51372491  0.88024026  0.38297414  1  1.535978  0  0.226789  0.605805  0  4.165144  0
C  C86  1  0.01815101  0.01679736  0.47984930  1  -0.00815  0  -0.004925  0.087775  0  4.018193  0
C  C87  1  0.97787190  0.47924898  0.01020104  1  -0.029529  0  -0.0064  0.077663  0  4.016659  0
C  C88  1  0.97716335  0.97656656  0.52431868  1  0.014577  0  -0.005824  0.075483  0  4.019117  0
C  C89  1  0.88451128  0.47838382  0.01307012  1  0.006037  0  -0.080613  -0.140772  0  3.95582  0
C  C90  1  0.88381723  0.97579859  0.52711478  1  -0.047006  0  -0.079567  -0.138683  0  3.959594  0
C  C91  1  0.87339081  0.56299416  0.93535352  1  0.047386  0  -0.001276  0.105843  0  3.922299  0
C  C92  1  0.87282419  0.05778976  0.44702333  1  0.060552  0  -0.000848  0.107379  0  3.918027  0
C  C93  1  0.96469238  0.56142628  0.93039687  1  -0.086234  0  -0.0924  -0.196582  0  3.94828  0
C  C94  1  0.96407605  0.05582368  0.44202454  1  -0.05998  0  -0.092944  -0.197487  0  3.951912  0
C  C95  1  0.73509656  0.51431648  0.98545295  1  1.539863  0  0.230345  0.615969  0  4.155013  0
C  C96  1  0.53961778  0.73793626  0.24027233  1  0.009616  0  -0.002507  0.083145  0  3.998161  0
C  C97  1  0.73474488  0.01209137  0.49930337  1  1.579968  0  0.230373  0.617478  0  4.155498  0
C  C98  1  0.26195095  0.48489156  0.99661957  1  1.556148  0  0.225869  0.606925  0  4.157332  0
C  C99  1  0.26083388  0.98476956  0.51121165  1  1.556748  0  0.22792  0.609149  0  4.163182  0
C  C100  1  0.50680598  0.31566709  0.84437464  1  0.007962  0  -0.017892  -0.034826  0  3.990639  0
C  C101  1  0.53235319  0.33221957  0.16828492  1  -0.074722  0  -0.018547  -0.034105  0  3.994545  0
C  C102  1  0.52230507  0.83162302  0.33301526  1  -0.047805  0  -0.01964  -0.036368  0  3.994411  0
C  C103  1  0.51526716  0.81408079  0.65699678  1  0.021891  0  -0.019463  -0.035822  0  3.991877  0
C  C104  1  0.47123453  0.67081910  0.16357141  1  -0.084923  0  -0.015967  -0.028769  0  3.993315  0
C  C105  1  0.49013258  0.68224308  0.84705556  1  -0.091824  0  -0.01477  -0.023018  0  3.988192  0
C  C106  1  0.48591957  0.18266884  0.65370646  1  0.055682  0  -0.015455  -0.022997  0  3.986541  0
C  C107  1  0.51370709  0.71423308  0.74426264  1  -0.026135  0  -0.002564  0.0849  0  3.999606  0
C  C108  1  0.47729838  0.17165696  0.33618338  1  -0.008587  0  -0.015489  -0.023624  0  3.99233  0
C  C109  1  0.37920573  0.74553306  0.22239989  1  0.035707  0  -0.085706  -0.129854  0  3.99621  0
C  C110  1  0.46858365  0.79735169  0.81958653  1  -0.059415  0  -0.084811  -0.126492  0  3.991996  0
C  C111  1  0.46387262  0.29801429  0.68167772  1  -0.033688  0  -0.085217  -0.127996  0  3.991556  0
C  C112  1  0.38719435  0.24758362  0.27909751  1  -0.091956  0  -0.085782  -0.128865  0  3.997568  0
C  C113  1  0.38669414  0.69725594  0.17913897  1  -0.080215  0  -0.08632  -0.100723  0  3.999712  0
C  C114  1  0.47077760  0.74927718  0.86274264  1  0.013764  0  -0.087161  -0.104824  0  3.999485  0
C  C115  1  0.46719671  0.24962858  0.63828488  1  -0.020101  0  -0.087047  -0.105652  0  3.999833  0
C  C116  1  0.39337092  0.19904817  0.32161963  1  0.004646  0  -0.086759  -0.103059  0  4.001778  0
C  C117  1  0.54615838  0.69143015  0.19316107  1  -0.011126  0  -0.075244  -0.136721  0  3.925012  0
C  C118  1  0.50781243  0.21554369  0.75651090  1  -0.032833  0  -0.002134  0.084721  0  3.996077  0
C  C119  1  0.51030635  0.66516883  0.78888844  1  -0.023027  0  -0.07816  -0.144592  0  3.930635  0
C  C120  1  0.50506531  0.16610921  0.71174344  1  -0.10173  0  -0.076978  -0.143598  0  3.929407  0
C  C121  1  0.55287748  0.19138971  0.30627999  1  -0.053312  0  -0.077251  -0.141571  0  3.929688  0
C  C122  1  0.81757188  0.60785456  0.89674076  1  0.011874  0  -0.160173  -0.142582  0  3.984543  0
C  C123  1  0.86675809  0.64359859  0.84707188  1  -0.081539  0  -0.243373  -0.352681  0  3.994796  0
C  C124  1  0.81683498  0.10117742  0.40711655  1  -0.019839  0  -0.16093  -0.146126  0  3.980446  0
C  C125  1  0.86553663  0.13520487  0.35624344  1  -0.00551  0  -0.24367  -0.349329  0  3.994356  0
C  C126  1  0.54763006  0.23801800  0.25969175  1  0.025962  0  -0.002254  0.08185  0  4.000236  0
C  C127  1  0.48399238  0.28265696  0.74159097  1  0.038211  0  -0.003699  0.079093  0  3.994661  0
O  O128  1  0.49963782  0.49855661  0.99976786  1  -1.235662  0  -0.576175  -1.034692  0  2.554921  0
O  O129  1  0.51736279  0.14432652  0.55630924  1  -1.16499  0  -0.317615  -0.549795  0  2.300569  0
O  O130  1  0.70428599  0.45584586  0.99126834  1  -1.171055  0  -0.315861  -0.549985  0  2.325925  0
O  O131  1  0.70271812  0.95422598  0.50695769  1  -1.162992  0  -0.3181  -0.553451  0  2.326684  0
O  O132  1  0.29847861  0.50482094  0.94849603  1  -1.163522  0  -0.317175  -0.551171  0  2.301276  0
O  O133  1  0.30265083  0.46689985  0.04345109  1  -1.172089  0  -0.318545  -0.549969  0  2.337286  0
O  O134  1  0.29357131  0.99457510  0.45969149  1  -1.165706  0  -0.316075  -0.544653  0  2.342369  0
O  O135  1  0.30406747  0.97803363  0.55945140  1  -1.156745  0  -0.317949  -0.552034  0  2.314825  0
O  O136  1  0.55314315  0.35958484  0.93665012  1  -1.166876  0  -0.315656  -0.54823  0  2.312017  0
O  O137  1  0.58100922  0.37737558  0.07733666  1  -1.150448  0  -0.314997  -0.547527  0  2.318917  0
O  O138  1  0.57475912  0.87866044  0.42180001  1  -1.168075  0  -0.314742  -0.544365  0  2.33105  0
O  O139  1  0.49837633  0.99805088  0.50073506  1  -1.236213  0  -0.574348  -1.033128  0  2.547518  0
O  O140  1  0.55617637  0.85599595  0.56239378  1  -1.162822  0  -0.314717  -0.545231  0  2.304189  0
O  O141  1  0.41482796  0.58000961  0.10923474  1  -1.169346  0  -0.316234  -0.548719  0  2.30271  0
O  O142  1  0.46182409  0.57244228  0.87739376  1  -1.163539  0  -0.316652  -0.548314  0  2.316158  0
O  O143  1  0.45532644  0.07320896  0.62299405  1  -1.171352  0  -0.31514  -0.546894  0  2.321026  0
O  O144  1  0.41936614  0.08037298  0.38849071  1  -1.159879  0  -0.315265  -0.546121  0  2.312791  0
O  O145  1  0.69071240  0.56867092  0.98693513  1  -1.167465  0  -0.308775  -0.545599  0  2.34531  0
O  O146  1  0.69153320  0.06690990  0.49957286  1  -1.174591  0  -0.309708  -0.543423  0  2.346839  0
O  O147  1  0.45880594  0.42218236  0.12293538  1  -1.162015  0  -0.316806  -0.548058  0  2.337198  0
O  O148  1  0.45472193  0.41876941  0.88110485  1  -1.174831  0  -0.316581  -0.549058  0  2.341875  0
O  O149  1  0.47190042  0.92045768  0.62446283  1  -1.181915  0  -0.317764  -0.550243  0  2.350931  0
O  O150  1  0.44613605  0.91901592  0.38291197  1  -1.160679  0  -0.318274  -0.551655  0  2.328463  0
O  O151  1  0.51673450  0.64567780  0.94498230  1  -1.16289  0  -0.317365  -0.550307  0  2.293467  0
O  O152  1  0.55057666  0.62038604  0.08430998  1  -1.174404  0  -0.317551  -0.548586  0  2.307627  0
O  O153  1  0.55260266  0.12190136  0.41620385  1  -1.16967  0  -0.316535  -0.549282  0  2.317394  0
