# generated using pymatgen
data_Na2CdH24(C5O6)4
_symmetry_space_group_name_H-M   'P 1'
_cell_length_a   7.07625107
_cell_length_b   10.89383335
_cell_length_c   10.57034606
_cell_angle_alpha   84.46448042
_cell_angle_beta   70.47603683
_cell_angle_gamma   73.49893452
_symmetry_Int_Tables_number   1
_chemical_formula_structural   Na2CdH24(C5O6)4
_chemical_formula_sum   'Na2 Cd1 H24 C20 O24'
_cell_volume   736.35848734
_cell_formula_units_Z   1
loop_
 _symmetry_equiv_pos_site_id
 _symmetry_equiv_pos_as_xyz
  1  'x, y, z'
loop_
 _atom_site_type_symbol
 _atom_site_label
 _atom_site_symmetry_multiplicity
 _atom_site_fract_x
 _atom_site_fract_y
 _atom_site_fract_z
 _atom_site_occupancy
 _atom_site_hle17_bader_spin_density
 _atom_site_hle17_ddec_charge
 _atom_site_hle17_ddec_spin_density
 _atom_site_hle17_ddec_sum_bond_order
 _atom_site_hle17_magmom
 _atom_site_hse06_10hf_bader_spin_density
 _atom_site_hse06_10hf_ddec_charge
 _atom_site_hse06_10hf_ddec_spin_density
 _atom_site_hse06_10hf_ddec_sum_bond_order
 _atom_site_hse06_10hf_magmom
 _atom_site_hse06_bader_spin_density
 _atom_site_hse06_ddec_charge
 _atom_site_hse06_ddec_spin_density
 _atom_site_hse06_ddec_sum_bond_order
 _atom_site_hse06_magmom
 _atom_site_pbe_bader_spin_density
 _atom_site_pbe_cm5_charge
 _atom_site_pbe_ddec_charge
 _atom_site_pbe_ddec_spin_density
 _atom_site_pbe_ddec_sum_bond_order
 _atom_site_pbe_magmom
Na  Na0  1  0.31843681  0.65647677  0.99992169  1  0  0.904409  0  0.386701  0  0  0.86684  0  0.537317  0  0  0.876376  0  0.515027  0  0  0.66774  0.859561  0  0.553588  0
Na  Na1  1  0.68181023  0.34374704  0.00008521  1  0  0.904345  0  0.386534  0  0  0.866788  0  0.537136  0  0  0.876331  0  0.514836  0  0  0.667288  0.859508  0  0.553422  0
Cd  Cd2  1  0.00008444  0.99993187  0.99999749  1  0  1.400403  0  1.525014  0  0  1.247987  0  1.971753  0  0  1.293266  0  1.91081  0  0  0.808856  1.215124  0  2.014413  0
H  H3  1  0.36386906  0.50019208  0.27161650  1  0  0.115422  0  0.966316  0  0  0.124124  0  1.026114  0  0  0.129093  0  1.02279  0  0  0.120038  0.120385  0  1.028943  0
H  H4  1  0.63603004  0.49980060  0.72839199  1  0  0.115425  0  0.966252  0  0  0.124103  0  1.026085  0  0  0.129102  0  1.022724  0  0  0.120022  0.120361  0  1.028918  0
H  H5  1  0.11948157  0.49989529  0.76173061  1  0  0.11199  0  0.967676  0  0  0.118526  0  1.031133  0  0  0.12381  0  1.026725  0  0  0.116641  0.11459  0  1.034575  0
H  H6  1  0.88053757  0.50008718  0.23827902  1  0  0.111841  0  0.967706  0  0  0.118398  0  1.031212  0  0  0.123692  0  1.02679  0  0  0.116584  0.114461  0  1.034661  0
H  H7  1  0.93026000  0.92817756  0.28001329  1  0  0.440873  0  0.859082  0  0  0.405683  0  0.927069  0  0  0.417864  0  0.909339  0  0  0.290587  0.396917  0  0.939828  0
H  H8  1  0.78791261  0.07188785  0.27985923  1  0  0.441194  0  0.85834  0  0  0.406408  0  0.925598  0  0  0.418562  0  0.907911  0  0  0.291371  0.397665  0  0.938314  0
H  H9  1  0.06984822  0.07182377  0.72001201  1  0  0.440739  0  0.859269  0  0  0.405793  0  0.926958  0  0  0.417965  0  0.909241  0  0  0.290807  0.397026  0  0.939715  0
H  H10  1  0.21220958  0.92811174  0.72012161  1  0  0.441213  0  0.858313  0  0  0.406314  0  0.925725  0  0  0.418465  0  0.908051  0  0  0.291452  0.397569  0  0.938444  0
H  H11  1  0.76034727  0.60154861  0.92198198  1  0  0.428715  0  0.871238  0  0  0.400518  0  0.930737  0  0  0.410134  0  0.916497  0  0  0.296613  0.39366  0  0.940914  0
H  H12  1  0.31772184  0.39854238  0.92198310  1  0  0.427104  0  0.872925  0  0  0.398903  0  0.932604  0  0  0.408465  0  0.918419  0  0  0.295868  0.39205  0  0.942774  0
H  H13  1  0.23969257  0.39850911  0.07802135  1  0  0.428259  0  0.871794  0  0  0.400054  0  0.931295  0  0  0.409673  0  0.917053  0  0  0.29658  0.393199  0  0.941465  0
H  H14  1  0.68232220  0.60151428  0.07801522  1  0  0.427742  0  0.872193  0  0  0.399533  0  0.931865  0  0  0.4091  0  0.917674  0  0  0.296094  0.392683  0  0.942027  0
H  H15  1  0.40691500  0.87945492  0.07913505  1  0  0.452592  0  0.798127  0  0  0.428409  0  0.859205  0  0  0.437772  0  0.845194  0  0  0.331907  0.421476  0  0.869655  0
H  H16  1  0.51433294  0.12037800  0.07912324  1  0  0.452217  0  0.800424  0  0  0.428291  0  0.85953  0  0  0.437661  0  0.845525  0  0  0.331614  0.421452  0  0.869818  0
H  H17  1  0.59302919  0.12132122  0.92077687  1  0  0.452865  0  0.798337  0  0  0.428604  0  0.859095  0  0  0.437984  0  0.84506  0  0  0.331616  0.421662  0  0.86956  0
H  H18  1  0.48555132  0.88037757  0.92085594  1  0  0.451808  0  0.799379  0  0  0.427965  0  0.859564  0  0  0.437321  0  0.845571  0  0  0.331658  0.421141  0  0.869834  0
H  H19  1  0.95252055  0.76860725  0.92027916  1  0  0.434927  0  0.866551  0  0  0.402771  0  0.931616  0  0  0.413479  0  0.915917  0  0  0.298251  0.395178  0  0.94274  0
H  H20  1  0.12697581  0.23137977  0.92072360  1  0  0.434397  0  0.867321  0  0  0.401589  0  0.933507  0  0  0.412375  0  0.917703  0  0  0.296937  0.393939  0  0.944713  0
H  H21  1  0.04744691  0.23137260  0.07972735  1  0  0.434947  0  0.866521  0  0  0.402762  0  0.931636  0  0  0.413475  0  0.915929  0  0  0.298245  0.39517  0  0.942758  0
H  H22  1  0.87299974  0.76860095  0.07928060  1  0  0.434388  0  0.867357  0  0  0.401722  0  0.933352  0  0  0.412509  0  0.917548  0  0  0.297028  0.394071  0  0.944559  0
H  H23  1  0.90730216  0.82799440  0.52636841  1  0  0.396905  0  0.922689  0  0  0.362773  0  0.994576  0  0  0.376181  0  0.976411  0  0  0.297342  0.353444  0  1.007183  0
H  H24  1  0.56698056  0.17225492  0.52667483  1  0  0.397842  0  0.921515  0  0  0.363197  0  0.994154  0  0  0.376615  0  0.975975  0  0  0.297312  0.353758  0  1.006918  0
H  H25  1  0.09268418  0.17199503  0.47364646  1  0  0.396909  0  0.922915  0  0  0.36279  0  0.994608  0  0  0.376195  0  0.976448  0  0  0.297431  0.353454  0  1.007225  0
H  H26  1  0.43301094  0.82773412  0.47331791  1  0  0.397751  0  0.921608  0  0  0.363138  0  0.994239  0  0  0.376552  0  0.976067  0  0  0.29722  0.3537  0  1.007001  0
C  C27  1  0.30948966  0.50012507  0.38071227  1  0  -0.075477  0  3.723709  0  0  -0.108786  0  3.974303  0  0  -0.111354  0  3.995564  0  0  -0.076028  -0.107061  0  3.960366  0
C  C28  1  0.69044709  0.49984731  0.61929481  1  0  -0.075618  0  3.723944  0  0  -0.108929  0  3.974659  0  0  -0.111521  0  3.9959  0  0  -0.07603  -0.107166  0  3.960742  0
C  C29  1  0.17406070  0.49998018  0.65268716  1  0  -0.054941  0  3.694443  0  0  -0.094254  0  3.951192  0  0  -0.094748  0  3.970982  0  0  -0.071333  -0.093607  0  3.937919  0
C  C30  1  0.82592849  0.49998716  0.34732119  1  0  -0.054752  0  3.694498  0  0  -0.094296  0  3.951327  0  0  -0.094787  0  3.971104  0  0  -0.071303  -0.09364  0  3.938049  0
C  C31  1  0.16931074  0.61175216  0.44500590  1  0  -0.066644  0  3.67484  0  0  -0.056141  0  3.91922  0  0  -0.060062  0  3.940779  0  0  -0.00444  -0.053439  0  3.904594  0
C  C32  1  0.38560195  0.38839922  0.44515167  1  0  -0.066083  0  3.674168  0  0  -0.055538  0  3.917347  0  0  -0.059428  0  3.938959  0  0  -0.004462  -0.053047  0  3.902872  0
C  C33  1  0.83062215  0.38821284  0.55501662  1  0  -0.066684  0  3.674727  0  0  -0.056246  0  3.918968  0  0  -0.060184  0  3.940561  0  0  -0.004536  -0.053563  0  3.904361  0
C  C34  1  0.61434751  0.61156899  0.55483778  1  0  -0.065714  0  3.674271  0  0  -0.055222  0  3.917521  0  0  -0.059073  0  3.939101  0  0  -0.004381  -0.052822  0  3.90317  0
C  C35  1  0.09656101  0.61143251  0.58762482  1  0  -0.085414  0  3.681315  0  0  -0.071541  0  3.926481  0  0  -0.077181  0  3.948365  0  0  -0.007108  -0.067726  0  3.911589  0
C  C36  1  0.31636594  0.38862935  0.58777135  1  0  -0.086725  0  3.68321  0  0  -0.071809  0  3.927156  0  0  -0.077592  0  3.949212  0  0  -0.008326  -0.068031  0  3.912306  0
C  C37  1  0.90340640  0.38853597  0.41238792  1  0  -0.085528  0  3.68135  0  0  -0.071326  0  3.92625  0  0  -0.07697  0  3.948144  0  0  -0.007094  -0.067499  0  3.911353  0
C  C38  1  0.68361343  0.61133789  0.41222759  1  0  -0.086826  0  3.683381  0  0  -0.071781  0  3.927325  0  0  -0.077573  0  3.949377  0  0  -0.008266  -0.068002  0  3.91253  0
C  C39  1  0.94303953  0.71758873  0.68254273  1  0  0.673636  0  3.805784  0  0  0.613574  0  4.118413  0  0  0.647089  0  4.109959  0  0  0.237344  0.590877  0  4.123485  0
C  C40  1  0.37502309  0.28227036  0.68279023  1  0  0.673265  0  3.805605  0  0  0.612749  0  4.118605  0  0  0.646314  0  4.110152  0  0  0.238021  0.590041  0  4.123685  0
C  C41  1  0.05696193  0.28239397  0.31747501  1  0  0.673641  0  3.805387  0  0  0.613468  0  4.118026  0  0  0.646991  0  4.109573  0  0  0.237316  0.590769  0  4.123096  0
C  C42  1  0.62499316  0.71770713  0.31720542  1  0  0.673381  0  3.805873  0  0  0.612794  0  4.118994  0  0  0.646357  0  4.11054  0  0  0.237993  0.590096  0  4.124071  0
C  C43  1  0.11545565  0.71809838  0.34805032  1  0  0.658634  0  3.881776  0  0  0.603637  0  4.190278  0  0  0.635714  0  4.184134  0  0  0.219241  0.581905  0  4.193662  0
C  C44  1  0.53606667  0.28215941  0.34827727  1  0  0.659663  0  3.881918  0  0  0.605154  0  4.189626  0  0  0.63723  0  4.183502  0  0  0.220032  0.583414  0  4.193003  0
C  C45  1  0.88440645  0.28185385  0.65198433  1  0  0.659175  0  3.881119  0  0  0.604275  0  4.189508  0  0  0.636347  0  4.183356  0  0  0.219438  0.582535  0  4.192907  0
C  C46  1  0.46381825  0.71779461  0.65169865  1  0  0.658898  0  3.882444  0  0  0.60432  0  4.190265  0  0  0.636374  0  4.18416  0  0  0.219593  0.582612  0  4.193638  0
O  O47  1  0.90097758  0.69791765  0.80674052  1  0  -0.625529  0  2.04353  0  0  -0.562455  0  2.26626  0  0  -0.585551  0  2.254018  0  0  -0.295049  -0.546219  0  2.2743  0
O  O48  1  0.29286463  0.30159133  0.80697073  1  0  -0.625446  0  2.042178  0  0  -0.561865  0  2.265254  0  0  -0.585005  0  2.252979  0  0  -0.295074  -0.54572  0  2.273408  0
O  O49  1  0.09907831  0.30205219  0.19326826  1  0  -0.625853  0  2.043173  0  0  -0.562722  0  2.265915  0  0  -0.58584  0  2.25367  0  0  -0.295246  -0.546486  0  2.273963  0
O  O50  1  0.70719399  0.69837079  0.19303433  1  0  -0.625293  0  2.04231  0  0  -0.561752  0  2.265395  0  0  -0.584886  0  2.253128  0  0  -0.295001  -0.545611  0  2.273535  0
O  O51  1  0.85569622  0.82580582  0.63775763  1  0  -0.521002  0  2.06582  0  0  -0.473756  0  2.277043  0  0  -0.494956  0  2.259569  0  0  -0.310045  -0.459359  0  2.289018  0
O  O52  1  0.50730395  0.17425578  0.63808776  1  0  -0.521626  0  2.066908  0  0  -0.474185  0  2.278697  0  0  -0.495418  0  2.261225  0  0  -0.310443  -0.459542  0  2.290725  0
O  O53  1  0.14432190  0.17418748  0.36227161  1  0  -0.520895  0  2.06601  0  0  -0.473632  0  2.277136  0  0  -0.494834  0  2.259664  0  0  -0.310054  -0.459234  0  2.289117  0
O  O54  1  0.49273708  0.82573186  0.36189447  1  0  -0.521719  0  2.066878  0  0  -0.474305  0  2.278713  0  0  -0.495535  0  2.261249  0  0  -0.310435  -0.459663  0  2.290732  0
O  O55  1  0.97346813  0.82224729  0.39607003  1  0  -0.595448  0  2.068782  0  0  -0.528181  0  2.27567  0  0  -0.554118  0  2.262525  0  0  -0.303817  -0.510113  0  2.284477  0
O  O56  1  0.63077846  0.17810496  0.39631656  1  0  -0.597049  0  2.069203  0  0  -0.529957  0  2.2762  0  0  -0.555852  0  2.263053  0  0  -0.303699  -0.511756  0  2.28499  0
O  O57  1  0.02643851  0.17772868  0.60397153  1  0  -0.595411  0  2.069015  0  0  -0.52828  0  2.27585  0  0  -0.554183  0  2.262685  0  0  -0.303652  -0.51019  0  2.284649  0
O  O58  1  0.36915249  0.82187254  0.60365047  1  0  -0.597032  0  2.069443  0  0  -0.529876  0  2.276404  0  0  -0.555772  0  2.263281  0  0  -0.303546  -0.511665  0  2.285176  0
O  O59  1  0.20739666  0.70082723  0.22547295  1  0  -0.639731  0  1.940338  0  0  -0.597302  0  2.176611  0  0  -0.618885  0  2.16768  0  0  -0.378064  -0.581981  0  2.18229  0
O  O60  1  0.56568174  0.29949872  0.22572533  1  0  -0.639915  0  1.940496  0  0  -0.597866  0  2.176789  0  0  -0.619474  0  2.167863  0  0  -0.378754  -0.58268  0  2.182667  0
O  O61  1  0.79234358  0.29908376  0.77456928  1  0  -0.640519  0  1.939677  0  0  -0.598193  0  2.176129  0  0  -0.619789  0  2.167177  0  0  -0.378335  -0.582868  0  2.181835  0
O  O62  1  0.43408759  0.70042147  0.77424475  1  0  -0.638825  0  1.940874  0  0  -0.596586  0  2.176912  0  0  -0.618196  0  2.16804  0  0  -0.37841  -0.581401  0  2.18275  0
O  O63  1  0.67366575  0.56291540  0.00003769  1  0  -0.915001  0  1.728529  0  0  -0.874587  0  1.895195  0  0  -0.889851  0  1.862403  0  0  -0.693373  -0.863729  0  1.918538  0
O  O64  1  0.32657351  0.43702084  0.99996498  1  0  -0.913905  0  1.729495  0  0  -0.873485  0  1.896114  0  0  -0.888742  0  1.86334  0  0  -0.692657  -0.862626  0  1.919437  0
O  O65  1  0.36182121  0.89133396  0.00004348  1  0  -0.870014  0  1.82214  0  0  -0.822301  0  2.015722  0  0  -0.839022  0  1.980568  0  0  -0.580095  -0.810502  0  2.041001  0
O  O66  1  0.63820370  0.10760713  0.99990180  1  0  -0.870902  0  1.821464  0  0  -0.822902  0  2.013467  0  0  -0.839623  0  1.978232  0  0  -0.579514  -0.81111  0  2.038802  0
O  O67  1  0.98159235  0.79122617  0.99977441  1  0  -0.911567  0  1.883053  0  0  -0.852928  0  2.090179  0  0  -0.875185  0  2.054304  0  0  -0.626723  -0.836941  0  2.115088  0
O  O68  1  0.01839591  0.20873918  0.00022842  1  0  -0.911845  0  1.882998  0  0  -0.853103  0  2.090386  0  0  -0.875332  0  2.054465  0  0  -0.626797  -0.837138  0  2.115324  0
O  O69  1  0.88797597  0.99979965  0.22000086  1  0  -0.90631  0  1.851341  0  0  -0.833904  0  2.061532  0  0  -0.857926  0  2.022154  0  0  -0.60479  -0.816629  0  2.089346  0
O  O70  1  0.11242093  0.00026750  0.77999934  1  0  -0.906274  0  1.851627  0  0  -0.833963  0  2.061549  0  0  -0.857985  0  2.022178  0  0  -0.605205  -0.81669  0  2.089377  0
