# generated using pymatgen
data_CuH3C4SBrN2
_symmetry_space_group_name_H-M   'P 1'
_cell_length_a   3.95393451
_cell_length_b   7.82854502
_cell_length_c   21.57543707
_cell_angle_alpha   94.67892217
_cell_angle_beta   89.94416821
_cell_angle_gamma   104.69328738
_symmetry_Int_Tables_number   1
_chemical_formula_structural   CuH3C4SBrN2
_chemical_formula_sum   'Cu4 H12 C16 S4 Br4 N8'
_cell_volume   643.70906769
_cell_formula_units_Z   4
loop_
 _symmetry_equiv_pos_site_id
 _symmetry_equiv_pos_as_xyz
  1  'x, y, z'
loop_
 _atom_site_type_symbol
 _atom_site_label
 _atom_site_symmetry_multiplicity
 _atom_site_fract_x
 _atom_site_fract_y
 _atom_site_fract_z
 _atom_site_occupancy
 _atom_site_hle17_bader_spin_density
 _atom_site_hle17_ddec_charge
 _atom_site_hle17_ddec_spin_density
 _atom_site_hle17_ddec_sum_bond_order
 _atom_site_hle17_magmom
 _atom_site_hse06_10hf_bader_spin_density
 _atom_site_hse06_10hf_ddec_charge
 _atom_site_hse06_10hf_ddec_spin_density
 _atom_site_hse06_10hf_ddec_sum_bond_order
 _atom_site_hse06_10hf_magmom
 _atom_site_hse06_bader_spin_density
 _atom_site_hse06_ddec_charge
 _atom_site_hse06_ddec_spin_density
 _atom_site_hse06_ddec_sum_bond_order
 _atom_site_hse06_magmom
 _atom_site_pbe_bader_spin_density
 _atom_site_pbe_cm5_charge
 _atom_site_pbe_ddec_charge
 _atom_site_pbe_ddec_spin_density
 _atom_site_pbe_ddec_sum_bond_order
 _atom_site_pbe_magmom
Cu  Cu0  1  0.25479262  0.98490368  0.42935461  1  0  0.420589  0  1.934185  0  0  0.326618  0  2.407482  0  0  0.331853  0  2.358988  0  0  0.341223  0.32516  0  2.439452  0
Cu  Cu1  1  0.26888851  0.01375065  0.07009155  1  0  0.41931  0  1.944195  0  0  0.326116  0  2.417945  0  0  0.331144  0  2.369579  0  0  0.341704  0.324833  0  2.449733  0
Cu  Cu2  1  0.74520443  0.01509525  0.57064573  1  0  0.420582  0  1.934103  0  0  0.32655  0  2.407456  0  0  0.3318  0  2.358952  0  0  0.34122  0.325106  0  2.439398  0
Cu  Cu3  1  0.73112757  0.98625093  0.92990934  1  0  0.419303  0  1.944158  0  0  0.326083  0  2.417906  0  0  0.331063  0  2.369612  0  0  0.341717  0.324805  0  2.449681  0
H  H4  1  0.99268263  0.54194088  0.28531283  1  0  0.081034  0  0.967017  0  0  0.084975  0  1.036733  0  0  0.088706  0  1.03207  0  0  0.112338  0.08215  0  1.040256  0
H  H5  1  0.44530389  0.45551062  0.21358364  1  0  0.081385  0  0.964573  0  0  0.085552  0  1.034251  0  0  0.089332  0  1.029525  0  0  0.112574  0.082749  0  1.037724  0
H  H6  1  0.00730044  0.45805538  0.71468836  1  0  0.081098  0  0.966934  0  0  0.085024  0  1.036677  0  0  0.088723  0  1.032048  0  0  0.112331  0.082197  0  1.040202  0
H  H7  1  0.55468039  0.54448300  0.78641701  1  0  0.081466  0  0.964505  0  0  0.085584  0  1.03424  0  0  0.089365  0  1.029511  0  0  0.112568  0.082778  0  1.037719  0
H  H8  1  0.17686748  0.55404637  0.39784564  1  0  0.118976  0  0.982348  0  0  0.126962  0  1.044785  0  0  0.130933  0  1.044441  0  0  0.091782  0.123937  0  1.045571  0
H  H9  1  0.61980425  0.44449751  0.10105661  1  0  0.119996  0  0.981757  0  0  0.128004  0  1.043973  0  0  0.131871  0  1.043739  0  0  0.091875  0.125041  0  1.044679  0
H  H10  1  0.82312958  0.44595257  0.60215378  1  0  0.118926  0  0.982265  0  0  0.126934  0  1.044689  0  0  0.130906  0  1.044343  0  0  0.091792  0.123912  0  1.045483  0
H  H11  1  0.38020797  0.55550141  0.89894466  1  0  0.119997  0  0.981832  0  0  0.128063  0  1.043968  0  0  0.131935  0  1.043727  0  0  0.091889  0.125066  0  1.044705  0
H  H12  1  0.83351071  0.31111291  0.46168813  1  0  0.085738  0  0.949645  0  0  0.093914  0  1.014745  0  0  0.097602  0  1.010102  0  0  0.104015  0.090824  0  1.018783  0
H  H13  1  0.52119711  0.68799624  0.03745518  1  0  0.085824  0  0.949186  0  0  0.094655  0  1.013839  0  0  0.098388  0  1.009134  0  0  0.103882  0.091536  0  1.017868  0
H  H14  1  0.16648368  0.68888070  0.53831298  1  0  0.085697  0  0.94976  0  0  0.09388  0  1.014838  0  0  0.097567  0  1.010194  0  0  0.104039  0.090794  0  1.018865  0
H  H15  1  0.47882976  0.31200667  0.96254575  1  0  0.085836  0  0.94914  0  0  0.094628  0  1.013843  0  0  0.09836  0  1.009138  0  0  0.103898  0.091508  0  1.017873  0
C  C16  1  0.46258721  0.17715548  0.32429355  1  0  0.324395  0  3.844588  0  0  0.307992  0  4.121447  0  0  0.321943  0  4.138566  0  0  0.227922  0.298571  0  4.110107  0
C  C17  1  0.28256765  0.82088827  0.17495306  1  0  0.327072  0  3.843382  0  0  0.309333  0  4.122702  0  0  0.323247  0  4.139823  0  0  0.228977  0.299945  0  4.111329  0
C  C18  1  0.53740291  0.82284476  0.67570729  1  0  0.324241  0  3.844634  0  0  0.307879  0  4.121416  0  0  0.321834  0  4.138548  0  0  0.227895  0.298463  0  4.110081  0
C  C19  1  0.71743831  0.17911330  0.82504829  1  0  0.327158  0  3.843147  0  0  0.309414  0  4.12243  0  0  0.323326  0  4.139551  0  0  0.228981  0.300022  0  4.111066  0
C  C20  1  0.86883405  0.43723713  0.31480452  1  0  0.189879  0  3.642596  0  0  0.161275  0  3.900532  0  0  0.173646  0  3.911869  0  0  0.061288  0.153042  0  3.893104  0
C  C21  1  0.42749814  0.56065826  0.18420886  1  0  0.191436  0  3.641601  0  0  0.162279  0  3.899868  0  0  0.174674  0  3.911097  0  0  0.062258  0.154036  0  3.892479  0
C  C22  1  0.13117711  0.56276976  0.68519514  1  0  0.189709  0  3.642916  0  0  0.161107  0  3.900885  0  0  0.1735  0  3.912242  0  0  0.061284  0.152879  0  3.893463  0
C  C23  1  0.57249638  0.43934067  0.81579194  1  0  0.191377  0  3.641709  0  0  0.162254  0  3.899969  0  0  0.174646  0  3.911205  0  0  0.062244  0.154009  0  3.892565  0
C  C24  1  0.96706449  0.44617829  0.37717619  1  0  -0.162532  0  3.690931  0  0  -0.175457  0  3.941823  0  0  -0.185944  0  3.959766  0  0  -0.094683  -0.169147  0  3.930662  0
C  C25  1  0.51793290  0.55220661  0.12185231  1  0  -0.165229  0  3.691468  0  0  -0.178185  0  3.942941  0  0  -0.188619  0  3.960941  0  0  -0.09628  -0.171909  0  3.931772  0
C  C26  1  0.03292628  0.55382324  0.62282748  1  0  -0.162421  0  3.690839  0  0  -0.175378  0  3.941752  0  0  -0.185865  0  3.959689  0  0  -0.094684  -0.169065  0  3.930605  0
C  C27  1  0.48208517  0.44779894  0.87814917  1  0  -0.165282  0  3.691619  0  0  -0.178264  0  3.94304  0  0  -0.188703  0  3.961041  0  0  -0.096288  -0.17196  0  3.931879  0
C  C28  1  0.78242862  0.31336775  0.41218603  1  0  0.192361  0  3.637417  0  0  0.152453  0  3.898314  0  0  0.167612  0  3.90531  0  0  0.052852  0.142205  0  3.894276  0
C  C29  1  0.46690648  0.68527867  0.08695234  1  0  0.191304  0  3.639622  0  0  0.151452  0  3.899455  0  0  0.16657  0  3.906459  0  0  0.053036  0.141228  0  3.895375  0
C  C30  1  0.21756526  0.68662988  0.58781195  1  0  0.19233  0  3.637046  0  0  0.152412  0  3.897947  0  0  0.167584  0  3.904943  0  0  0.05284  0.142164  0  3.89392  0
C  C31  1  0.53311532  0.31472423  0.91304905  1  0  0.191255  0  3.639665  0  0  0.151377  0  3.899584  0  0  0.166489  0  3.906581  0  0  0.052915  0.141153  0  3.895493  0
S  S32  1  0.13187524  0.98741445  0.29819214  1  0  0.009363  0  2.403159  0  0  -0.010559  0  2.802808  0  0  -0.003367  0  2.790498  0  0  0.033972  -0.015503  0  2.810985  0
S  S33  1  0.14260314  0.01056294  0.20125036  1  0  0.008538  0  2.40393  0  0  -0.01137  0  2.804733  0  0  -0.004173  0  2.792517  0  0  0.03385  -0.016319  0  2.812848  0
S  S34  1  0.86811608  0.01258315  0.70180863  1  0  0.009362  0  2.40325  0  0  -0.010579  0  2.80289  0  0  -0.003391  0  2.790578  0  0  0.033982  -0.01553  0  2.811077  0
S  S35  1  0.85740656  0.98943599  0.79874998  1  0  0.008561  0  2.403898  0  0  -0.011351  0  2.804689  0  0  -0.004133  0  2.792435  0  0  0.033883  -0.016294  0  2.812796  0
Br  Br36  1  0.69745851  0.80987058  0.45162838  1  0  -0.490681  0  1.512992  0  0  -0.417487  0  1.928335  0  0  -0.437964  0  1.889371  0  0  -0.232732  -0.402721  0  1.95525  0
Br  Br37  1  0.88643654  0.18894129  0.04850581  1  0  -0.489328  0  1.525652  0  0  -0.416662  0  1.943138  0  0  -0.436986  0  1.90412  0  0  -0.23179  -0.402004  0  1.969905  0
Br  Br38  1  0.30251389  0.19012451  0.54835980  1  0  -0.490694  0  1.513032  0  0  -0.417448  0  1.92833  0  0  -0.43793  0  1.889364  0  0  -0.232705  -0.402672  0  1.955239  0
Br  Br39  1  0.11357629  0.81105375  0.95148699  1  0  -0.489315  0  1.525536  0  0  -0.41667  0  1.943047  0  0  -0.436985  0  1.904042  0  0  -0.231822  -0.402031  0  1.969833  0
N  N40  1  0.52479133  0.17925702  0.38620930  1  0  -0.381174  0  3.422001  0  0  -0.305289  0  3.720078  0  0  -0.320949  0  3.723513  0  0  -0.379466  -0.295629  0  3.71772  0
N  N41  1  0.34327053  0.81914319  0.11304566  1  0  -0.381239  0  3.425061  0  0  -0.305498  0  3.723315  0  0  -0.32108  0  3.726822  0  0  -0.380391  -0.295892  0  3.720864  0
N  N42  1  0.47520903  0.82074852  0.61379217  1  0  -0.38108  0  3.421701  0  0  -0.305156  0  3.719696  0  0  -0.32084  0  3.723156  0  0  -0.379433  -0.295497  0  3.717349  0
N  N43  1  0.65674633  0.18086500  0.88695636  1  0  -0.381206  0  3.425017  0  0  -0.305375  0  3.723158  0  0  -0.320936  0  3.72664  0  0  -0.380324  -0.295772  0  3.720706  0
N  N44  1  0.61722465  0.30195809  0.28799013  1  0  -0.388215  0  3.107561  0  0  -0.345639  0  3.37134  0  0  -0.364305  0  3.388385  0  0  -0.318862  -0.333175  0  3.359876  0
N  N45  1  0.31138759  0.69579626  0.21109780  1  0  -0.388796  0  3.109487  0  0  -0.345436  0  3.373319  0  0  -0.364128  0  3.390423  0  0  -0.319362  -0.332964  0  3.3618  0
N  N46  1  0.38276546  0.69804214  0.71201211  1  0  -0.388043  0  3.107617  0  0  -0.345474  0  3.371358  0  0  -0.36414  0  3.388398  0  0  -0.318841  -0.333009  0  3.359895  0
N  N47  1  0.68861078  0.30420531  0.78890309  1  0  -0.388858  0  3.109542  0  0  -0.345493  0  3.373333  0  0  -0.36418  0  3.390424  0  0  -0.319362  -0.333019  0  3.361816  0
