# generated using pymatgen
data_CuH14C13SN3
_symmetry_space_group_name_H-M   'P 1'
_cell_length_a   5.73864865
_cell_length_b   8.34778868
_cell_length_c   14.16366341
_cell_angle_alpha   106.65382215
_cell_angle_beta   89.99806993
_cell_angle_gamma   90.00131967
_symmetry_Int_Tables_number   1
_chemical_formula_structural   CuH14C13SN3
_chemical_formula_sum   'Cu2 H28 C26 S2 N6'
_cell_volume   650.04971169
_cell_formula_units_Z   2
loop_
 _symmetry_equiv_pos_site_id
 _symmetry_equiv_pos_as_xyz
  1  'x, y, z'
loop_
 _atom_site_type_symbol
 _atom_site_label
 _atom_site_symmetry_multiplicity
 _atom_site_fract_x
 _atom_site_fract_y
 _atom_site_fract_z
 _atom_site_occupancy
 _atom_site_hle17_bader_spin_density
 _atom_site_hle17_ddec_charge
 _atom_site_hle17_ddec_spin_density
 _atom_site_hle17_ddec_sum_bond_order
 _atom_site_hle17_magmom
 _atom_site_hse06_10hf_bader_spin_density
 _atom_site_hse06_10hf_ddec_charge
 _atom_site_hse06_10hf_ddec_spin_density
 _atom_site_hse06_10hf_ddec_sum_bond_order
 _atom_site_hse06_10hf_magmom
 _atom_site_hse06_bader_spin_density
 _atom_site_hse06_ddec_charge
 _atom_site_hse06_ddec_spin_density
 _atom_site_hse06_ddec_sum_bond_order
 _atom_site_hse06_magmom
 _atom_site_pbe_bader_spin_density
 _atom_site_pbe_cm5_charge
 _atom_site_pbe_ddec_charge
 _atom_site_pbe_ddec_spin_density
 _atom_site_pbe_ddec_sum_bond_order
 _atom_site_pbe_magmom
Cu  Cu0  1  0.45625618  0.49074353  0.77230078  1  0  0.421633  0  2.200369  0  0  0.319425  0  2.71417  0  0  0.308758  0  2.676928  0  0  0.529398  0.331543  0  2.735046  0
Cu  Cu1  1  0.95622924  0.50924071  0.22768732  1  0  0.421695  0  2.200047  0  0  0.319494  0  2.71382  0  0  0.308844  0  2.676556  0  0  0.529354  0.331627  0  2.734658  0
H  H2  1  0.67426960  0.54545033  0.59453870  1  0  0.07219  0  0.962161  0  0  0.078482  0  1.031195  0  0  0.0804  0  1.0305  0  0  0.108056  0.077031  0  1.031827  0
H  H3  1  0.17423288  0.45457066  0.40544933  1  0  0.071992  0  0.962122  0  0  0.078253  0  1.031216  0  0  0.080168  0  1.030525  0  0  0.107913  0.076805  0  1.031845  0
H  H4  1  0.57989933  0.68693740  0.46573246  1  0  0.106164  0  0.964381  0  0  0.114384  0  1.028849  0  0  0.116946  0  1.029423  0  0  0.101085  0.112462  0  1.028738  0
H  H5  1  0.07990193  0.31306332  0.53425127  1  0  0.106259  0  0.964264  0  0  0.114468  0  1.02875  0  0  0.117033  0  1.029318  0  0  0.101141  0.112535  0  1.028652  0
H  H6  1  0.94650209  0.86429728  0.62580828  1  0  0.102184  0  0.965982  0  0  0.114945  0  1.025874  0  0  0.117203  0  1.026708  0  0  0.103699  0.11328  0  1.02553  0
H  H7  1  0.44642996  0.13572953  0.37422665  1  0  0.102143  0  0.965823  0  0  0.114787  0  1.025896  0  0  0.117025  0  1.026756  0  0  0.103663  0.113162  0  1.025506  0
H  H8  1  0.06195209  0.70973834  0.74534541  1  0  0.069408  0  0.947732  0  0  0.077671  0  1.015304  0  0  0.080221  0  1.01281  0  0  0.109012  0.075734  0  1.017224  0
H  H9  1  0.56185115  0.29032121  0.25469857  1  0  0.069302  0  0.94801  0  0  0.077556  0  1.015576  0  0  0.080093  0  1.013087  0  0  0.108984  0.075622  0  1.017501  0
H  H10  1  0.32740266  0.87062721  0.40719501  1  0  0.104522  0  0.991214  0  0  0.123164  0  1.057652  0  0  0.124176  0  1.058322  0  0  0.084995  0.122329  0  1.05726  0
H  H11  1  0.82742455  0.12934669  0.59279655  1  0  0.104465  0  0.991135  0  0  0.123082  0  1.057605  0  0  0.124096  0  1.058273  0  0  0.084988  0.122248  0  1.05722  0
H  H12  1  0.02854141  0.82874717  0.42257365  1  0  0.11749  0  0.96202  0  0  0.136557  0  1.029806  0  0  0.138897  0  1.028082  0  0  0.087182  0.134713  0  1.031196  0
H  H13  1  0.52855448  0.17117345  0.57742268  1  0  0.117532  0  0.96184  0  0  0.136643  0  1.029571  0  0  0.138982  0  1.027843  0  0  0.087219  0.134802  0  1.03096  0
H  H14  1  0.15778906  0.01291705  0.49968824  1  0  0.108061  0  0.97435  0  0  0.129068  0  1.040081  0  0  0.13004  0  1.040901  0  0  0.08958  0.128358  0  1.039501  0
H  H15  1  0.65785551  0.98704262  0.50028829  1  0  0.108186  0  0.974424  0  0  0.12922  0  1.040115  0  0  0.130195  0  1.040933  0  0  0.089702  0.128509  0  1.039536  0
H  H16  1  0.05756233  0.50868658  0.91702446  1  0  0.074675  0  0.970469  0  0  0.083433  0  1.034004  0  0  0.084857  0  1.034235  0  0  0.107598  0.082361  0  1.033927  0
H  H17  1  0.55752980  0.49129035  0.08296685  1  0  0.074663  0  0.970138  0  0  0.083302  0  1.03386  0  0  0.084721  0  1.034095  0  0  0.107567  0.082226  0  1.033786  0
H  H18  1  0.93704418  0.69838882  0.07970778  1  0  0.099487  0  0.989131  0  0  0.103565  0  1.063669  0  0  0.107751  0  1.061118  0  0  0.095652  0.100434  0  1.065802  0
H  H19  1  0.43705591  0.30157286  0.92027749  1  0  0.099398  0  0.989132  0  0  0.103489  0  1.063656  0  0  0.107689  0  1.061091  0  0  0.095637  0.100358  0  1.065798  0
H  H20  1  0.56713296  0.97956807  0.07856233  1  0  0.103055  0  0.952231  0  0  0.115041  0  1.010669  0  0  0.117779  0  1.011183  0  0  0.102277  0.113119  0  1.010399  0
H  H21  1  0.06719715  0.02043888  0.92142755  1  0  0.103075  0  0.951985  0  0  0.115004  0  1.010504  0  0  0.117691  0  1.011076  0  0  0.10221  0.113087  0  1.010221  0
H  H22  1  0.66343628  0.77847198  0.91657340  1  0  0.070085  0  0.94725  0  0  0.079211  0  1.013798  0  0  0.082055  0  1.010907  0  0  0.109681  0.077143  0  1.0159  0
H  H23  1  0.16344264  0.22156398  0.08342012  1  0  0.070026  0  0.947403  0  0  0.079202  0  1.013896  0  0  0.082046  0  1.011005  0  0  0.109623  0.077127  0  1.016007  0
H  H24  1  0.20897503  0.91063612  0.24900506  1  0  0.123741  0  0.952284  0  0  0.149345  0  1.007314  0  0  0.15019  0  1.008114  0  0  0.095484  0.148507  0  1.007014  0
H  H25  1  0.70903685  0.08933994  0.75097497  1  0  0.123752  0  0.952252  0  0  0.149383  0  1.007236  0  0  0.15023  0  1.008034  0  0  0.095506  0.148548  0  1.006929  0
H  H26  1  0.27157261  0.08969356  0.20928084  1  0  0.103688  0  0.962139  0  0  0.12447  0  1.027471  0  0  0.126304  0  1.026036  0  0  0.089314  0.123094  0  1.028528  0
H  H27  1  0.77161507  0.91029396  0.79071797  1  0  0.10359  0  0.96219  0  0  0.124346  0  1.027577  0  0  0.126184  0  1.02614  0  0  0.089214  0.12297  0  1.02863  0
H  H28  1  0.98621842  0.00100130  0.19515556  1  0  0.116118  0  0.949032  0  0  0.136426  0  1.011533  0  0  0.137967  0  1.011797  0  0  0.089615  0.135245  0  1.011426  0
H  H29  1  0.48626720  0.99899552  0.80483216  1  0  0.116222  0  0.948996  0  0  0.136507  0  1.0115  0  0  0.138054  0  1.011751  0  0  0.089624  0.135322  0  1.011402  0
C  C30  1  0.95764739  0.35601790  0.74551949  1  0  0.259703  0  4.026536  0  0  0.249331  0  4.324727  0  0  0.266145  0  4.338314  0  0  0.131017  0.238326  0  4.315018  0
C  C31  1  0.45763661  0.64397765  0.25449592  1  0  0.259715  0  4.026714  0  0  0.249356  0  4.324864  0  0  0.266172  0  4.338461  0  0  0.131049  0.238342  0  4.315163  0
C  C32  1  0.51396514  0.61724710  0.59838949  1  0  0.119745  0  3.714635  0  0  0.094807  0  3.961618  0  0  0.101504  0  3.977838  0  0  0.036054  0.090455  0  3.950899  0
C  C33  1  0.01392004  0.38278346  0.40160505  1  0  0.120087  0  3.714602  0  0  0.095155  0  3.961608  0  0  0.10185  0  3.977835  0  0  0.03625  0.090807  0  3.95088  0
C  C34  1  0.46073467  0.69714103  0.52731905  1  0  -0.189757  0  3.707231  0  0  -0.201514  0  3.941582  0  0  -0.210284  0  3.96355  0  0  -0.090966  -0.195922  0  3.927088  0
C  C35  1  0.96072500  0.30286324  0.47267801  1  0  -0.189872  0  3.706664  0  0  -0.201651  0  3.940984  0  0  -0.210418  0  3.962946  0  0  -0.091035  -0.196051  0  3.926502  0
C  C36  1  0.25436221  0.78985121  0.53516038  1  0  0.201821  0  3.72939  0  0  0.225336  0  3.957579  0  0  0.231457  0  3.979446  0  0  0.011625  0.221178  0  3.942774  0
C  C37  1  0.75432955  0.21016003  0.46484617  1  0  0.201702  0  3.729366  0  0  0.225306  0  3.957457  0  0  0.231425  0  3.979318  0  0  0.011643  0.221148  0  3.942659  0
C  C38  1  0.10954073  0.79467032  0.61568797  1  0  -0.185897  0  3.727297  0  0  -0.20308  0  3.968832  0  0  -0.212046  0  3.992675  0  0  -0.091253  -0.197312  0  3.952998  0
C  C39  1  0.60948702  0.20535808  0.38434169  1  0  -0.185602  0  3.727162  0  0  -0.202732  0  3.968719  0  0  -0.211679  0  3.992568  0  0  -0.091133  -0.196998  0  3.952865  0
C  C40  1  0.17356648  0.71024477  0.68300036  1  0  0.11403  0  3.737411  0  0  0.085464  0  3.992462  0  0  0.091489  0  4.009454  0  0  0.034502  0.081545  0  3.98124  0
C  C41  1  0.67347747  0.28980504  0.31702784  1  0  0.114071  0  3.737166  0  0  0.085524  0  3.992221  0  0  0.091562  0  4.009195  0  0  0.034592  0.081596  0  3.981019  0
C  C42  1  0.18949172  0.88030340  0.46193345  1  0  -0.348393  0  3.701498  0  0  -0.427854  0  3.927214  0  0  -0.430825  0  3.934915  0  0  -0.244712  -0.42545  0  3.922  0
C  C43  1  0.68951968  0.11965889  0.53805934  1  0  -0.34849  0  3.701252  0  0  -0.427991  0  3.926997  0  0  -0.430959  0  3.934687  0  0  -0.244891  -0.425594  0  3.921789  0
C  C44  1  0.16559043  0.61518701  0.95499903  1  0  0.112769  0  3.710195  0  0  0.088026  0  3.955147  0  0  0.09379  0  3.972705  0  0  0.032776  0.08386  0  3.944365  0
C  C45  1  0.66558219  0.38479272  0.04499772  1  0  0.112877  0  3.710201  0  0  0.088222  0  3.955164  0  0  0.093989  0  3.972729  0  0  0.032845  0.084091  0  3.944321  0
C  C46  1  0.09860496  0.72181366  0.04544306  1  0  -0.176976  0  3.709615  0  0  -0.192776  0  3.952846  0  0  -0.200609  0  3.973135  0  0  -0.090187  -0.187852  0  3.939679  0
C  C47  1  0.59860232  0.27817089  0.95455677  1  0  -0.176988  0  3.709576  0  0  -0.192783  0  3.952819  0  0  -0.200625  0  3.973099  0  0  -0.090285  -0.187872  0  3.939667  0
C  C48  1  0.24010812  0.85779710  0.09318845  1  0  0.195833  0  3.740191  0  0  0.217989  0  3.971529  0  0  0.223824  0  3.994336  0  0  0.008746  0.214019  0  3.956093  0
C  C49  1  0.74015535  0.14220406  0.90680105  1  0  0.19603  0  3.739975  0  0  0.218161  0  3.971349  0  0  0.224002  0  3.994142  0  0  0.008876  0.214182  0  3.955926  0
C  C50  1  0.44721521  0.87761778  0.04538186  1  0  -0.190859  0  3.729867  0  0  -0.206959  0  3.972002  0  0  -0.216077  0  3.995177  0  0  -0.093212  -0.201031  0  3.956544  0
C  C51  1  0.94724682  0.12238896  0.95461438  1  0  -0.190929  0  3.729869  0  0  -0.206979  0  3.972031  0  0  -0.216055  0  3.995224  0  0  -0.093126  -0.201058  0  3.956584  0
C  C52  1  0.50238419  0.76584466  0.95467797  1  0  0.117004  0  3.723937  0  0  0.089649  0  3.976717  0  0  0.096587  0  3.992368  0  0  0.033449  0.084786  0  3.966955  0
C  C53  1  0.00238754  0.23416462  0.04531455  1  0  0.117176  0  3.724009  0  0  0.0898  0  3.976729  0  0  0.096743  0  3.992372  0  0  0.033568  0.084971  0  3.966909  0
C  C54  1  0.17324415  0.97232616  0.19156581  1  0  -0.343802  0  3.701889  0  0  -0.425805  0  3.931696  0  0  -0.428539  0  3.939625  0  0  -0.240557  -0.423599  0  3.926377  0
C  C55  1  0.67329793  0.02767108  0.80842460  1  0  -0.343893  0  3.701971  0  0  -0.425883  0  3.931735  0  0  -0.428621  0  3.939664  0  0  -0.240519  -0.42367  0  3.926408  0
S  S56  1  0.20858597  0.25921000  0.73287533  1  0  -0.357187  0  2.387346  0  0  -0.33201  0  2.771516  0  0  -0.33991  0  2.757391  0  0  -0.170161  -0.326431  0  2.779965  0
S  S57  1  0.70856682  0.74080363  0.26713574  1  0  -0.357121  0  2.387113  0  0  -0.331929  0  2.77122  0  0  -0.339844  0  2.757103  0  0  -0.17012  -0.326339  0  2.779648  0
N  N58  1  0.77301803  0.42259559  0.75478185  1  0  -0.516541  0  3.140669  0  0  -0.472  0  3.483586  0  0  -0.479112  0  3.479193  0  0  -0.445702  -0.468004  0  3.485511  0
N  N59  1  0.27301179  0.57739445  0.24522583  1  0  -0.516621  0  3.140674  0  0  -0.472065  0  3.483535  0  0  -0.479155  0  3.479085  0  0  -0.445668  -0.468089  0  3.485505  0
N  N60  1  0.37377731  0.62261907  0.67565992  1  0  -0.300494  0  3.366399  0  0  -0.236078  0  3.66284  0  0  -0.24491  0  3.670285  0  0  -0.361228  -0.230989  0  3.657672  0
N  N61  1  0.87372154  0.37740875  0.32434929  1  0  -0.300722  0  3.366669  0  0  -0.236277  0  3.663118  0  0  -0.245111  0  3.670569  0  0  -0.361395  -0.231192  0  3.657958  0
N  N62  1  0.36457012  0.63574954  0.90864462  1  0  -0.303523  0  3.36904  0  0  -0.237738  0  3.665918  0  0  -0.246071  0  3.672632  0  0  -0.36284  -0.232965  0  3.661218  0
N  N63  1  0.86454113  0.36424699  0.09135944  1  0  -0.303696  0  3.368982  0  0  -0.237945  0  3.665914  0  0  -0.246281  0  3.672631  0  0  -0.362974  -0.233189  0  3.661238  0
