# generated using pymatgen
data_MnH10C12Br2(NO3)2
_symmetry_space_group_name_H-M   'P 1'
_cell_length_a   6.99045824
_cell_length_b   9.82091823
_cell_length_c   10.15724493
_cell_angle_alpha   90.00023240
_cell_angle_beta   98.16140904
_cell_angle_gamma   89.99976447
_symmetry_Int_Tables_number   1
_chemical_formula_structural   MnH10C12Br2(NO3)2
_chemical_formula_sum   'Mn2 H20 C24 Br4 N4 O12'
_cell_volume   690.26004847
_cell_formula_units_Z   2
loop_
 _symmetry_equiv_pos_site_id
 _symmetry_equiv_pos_as_xyz
  1  'x, y, z'
loop_
 _atom_site_type_symbol
 _atom_site_label
 _atom_site_symmetry_multiplicity
 _atom_site_fract_x
 _atom_site_fract_y
 _atom_site_fract_z
 _atom_site_occupancy
 _atom_site_hle17_bader_charge
 _atom_site_hle17_bader_spin_density
 _atom_site_hle17_ddec_charge
 _atom_site_hle17_ddec_spin_density
 _atom_site_hle17_ddec_sum_bond_order
 _atom_site_hle17_magmom
 _atom_site_hse06_10hf_ddec_charge
 _atom_site_hse06_10hf_ddec_spin_density
 _atom_site_hse06_10hf_ddec_sum_bond_order
 _atom_site_hse06_10hf_magmom
 _atom_site_hse06_ddec_charge
 _atom_site_hse06_ddec_spin_density
 _atom_site_hse06_ddec_sum_bond_order
 _atom_site_hse06_magmom
 _atom_site_pbe_cm5_charge
 _atom_site_pbe_ddec_charge
 _atom_site_pbe_ddec_spin_density
 _atom_site_pbe_ddec_sum_bond_order
 _atom_site_pbe_magmom
Mn  Mn0  1  0.50000098  0.49999938  0.50000017  1  1.447109  1.239568  0.92147  1.311655  2.627721  1.249  0.834966  1.16691  3.160732  1.123  0.868023  1.090547  3.105039  1.044  0.663849  0.818195  1.218038  3.189021  1.178
Mn  Mn1  1  0.99999894  0.00000059  0.50000028  1  1.4472  1.239573  0.921431  1.311708  2.627713  1.249  0.834674  1.166855  3.16086  1.123  0.868041  1.090552  3.105017  1.044  0.663835  0.818123  1.217997  3.189009  1.178
H  H2  1  0.27725358  0.38236035  0.66326273  1  0.665919  0.001006  0.418409  0.000366  0.877597  0.001  0.390041  0.000195  0.944539  0.001  0.398513  -9e-06  0.932603  0.001  0.297444  0.384323  -8.3e-05  0.952495  0.001
H  H3  1  0.77725096  0.11763792  0.66326521  1  0.665952  0.001007  0.418393  0.000368  0.87761  0.001  0.390006  0.000195  0.944594  0.001  0.398487  -1.1e-05  0.932645  0.001  0.297415  0.384281  -8.3e-05  0.952559  0.001
H  H4  1  0.72274693  0.61763842  0.33673649  1  0.665979  0.001005  0.418376  0.000366  0.877614  0.001  0.39  0.000195  0.944591  0.001  0.398471  -9e-06  0.932655  0.001  0.297441  0.384283  -8.3e-05  0.952546  0.001
H  H5  1  0.22274666  0.88236390  0.33673668  1  0.665982  0.001007  0.418228  0.000368  0.877836  0.001  0.389916  0.000195  0.944695  0.001  0.398383  -1.1e-05  0.932768  0.001  0.2974  0.384192  -8.3e-05  0.952657  0.001
H  H6  1  0.45351180  0.27508191  0.65644181  1  0.651215  0.001213  0.419503  0.000603  0.883858  0.002  0.388316  0.0004  0.951645  0.001  0.398733  0.000514  0.936731  0.001  0.292425  0.380638  0.000223  0.962823  0.001
H  H7  1  0.95351443  0.22492293  0.65644324  1  0.651052  0.001211  0.419494  0.000601  0.883796  0.002  0.388321  0.000399  0.951616  0.001  0.398725  0.000514  0.936724  0.001  0.292409  0.38064  0.000223  0.962799  0.001
H  H8  1  0.54648726  0.72491787  0.34355727  1  0.651196  0.001213  0.419513  0.000603  0.883839  0.002  0.388344  0.0004  0.951603  0.001  0.398747  0.000514  0.936708  0.001  0.292434  0.380666  0.000223  0.962782  0.001
H  H9  1  0.04648464  0.77507686  0.34355682  1  0.651179  0.00121  0.41951  0.000601  0.883771  0.002  0.388323  0.0004  0.951615  0.001  0.398732  0.000514  0.936711  0.001  0.292417  0.380642  0.000223  0.962797  0.001
H  H10  1  0.12852008  0.28823460  0.49536175  1  0.138438  0.001353  0.090312  0.000615  0.984273  0.001  0.093451  -2.4e-05  1.057284  0.0  0.099118  4e-06  1.050044  0.0  0.124941  0.088778  -0.000107  1.064053  0.0
H  H11  1  0.62851698  0.21176748  0.49535864  1  0.138516  0.001353  0.090348  0.000614  0.984323  0.001  0.093477  -2.4e-05  1.057331  0.0  0.099144  4e-06  1.050091  0.0  0.124966  0.088804  -0.000108  1.064097  0.0
H  H12  1  0.87147899  0.71176621  0.50463733  1  0.138429  0.001352  0.090319  0.000615  0.984256  0.001  0.093453  -2.4e-05  1.057267  0.0  0.09912  2e-06  1.050028  0.0  0.124935  0.088779  -0.000107  1.064038  0.0
H  H13  1  0.37148208  0.78823231  0.50464044  1  0.138501  0.001353  0.090339  0.000614  0.984318  0.001  0.093471  -2.4e-05  1.05732  0.0  0.099135  3e-06  1.050087  0.0  0.124958  0.088798  -0.000108  1.064087  0.0
H  H14  1  0.89251077  0.44553464  0.10937555  1  0.085463  0.001935  0.104433  0.000851  0.983334  0.002  0.108105  -0.000537  1.060994  0.0  0.11273  -0.00026  1.055055  0.0  0.093081  0.104448  -0.000671  1.066042  0.0
H  H15  1  0.39251213  0.05445790  0.10937069  1  0.085748  0.001936  0.104472  0.000852  0.983336  0.002  0.10814  -0.000537  1.060987  0.0  0.112779  -0.00026  1.055037  0.0  0.093104  0.104487  -0.000671  1.066018  0.0
H  H16  1  0.10749263  0.55446719  0.89062198  1  0.085477  0.001935  0.104453  0.000851  0.983351  0.002  0.10812  -0.000537  1.061015  0.0  0.112747  -0.000261  1.055076  0.0  0.093097  0.104463  -0.000671  1.066064  0.0
H  H17  1  0.60748983  0.94554087  0.89062965  1  0.085764  0.001936  0.104401  0.000851  0.983347  0.002  0.108067  -0.000538  1.061015  0.0  0.112708  -0.00026  1.05506  0.0  0.093059  0.104413  -0.000671  1.066047  0.0
H  H18  1  0.89341898  0.01594262  0.20478926  1  0.095424  0.001771  0.103464  0.000714  0.947532  0.002  0.10734  -0.000896  1.016707  0.0  0.112255  -0.000468  1.009875  0.0  0.117674  0.103349  -0.001101  1.022567  0.0
H  H19  1  0.39342109  0.48405336  0.20478615  1  0.09545  0.001771  0.103396  0.000713  0.947711  0.002  0.107337  -0.000897  1.016808  0.0  0.112252  -0.000469  1.009975  0.0  0.117694  0.103348  -0.001101  1.022678  0.0
H  H20  1  0.10657430  0.98405920  0.79521122  1  0.095409  0.001771  0.103477  0.000714  0.947446  0.002  0.107337  -0.000896  1.016639  0.0  0.112251  -0.000469  1.009807  0.0  0.117677  0.103344  -0.001101  1.022498  0.0
H  H21  1  0.60658086  0.51594744  0.79521420  1  0.095458  0.001772  0.103415  0.000714  0.94768  0.002  0.107362  -0.000897  1.016775  0.0  0.112277  -0.000468  1.009943  0.0  0.117696  0.103372  -0.001101  1.022646  0.0
C  C22  1  0.05774170  0.27421340  0.39430888  1  0.489724  -0.037639  0.121156  -0.040774  3.615013  -0.026  0.07261  -0.012598  3.877859  -0.007  0.086577  -0.01013  3.885304  -0.006  0.048363  0.061889  -0.013362  3.875626  -0.008
C  C23  1  0.55773855  0.22579152  0.39430877  1  0.490206  -0.037654  0.121008  -0.040794  3.615047  -0.026  0.072549  -0.012596  3.877926  -0.007  0.086492  -0.010136  3.885312  -0.006  0.048345  0.061836  -0.013359  3.875676  -0.008
C  C24  1  0.94225736  0.72578639  0.60569118  1  0.489741  -0.037645  0.121125  -0.04078  3.61501  -0.026  0.072622  -0.0126  3.877863  -0.007  0.086562  -0.010131  3.885291  -0.006  0.048384  0.061901  -0.013364  3.875632  -0.008
C  C25  1  0.44226052  0.77420929  0.60569031  1  0.489772  -0.037657  0.121035  -0.040795  3.615047  -0.026  0.072561  -0.012598  3.877905  -0.007  0.086505  -0.010135  3.885292  -0.006  0.048352  0.061846  -0.01336  3.875657  -0.008
C  C26  1  0.02184685  0.38427324  0.30782652  1  0.032517  0.024888  -0.09455  0.020434  3.745213  0.02  -0.067195  0.002406  3.987352  0.005  -0.077079  0.00397  4.00329  0.005  -0.012297  -0.060949  -3.4e-05  3.978309  0.004
C  C27  1  0.52183412  0.11572327  0.30782111  1  0.03263  0.024902  -0.094425  0.020446  3.745071  0.02  -0.067257  0.002404  3.987366  0.005  -0.077015  0.003973  4.003151  0.005  -0.012384  -0.060996  -3.6e-05  3.978297  0.004
C  C28  1  0.97815655  0.61572553  0.69217298  1  0.032522  0.024894  -0.094437  0.020439  3.745106  0.02  -0.067194  0.002406  3.987366  0.005  -0.077001  0.003973  4.00321  0.005  -0.012322  -0.060949  -3.4e-05  3.978324  0.004
C  C29  1  0.47816783  0.88427652  0.69217825  1  0.032634  0.024903  -0.094394  0.020447  3.745089  0.02  -0.06723  0.002405  3.987391  0.005  -0.076981  0.003972  4.003156  0.005  -0.012361  -0.060968  -3.5e-05  3.97832  0.004
C  C30  1  0.92767582  0.36136541  0.17820236  1  0.034109  -0.06317  -0.087531  -0.067066  3.711583  -0.043  -0.128463  -0.025316  3.968939  -0.015  -0.118688  -0.01564  3.980816  -0.009  -0.088423  -0.136305  -0.031745  3.962499  -0.019
C  C31  1  0.42767098  0.13862934  0.17819919  1  0.035277  -0.063173  -0.087546  -0.067073  3.711887  -0.043  -0.128403  -0.025314  3.969247  -0.015  -0.118661  -0.015639  3.981081  -0.009  -0.088331  -0.136225  -0.031737  3.962772  -0.019
C  C32  1  0.07232903  0.63863336  0.82179728  1  0.034365  -0.063181  -0.087553  -0.067077  3.71156  -0.043  -0.12844  -0.02532  3.96891  -0.015  -0.11869  -0.015642  3.980762  -0.009  -0.088401  -0.136281  -0.031749  3.962467  -0.019
C  C33  1  0.57232953  0.86136942  0.82180003  1  0.034072  -0.063178  -0.087539  -0.067075  3.71191  -0.043  -0.128393  -0.025314  3.969272  -0.015  -0.118649  -0.01564  3.9811  -0.009  -0.088337  -0.136217  -0.031737  3.962796  -0.019
C  C34  1  0.88790327  0.22719362  0.14025063  1  -0.067346  0.031623  0.030966  0.026235  3.758334  0.025  0.052143  0.003823  4.026985  0.005  0.046492  0.00385  4.049741  0.004  -0.021508  0.055579  0.002519  4.012409  0.005
C  C35  1  0.38790499  0.27279804  0.14024862  1  -0.069001  0.031631  0.030863  0.026246  3.758427  0.025  0.052009  0.003823  4.027113  0.005  0.046345  0.003854  4.049896  0.004  -0.02161  0.055449  0.002519  4.012536  0.005
C  C36  1  0.11209579  0.77280821  0.85974845  1  -0.12533  0.031494  0.03094  0.026238  3.758333  0.025  0.052114  0.003823  4.026989  0.005  0.046467  0.003853  4.049745  0.004  -0.021522  0.05555  0.002519  4.012413  0.005
C  C37  1  0.61209552  0.72720073  0.85975060  1  -0.067802  0.031634  0.030931  0.026245  3.758411  0.025  0.052068  0.003823  4.027129  0.005  0.046403  0.003854  4.049913  0.004  -0.021558  0.055513  0.002519  4.012543  0.005
C  C38  1  0.92489190  0.12156819  0.23155148  1  0.500257  -0.058196  0.060096  -0.063356  3.67349  -0.04  0.01832  -0.026376  3.933082  -0.015  0.033077  -0.015664  3.941038  -0.008  0.030118  0.007663  -0.030732  3.928169  -0.017
C  C39  1  0.42489454  0.37843189  0.23154801  1  0.500267  -0.058225  0.060168  -0.063385  3.673516  -0.04  0.018376  -0.026384  3.933129  -0.015  0.033139  -0.015672  3.941076  -0.008  0.030152  0.007719  -0.030736  3.928224  -0.017
C  C40  1  0.07510282  0.87843261  0.76844914  1  0.558018  -0.058063  0.060107  -0.063355  3.673402  -0.04  0.01834  -0.026375  3.933009  -0.015  0.033095  -0.015665  3.940963  -0.008  0.030102  0.007684  -0.03073  3.928093  -0.017
C  C41  1  0.57510741  0.62156892  0.76845135  1  0.500268  -0.058221  0.060155  -0.063381  3.6735  -0.04  0.018319  -0.026383  3.933135  -0.015  0.033081  -0.015671  3.941084  -0.008  0.030131  0.007662  -0.030733  3.928225  -0.017
C  C42  1  0.07736394  0.52582926  0.35160978  1  1.538848  -0.002458  0.661925  -0.003556  3.826819  -0.001  0.60087  -0.013382  4.129624  -0.008  0.638813  -0.005649  4.122092  -0.003  0.22299  0.573024  -0.019565  4.136058  -0.012
C  C43  1  0.57736243  0.97417560  0.35161474  1  1.538562  -0.002488  0.66175  -0.003592  3.82662  -0.001  0.600835  -0.013379  4.129315  -0.008  0.638722  -0.005646  4.121793  -0.003  0.222957  0.572977  -0.019556  4.135746  -0.012
C  C44  1  0.92263802  0.47417053  0.64838958  1  1.538837  -0.002459  0.661911  -0.003557  3.82667  -0.001  0.600904  -0.013383  4.129458  -0.008  0.638821  -0.00565  4.121922  -0.003  0.222978  0.573057  -0.019565  4.135892  -0.012
C  C45  1  0.42263663  0.02582419  0.64838434  1  1.538553  -0.002489  0.661748  -0.003593  3.826691  -0.001  0.600812  -0.013379  4.129393  -0.008  0.638727  -0.005645  4.121852  -0.003  0.222946  0.572955  -0.019553  4.13582  -0.012
Br  Br46  1  0.77844831  0.18602218  0.96327438  1  -0.040553  -7.1e-05  -0.021673  -0.000126  1.418487  0.0  -0.017738  -0.001048  1.69886  0.0  -0.020709  -0.000368  1.691362  0.0  0.070088  -0.015068  -0.001554  1.706118  0.0
Br  Br47  1  0.27844982  0.31397328  0.96327054  1  -0.040585  -7e-05  -0.021722  -0.000124  1.418482  0.0  -0.017771  -0.001048  1.698857  0.0  -0.020737  -0.000366  1.691354  0.0  0.070053  -0.015083  -0.001554  1.706104  0.0
Br  Br48  1  0.22155075  0.81397659  0.03672569  1  -0.040578  -7.1e-05  -0.021677  -0.000126  1.418487  0.0  -0.017734  -0.001048  1.698853  0.0  -0.020715  -0.000369  1.691364  0.0  0.070089  -0.015062  -0.001553  1.706113  0.0
Br  Br49  1  0.72154924  0.68602447  0.03672854  1  -0.040581  -7e-05  -0.021711  -0.000124  1.418471  0.0  -0.017756  -0.001047  1.698852  0.0  -0.020721  -0.000365  1.691349  0.0  0.070073  -0.015068  -0.001554  1.706098  0.0
N  N50  1  0.00141777  0.14592194  0.35982949  1  -1.186454  -0.012946  -0.266495  -0.013485  3.321267  -0.006  -0.203725  -0.013937  3.601938  -0.012  -0.221339  -0.007961  3.615214  -0.006  -0.342943  -0.190767  -0.01834  3.588457  -0.017
N  N51  1  0.50141830  0.35407790  0.35982631  1  -1.186878  -0.012961  -0.266342  -0.013494  3.321502  -0.006  -0.203674  -0.013939  3.602225  -0.012  -0.221256  -0.007956  3.615497  -0.006  -0.342882  -0.190693  -0.018341  3.588736  -0.017
N  N52  1  0.99857985  0.85407887  0.64017043  1  -1.186454  -0.012945  -0.26658  -0.013484  3.321289  -0.006  -0.203796  -0.013937  3.601931  -0.012  -0.221411  -0.007958  3.615216  -0.006  -0.342965  -0.190838  -0.018341  3.588451  -0.017
N  N53  1  0.49858220  0.64592188  0.64017291  1  -1.186481  -0.012959  -0.266442  -0.013495  3.321502  -0.006  -0.203705  -0.013939  3.602176  -0.012  -0.221286  -0.007956  3.615445  -0.006  -0.342914  -0.190724  -0.018342  3.588689  -0.017
O  O54  1  0.23442289  0.54974141  0.42882851  1  -1.180753  0.001152  -0.577236  -0.002723  2.186475  -0.009  -0.519047  0.017868  2.475111  0.014  -0.555182  0.011418  2.469071  0.006  -0.298898  -0.493704  0.021037  2.47946  0.018
O  O55  1  0.73440994  0.95026432  0.42883029  1  -1.180508  0.001168  -0.577161  -0.002708  2.186657  -0.009  -0.519034  0.017858  2.475363  0.014  -0.555188  0.011412  2.469342  0.006  -0.298922  -0.493713  0.021028  2.479715  0.018
O  O56  1  0.76557762  0.45025837  0.57117071  1  -1.180752  0.001153  -0.577252  -0.002723  2.186452  -0.009  -0.519062  0.017869  2.475067  0.014  -0.555199  0.011418  2.469037  0.006  -0.298896  -0.493719  0.021039  2.479414  0.018
O  O57  1  0.26558912  0.04973547  0.57117075  1  -1.180511  0.001169  -0.577094  -0.002706  2.186648  -0.009  -0.519032  0.017857  2.475452  0.014  -0.555179  0.01141  2.469412  0.006  -0.298909  -0.493712  0.021027  2.479801  0.018
O  O58  1  0.96091288  0.62192987  0.30875149  1  -1.195675  -0.002866  -0.625416  -0.003575  2.020148  -0.003  -0.55901  -0.007182  2.237141  -0.006  -0.585507  -0.003761  2.227895  -0.003  -0.305688  -0.541213  -0.009438  2.244767  -0.007
O  O59  1  0.46090685  0.87806247  0.30875111  1  -1.195709  -0.002882  -0.625362  -0.00359  2.019686  -0.003  -0.559016  -0.00718  2.236643  -0.006  -0.585489  -0.003758  2.227387  -0.003  -0.305643  -0.541223  -0.009434  2.244257  -0.007
O  O60  1  0.03908763  0.37806992  0.69124773  1  -1.195688  -0.002867  -0.625418  -0.003576  2.020096  -0.003  -0.559038  -0.007182  2.237079  -0.006  -0.58552  -0.003761  2.227833  -0.003  -0.305673  -0.54124  -0.009439  2.244702  -0.007
O  O61  1  0.53909366  0.12193732  0.69124713  1  -1.195699  -0.002883  -0.625436  -0.003591  2.019739  -0.003  -0.558962  -0.007179  2.236621  -0.006  -0.585528  -0.003758  2.227431  -0.003  -0.305641  -0.54117  -0.009432  2.244233  -0.007
O  O62  1  0.41226051  0.37340982  0.64402369  1  -1.284685  -0.007346  -0.798067  -0.010954  2.028717  -0.015  -0.753411  -0.006827  2.268209  -0.009  -0.781798  -0.005122  2.237997  -0.008  -0.559283  -0.730763  -0.006063  2.287016  -0.009
O  O63  1  0.91225929  0.12659102  0.64402436  1  -1.284534  -0.007339  -0.798022  -0.010959  2.028642  -0.015  -0.753318  -0.006828  2.26815  -0.009  -0.781735  -0.005118  2.237947  -0.008  -0.559233  -0.730685  -0.00606  2.28696  -0.009
O  O64  1  0.58774000  0.62658895  0.35597652  1  -1.284723  -0.007347  -0.79805  -0.010954  2.02871  -0.015  -0.753386  -0.006827  2.268193  -0.009  -0.781773  -0.005122  2.238002  -0.008  -0.559295  -0.730737  -0.006062  2.286999  -0.009
O  O65  1  0.08773833  0.87341081  0.35597753  1  -1.284756  -0.007345  -0.797907  -0.010959  2.02882  -0.015  -0.753232  -0.006828  2.268296  -0.009  -0.781651  -0.005118  2.238104  -0.008  -0.559233  -0.7306  -0.00606  2.287106  -0.009
