# generated using pymatgen
data_Zn2H23C28N7O8
_symmetry_space_group_name_H-M   'P 1'
_cell_length_a   9.84625006
_cell_length_b   11.19573382
_cell_length_c   14.79306013
_cell_angle_alpha   88.45803614
_cell_angle_beta   76.36925127
_cell_angle_gamma   85.60995307
_symmetry_Int_Tables_number   1
_chemical_formula_structural   Zn2H23C28N7O8
_chemical_formula_sum   'Zn2 H23 C28 N7 O8'
_cell_volume   1580.08181206
_cell_formula_units_Z   1
loop_
 _symmetry_equiv_pos_site_id
 _symmetry_equiv_pos_as_xyz
  1  'x, y, z'
loop_
 _atom_site_type_symbol
 _atom_site_label
 _atom_site_symmetry_multiplicity
 _atom_site_fract_x
 _atom_site_fract_y
 _atom_site_fract_z
 _atom_site_occupancy
 _atom_site_pbe_bader_charge
 _atom_site_pbe_bader_spin_density
 _atom_site_pbe_cm5_charge
 _atom_site_pbe_ddec_charge
 _atom_site_pbe_ddec_spin_density
 _atom_site_pbe_ddec_sum_bond_order
 _atom_site_pbe_magmom
Zn  Zn0  1  0.85030552  0.50694044  0.49340069  1  1.287631  0  0.663387  0.875795  0  2.392782  0
Zn  Zn1  1  0.12711474  0.49045465  0.51307379  1  1.288323  0  0.672686  0.808212  0  2.424916  0
H  H2  1  0.99506978  0.48368516  0.98776738  1  0.04768  0  0.098192  0.101711  0  1.014442  0
H  H3  1  0.83670296  0.16759720  0.42216717  1  0.449581  0  0.293772  0.290839  0  0.972047  0
H  H4  1  0.66304142  0.68943174  0.58752717  1  0.547855  0  0.307798  0.337388  0  0.965991  0
H  H5  1  0.48006878  0.71987288  0.62674689  1  0.459351  0  0.32699  0.3189  0  0.915974  0
H  H6  1  0.35598772  0.46512138  0.36659073  1  0.515572  0  0.315661  0.298704  0  0.984212  0
H  H7  1  0.51458970  0.50188039  0.38858574  1  0.446775  0  0.31159  0.270182  0  0.973908  0
H  H8  1  0.67096386  0.54107793  0.77561297  1  0.08369  0  0.099295  0.102668  0  1.035513  0
H  H9  1  0.08322785  0.45737270  0.81654490  1  0.059812  0  0.100783  0.104788  0  1.004833  0
H  H10  1  0.80814195  0.54982952  0.11941647  1  0.062356  0  0.101005  0.113665  0  1.023711  0
H  H11  1  0.03467258  0.69295005  0.03333811  1  0.064357  0  0.102724  0.10372  0  1.002784  0
H  H12  1  0.93471481  0.64991666  0.20178955  1  0.037974  0  0.098501  0.098465  0  1.022859  0
H  H13  1  0.16839429  0.87203215  0.52193180  1  0.081862  0  0.101422  0.102747  0  0.994895  0
H  H14  1  0.34397333  0.53575804  0.23570238  1  0.083633  0  0.103236  0.100982  0  1.064122  0
H  H15  1  0.48222801  0.61570379  0.82947554  1  0.069201  0  0.098261  0.096615  0  1.02891  0
H  H16  1  0.47056894  0.67585908  0.22953365  1  0.432228  0  0.303012  0.293251  0  0.953265  0
H  H17  1  0.63772179  0.64250263  0.23443269  1  0.413619  0  0.304627  0.295937  0  0.939324  0
H  H18  1  0.61496129  0.42136119  0.48171910  1  0.428081  0  0.306509  0.301696  0  0.943254  0
H  H19  1  0.31575798  0.55916931  0.62751969  1  0.147952  0  0.130662  0.128074  0  0.993405  0
H  H20  1  0.23432672  0.67532443  0.89673609  1  0.042514  0  0.102127  0.105137  0  0.997336  0
H  H21  1  0.85032962  0.90806732  0.53848870  1  0.055779  0  0.101915  0.122587  0  1.022494  0
H  H22  1  0.20130728  0.18025413  0.55198025  1  0.470503  0  0.287358  0.300982  0  1.005812  0
H  H23  1  0.22645689  0.04292925  0.60129545  1  0.404961  0  0.294154  0.283415  0  0.961862  0
H  H24  1  0.88568477  0.01847838  0.43098278  1  0.432819  0  0.291561  0.278786  0  0.980834  0
C  C25  1  0.99922078  0.26689966  0.48874379  1  1.520651  0  0.208018  0.559145  0  4.166159  0
C  C26  1  0.78104333  0.53311713  0.97995631  1  0.010736  0  -0.010367  0.09901  0  4.059848  0
C  C27  1  0.68604066  0.55114842  0.92024701  1  -0.001892  0  -0.010681  0.014035  0  3.969927  0
C  C28  1  0.07540432  0.54481958  0.32484379  1  1.558527  0  0.216365  0.600376  0  4.159431  0
C  C29  1  0.92418458  0.49790305  0.94120728  1  0.008797  0  -0.098302  -0.147349  0  4.006188  0
C  C30  1  0.97319412  0.48288229  0.84683014  1  -0.066491  0  -0.093082  -0.09945  0  4.022015  0
C  C31  1  0.73892465  0.53167699  0.82413448  1  -0.060112  0  -0.082563  -0.129728  0  3.941772  0
C  C32  1  0.07007535  0.92631101  0.52438879  1  -0.071698  0  -0.078851  -0.082075  0  3.977198  0
C  C33  1  0.95535607  0.86432967  0.52871613  1  -0.040083  0  -0.117654  -0.273102  0  3.945804  0
C  C34  1  0.08129805  0.05425854  0.52297777  1  0.39661  0  0.074074  0.184875  0  4.075118  0
C  C35  1  0.98824270  0.13547626  0.49108061  1  0.460274  0  0.0698  0.024744  0  3.97052  0
C  C36  1  0.34100735  0.60675071  0.09869099  1  -0.057698  0  -0.005084  0.044757  0  3.949597  0
C  C37  1  0.54018956  0.56574549  0.55304566  1  1.200433  0  0.251019  0.506956  0  4.138192  0
C  C38  1  0.39315834  0.53959925  0.56263021  1  0.527773  0  0.04455  -0.144572  0  3.873714  0
C  C39  1  0.96443980  0.73303015  0.52322099  1  1.522448  0  0.197401  0.628024  0  4.19225  0
C  C40  1  0.93332203  0.48626630  0.68476133  1  1.546693  0  0.207064  0.590296  0  4.173881  0
C  C41  1  0.13481282  0.58702313  0.22755099  1  -0.094241  0  -0.02377  -0.034854  0  3.992883  0
C  C42  1  0.87972434  0.49921172  0.78732683  1  -0.003876  0  -0.025215  -0.038873  0  3.999106  0
C  C43  1  0.10282344  0.66121591  0.07874674  1  -0.11363  0  -0.090122  -0.137194  0  3.997729  0
C  C44  1  0.04667256  0.63608109  0.17124937  1  0.073322  0  -0.091234  -0.100564  0  4.018602  0
C  C45  1  0.27874329  0.57578349  0.19161909  1  0.03538  0  -0.090629  -0.150805  0  3.95524  0
C  C46  1  0.24858728  0.64173086  0.03949405  1  -0.056486  0  -0.006985  0.080659  0  4.014492  0
C  C47  1  0.49099965  0.59281340  0.05988125  1  0.036216  0  -0.005174  -0.064023  0  3.896962  0
C  C48  1  0.54035030  0.58575862  0.96161475  1  -0.030752  0  -0.001797  0.046828  0  3.974599  0
C  C49  1  0.44336890  0.61594874  0.90478328  1  -0.07652  0  -0.09242  -0.124303  0  4.017738  0
C  C50  1  0.30500079  0.64886078  0.94176520  1  0.016252  0  -0.094037  -0.139424  0  4.024794  0
C  C51  1  0.59317146  0.58792547  0.11619145  1  0.385377  0  0.09097  0.253608  0  4.07694  0
C  C52  1  0.73205502  0.55570019  0.07608800  1  -0.026842  0  -0.114459  -0.275974  0  3.986298  0
N  N53  1  0.64471009  0.49948498  0.50231043  1  -1.260291  0  -0.53019  -0.634842  0  3.220129  0
N  N54  1  0.34379868  0.49719590  0.49699189  1  -0.756178  0  -0.209968  0.026007  0  3.664749  0
N  N55  1  0.20149717  0.08935633  0.54686934  1  -1.18324  0  -0.616037  -0.634323  0  3.314127  0
N  N56  1  0.87406973  0.10109872  0.46000959  1  -1.200856  0  -0.603675  -0.584024  0  3.361875  0
N  N57  1  0.56238001  0.66225411  0.59853819  1  -1.300782  0  -0.551833  -0.601179  0  3.278736  0
N  N58  1  0.41970454  0.46656406  0.41226439  1  -0.730855  0  -0.462138  -0.433098  0  3.334131  0
N  N59  1  0.55546412  0.61630176  0.21108516  1  -1.194271  0  -0.596644  -0.614265  0  3.303034  0
O  O60  1  0.90244765  0.33041672  0.46120851  1  -1.175744  0  -0.324988  -0.550182  0  2.316198  0
O  O61  1  0.10141343  0.31015263  0.51397838  1  -1.159293  0  -0.310874  -0.531531  0  2.356168  0
O  O62  1  0.94410814  0.56168275  0.35786775  1  -1.15125  0  -0.317152  -0.54611  0  2.277504  0
O  O63  1  0.16200156  0.49368011  0.36865554  1  -1.194096  0  -0.321192  -0.566993  0  2.370195  0
O  O64  1  0.84721646  0.68431836  0.53230009  1  -1.182247  0  -0.324701  -0.574848  0  2.327106  0
O  O65  1  0.08382724  0.67470831  0.50751726  1  -1.17644  0  -0.32452  -0.562883  0  2.315114  0
O  O66  1  0.84640405  0.47050765  0.63556816  1  -1.1823  0  -0.320862  -0.563256  0  2.307507  0
O  O67  1  0.06544147  0.49443908  0.65315438  1  -1.165435  0  -0.32929  -0.554744  0  2.310228  0
