# generated using pymatgen
data_Zn2H32C20O13
_symmetry_space_group_name_H-M   'P 1'
_cell_length_a   10.28011780
_cell_length_b   12.42372302
_cell_length_c   19.01147818
_cell_angle_alpha   90.00007567
_cell_angle_beta   90.00004385
_cell_angle_gamma   90.00006137
_symmetry_Int_Tables_number   1
_chemical_formula_structural   Zn2H32C20O13
_chemical_formula_sum   'Zn8 H128 C80 O52'
_cell_volume   2428.09534922
_cell_formula_units_Z   4
loop_
 _symmetry_equiv_pos_site_id
 _symmetry_equiv_pos_as_xyz
  1  'x, y, z'
loop_
 _atom_site_type_symbol
 _atom_site_label
 _atom_site_symmetry_multiplicity
 _atom_site_fract_x
 _atom_site_fract_y
 _atom_site_fract_z
 _atom_site_occupancy
 _atom_site_pbe_bader_charge
 _atom_site_pbe_bader_spin_density
 _atom_site_pbe_cm5_charge
 _atom_site_pbe_ddec_charge
 _atom_site_pbe_ddec_spin_density
 _atom_site_pbe_ddec_sum_bond_order
 _atom_site_pbe_magmom
Zn  Zn0  1  0.31738503  0.22611488  0.55108987  1  1.379479  0  0.676916  0.965901  0  2.295329  0
Zn  Zn1  1  0.18261518  0.77388409  0.05109056  1  1.379476  0  0.676903  0.965866  0  2.295396  0
Zn  Zn2  1  0.68261297  0.72611290  0.94890984  1  1.379528  0  0.676902  0.965828  0  2.295342  0
Zn  Zn3  1  0.81738607  0.27388490  0.44891015  1  1.379549  0  0.676913  0.96587  0  2.29528  0
Zn  Zn4  1  0.50685176  0.38098148  0.44603608  1  1.33859  0  0.687839  0.9597  0  2.242889  0
Zn  Zn5  1  0.99314825  0.61901793  0.94603633  1  1.338577  0  0.687841  0.959715  0  2.242887  0
Zn  Zn6  1  0.49314671  0.88098337  0.05396210  1  1.338599  0  0.687825  0.95964  0  2.242911  0
Zn  Zn7  1  0.00685545  0.11901561  0.55396171  1  1.338606  0  0.687818  0.959637  0  2.242893  0
H  H8  1  0.88790851  0.34524176  0.24959008  1  0.094415  0  0.108372  0.114781  0  1.007397  0
H  H9  1  0.61209122  0.65475886  0.74958968  1  0.094412  0  0.108387  0.114807  0  1.007347  0
H  H10  1  0.11208407  0.84524210  0.25040911  1  0.094304  0  0.108392  0.114793  0  1.00741  0
H  H11  1  0.38791739  0.15475969  0.75041050  1  0.094241  0  0.108414  0.114809  0  1.007405  0
H  H12  1  0.94777355  0.41760081  0.13027904  1  0.139536  0  0.103281  0.107169  0  1.06398  0
H  H13  1  0.55222699  0.58239796  0.63027803  1  0.139533  0  0.103272  0.107152  0  1.063996  0
H  H14  1  0.05222789  0.91760054  0.36972179  1  0.139539  0  0.103262  0.107147  0  1.063986  0
H  H15  1  0.44777374  0.08240069  0.86972366  1  0.139487  0  0.103302  0.107257  0  1.064101  0
H  H16  1  0.56675562  0.55866623  0.11176758  1  0.104673  0  0.111824  0.119063  0  0.990621  0
H  H17  1  0.93324392  0.44133170  0.61176818  1  0.104661  0  0.111837  0.119117  0  0.990533  0
H  H18  1  0.43324437  0.05866818  0.38823032  1  0.104701  0  0.111834  0.119143  0  0.990482  0
H  H19  1  0.06675728  0.94133308  0.88822909  1  0.104744  0  0.111834  0.11915  0  0.990404  0
H  H20  1  0.50963180  0.48830014  0.23178924  1  0.096377  0  0.105314  0.101677  0  1.028541  0
H  H21  1  0.99036693  0.51169883  0.73178940  1  0.096411  0  0.10531  0.101706  0  1.028547  0
H  H22  1  0.49036195  0.98830488  0.26820745  1  0.096402  0  0.105335  0.101777  0  1.028435  0
H  H23  1  0.00964052  0.01169695  0.76820750  1  0.096449  0  0.105286  0.101711  0  1.028501  0
H  H24  1  0.22883648  0.43407975  0.42773184  1  0.056325  0  0.102272  0.052986  0  1.004586  0
H  H25  1  0.27116426  0.56591998  0.92773142  1  0.05634  0  0.10225  0.052904  0  1.004543  0
H  H26  1  0.77116303  0.93408032  0.07226954  1  0.056334  0  0.102245  0.052919  0  1.004555  0
H  H27  1  0.72883742  0.06591592  0.57226920  1  0.056259  0  0.10228  0.052987  0  1.004588  0
H  H28  1  0.14050370  0.33885936  0.32248536  1  0.055772  0  0.089374  0.128303  0  1.020379  0
H  H29  1  0.35949592  0.66114016  0.82248506  1  0.055773  0  0.089374  0.128318  0  1.020374  0
H  H30  1  0.85949569  0.83885941  0.17751436  1  0.055791  0  0.089388  0.128319  0  1.020364  0
H  H31  1  0.64050394  0.16113865  0.67751459  1  0.055756  0  0.089372  0.128328  0  1.020356  0
H  H32  1  0.31482661  0.33824931  0.32198570  1  0.034398  0  0.085113  0.122764  0  1.023685  0
H  H33  1  0.18517301  0.66174940  0.82198533  1  0.034373  0  0.085118  0.122758  0  1.023716  0
H  H34  1  0.68517375  0.83824760  0.17801454  1  0.034396  0  0.085102  0.122726  0  1.023731  0
H  H35  1  0.81482685  0.16174966  0.67801538  1  0.034358  0  0.085108  0.122765  0  1.023704  0
H  H36  1  0.22767385  0.22027339  0.34607581  1  0.014838  0  0.084795  0.125846  0  1.018113  0
H  H37  1  0.27232483  0.77972618  0.84607558  1  0.014958  0  0.084796  0.125866  0  1.018118  0
H  H38  1  0.77232539  0.72027251  0.15392380  1  0.014826  0  0.084788  0.125826  0  1.018117  0
H  H39  1  0.72767518  0.27972470  0.65392417  1  0.014979  0  0.084795  0.125883  0  1.018084  0
H  H40  1  0.19304909  0.49796088  0.55386829  1  0.055344  0  0.095214  0.066539  0  1.013285  0
H  H41  1  0.30695210  0.50203891  0.05386827  1  0.05534  0  0.095223  0.066543  0  1.013247  0
H  H42  1  0.80695316  0.99795981  0.94613113  1  0.055335  0  0.095212  0.066562  0  1.013235  0
H  H43  1  0.69304782  0.00203960  0.44613168  1  0.05533  0  0.095204  0.06653  0  1.013259  0
H  H44  1  0.16685105  0.57883847  0.62969882  1  0.045386  0  0.099933  0.06979  0  1.000205  0
H  H45  1  0.33314927  0.42116147  0.12969874  1  0.045391  0  0.099938  0.069784  0  1.000206  0
H  H46  1  0.83315162  0.07883751  0.87030076  1  0.045348  0  0.099953  0.069807  0  1.000194  0
H  H47  1  0.66684828  0.92116093  0.37030157  1  0.045368  0  0.099927  0.06978  0  1.000204  0
H  H48  1  0.18609099  0.37949970  0.65271010  1  0.05055  0  0.10644  0.051088  0  0.957266  0
H  H49  1  0.31390839  0.62050028  0.15271071  1  0.050546  0  0.10644  0.05109  0  0.957261  0
H  H50  1  0.81391013  0.87949925  0.84728869  1  0.050517  0  0.106433  0.051088  0  0.957299  0
H  H51  1  0.68608974  0.12050076  0.34728987  1  0.050527  0  0.106435  0.051065  0  0.957307  0
H  H52  1  0.24023449  0.50647384  0.75115175  1  0.03465  0  0.088725  0.122951  0  1.028064  0
H  H53  1  0.25976600  0.49352634  0.25115170  1  0.034654  0  0.088725  0.12295  0  1.028059  0
H  H54  1  0.75976517  0.00647258  0.74884725  1  0.034658  0  0.08871  0.122912  0  1.028054  0
H  H55  1  0.74023456  0.99352643  0.24884762  1  0.034645  0  0.088727  0.122952  0  1.028049  0
H  H56  1  0.33974203  0.38880868  0.75336091  1  0.007714  0  0.089859  0.128829  0  1.01183  0
H  H57  1  0.16025750  0.61119151  0.25336092  1  0.007711  0  0.089861  0.128849  0  1.011783  0
H  H58  1  0.66025716  0.88880627  0.74663894  1  0.007681  0  0.089851  0.12882  0  1.011796  0
H  H59  1  0.83974062  0.11119273  0.24663965  1  0.007711  0  0.089849  0.128827  0  1.011806  0
H  H60  1  0.40406431  0.51272161  0.72157018  1  0.037554  0  0.088253  0.126336  0  1.029156  0
H  H61  1  0.09593517  0.48727851  0.22157006  1  0.037573  0  0.08824  0.126327  0  1.029135  0
H  H62  1  0.59593536  0.01271946  0.77842987  1  0.03759  0  0.088248  0.126349  0  1.029096  0
H  H63  1  0.90406441  0.98728042  0.27842978  1  0.03761  0  0.088249  0.126341  0  1.029108  0
H  H64  1  0.44260262  0.41035202  0.59757295  1  0.634595  0  0.306151  0.35454  0  0.958601  0
H  H65  1  0.05739668  0.58964865  0.09757343  1  0.634597  0  0.306156  0.354549  0  0.958597  0
H  H66  1  0.55739757  0.91034824  0.90242587  1  0.634681  0  0.306147  0.354546  0  0.958535  0
H  H67  1  0.94260238  0.08965108  0.40242554  1  0.634628  0  0.306168  0.354597  0  0.958499  0
H  H68  1  0.32985407  0.66625351  0.58353836  1  0.635339  0  0.293363  0.328159  0  1.022838  0
H  H69  1  0.17014521  0.33374633  0.08353813  1  0.635343  0  0.293378  0.328191  0  1.022769  0
H  H70  1  0.67014677  0.16625251  0.91646183  1  0.631265  0  0.293376  0.328157  0  1.022836  0
H  H71  1  0.82985320  0.83374684  0.41646210  1  0.631277  0  0.293369  0.328139  0  1.022855  0
H  H72  1  0.27669408  0.66555229  0.45876530  1  0.06774  0  0.101399  0.069493  0  1.00718  0
H  H73  1  0.22330573  0.33444912  0.95876520  1  0.06777  0  0.101394  0.069489  0  1.0072  0
H  H74  1  0.72330605  0.16555218  0.04123584  1  0.067766  0  0.101414  0.069535  0  1.007157  0
H  H75  1  0.77669631  0.83444641  0.54123566  1  0.067777  0  0.101412  0.06951  0  1.007179  0
H  H76  1  0.28180384  0.59343614  0.37773791  1  0.021835  0  0.096517  0.062994  0  1.000136  0
H  H77  1  0.21819391  0.40656510  0.87773786  1  0.021799  0  0.096553  0.063065  0  1.000181  0
H  H78  1  0.71819425  0.09343459  0.12226317  1  0.021793  0  0.096551  0.063059  0  1.000161  0
H  H79  1  0.78180627  0.90656497  0.62226201  1  0.021772  0  0.096525  0.063011  0  1.000145  0
H  H80  1  0.36218243  0.78790204  0.37723147  1  0.053179  0  0.093457  0.023481  0  1.020852  0
H  H81  1  0.13781630  0.21209920  0.87723122  1  0.05321  0  0.093456  0.023481  0  1.020809  0
H  H82  1  0.63781592  0.28790042  0.12276925  1  0.0532  0  0.093436  0.023477  0  1.020841  0
H  H83  1  0.86218460  0.71209995  0.62277005  1  0.053212  0  0.093446  0.023454  0  1.020854  0
H  H84  1  0.41134806  0.66294667  0.27949626  1  0.028475  0  0.0875  0.121728  0  1.022162  0
H  H85  1  0.08864956  0.33705357  0.77949505  1  0.028568  0  0.08751  0.121748  0  1.022153  0
H  H86  1  0.58864819  0.16294520  0.22050383  1  0.028584  0  0.087509  0.121745  0  1.022177  0
H  H87  1  0.91134859  0.83705617  0.72050423  1  0.02854  0  0.087521  0.121761  0  1.022169  0
H  H88  1  0.54575125  0.74951258  0.29496014  1  0.019224  0  0.086004  0.121222  0  1.021629  0
H  H89  1  0.95424660  0.25048733  0.79496059  1  0.019217  0  0.085996  0.121213  0  1.021638  0
H  H90  1  0.45424607  0.24951096  0.20503949  1  0.019242  0  0.085994  0.121219  0  1.021652  0
H  H91  1  0.04575241  0.75048993  0.70504125  1  0.019203  0  0.086011  0.121263  0  1.021638  0
H  H92  1  0.54951379  0.61294083  0.32527546  1  0.048797  0  0.088979  0.131687  0  1.027248  0
H  H93  1  0.95048410  0.38705914  0.82527444  1  0.048774  0  0.088973  0.131701  0  1.027285  0
H  H94  1  0.45048336  0.11293914  0.17472406  1  0.048745  0  0.088988  0.131735  0  1.027337  0
H  H95  1  0.04951605  0.88706169  0.67472541  1  0.048746  0  0.088986  0.131743  0  1.027322  0
H  H96  1  0.50108266  0.81297680  0.46383288  1  0.638291  0  0.293117  0.338584  0  1.009781  0
H  H97  1  0.99891542  0.18702506  0.96383223  1  0.638305  0  0.29304  0.338449  0  1.009976  0
H  H98  1  0.49891766  0.31297568  0.03616786  1  0.638306  0  0.293062  0.338473  0  1.009895  0
H  H99  1  0.00108544  0.68702487  0.53616902  1  0.638322  0  0.293058  0.338462  0  1.009957  0
H  H100  1  0.40937152  0.56017979  0.50467019  1  0.6421  0  0.29512  0.328872  0  1.008154  0
H  H101  1  0.09062766  0.43982150  0.00467055  1  0.642096  0  0.295122  0.328886  0  1.00811  0
H  H102  1  0.59063016  0.06017888  0.99532938  1  0.642096  0  0.295115  0.328871  0  1.00813  0
H  H103  1  0.90937089  0.93982063  0.49532926  1  0.642093  0  0.295125  0.328897  0  1.008102  0
H  H104  1  0.51611188  0.95876659  0.62204894  1  0.049721  0  0.097739  0.065858  0  0.991635  0
H  H105  1  0.98388767  0.04123377  0.12204860  1  0.049748  0  0.097738  0.065838  0  0.99167  0
H  H106  1  0.48388837  0.45876535  0.87795097  1  0.049739  0  0.097745  0.065873  0  0.991661  0
H  H107  1  0.01611425  0.54123509  0.37795244  1  0.049775  0  0.097739  0.065898  0  0.991644  0
H  H108  1  0.53842183  0.82119188  0.59714183  1  0.040901  0  0.1017  0.071008  0  0.975745  0
H  H109  1  0.96157866  0.17880843  0.09714265  1  0.040906  0  0.101682  0.070989  0  0.97577  0
H  H110  1  0.46157921  0.32119066  0.90285796  1  0.040885  0  0.101701  0.071036  0  0.975769  0
H  H111  1  0.03842247  0.67881063  0.40285903  1  0.04087  0  0.101699  0.071044  0  0.975728  0
H  H112  1  0.27907080  0.94063101  0.61109340  1  0.057402  0  0.101335  0.045372  0  0.98203  0
H  H113  1  0.22092949  0.05936808  0.11109454  1  0.057392  0  0.101334  0.045345  0  0.982051  0
H  H114  1  0.72092942  0.44063241  0.88890702  1  0.0574  0  0.101301  0.045301  0  0.982004  0
H  H115  1  0.77907245  0.55936849  0.38890651  1  0.0574  0  0.101339  0.045345  0  0.982034  0
H  H116  1  0.38866590  0.89551990  0.72621175  1  0.030445  0  0.088754  0.128592  0  1.024437  0
H  H117  1  0.11133066  0.10448264  0.22621236  1  0.030458  0  0.088742  0.128568  0  1.024454  0
H  H118  1  0.61133329  0.39551936  0.77378863  1  0.030446  0  0.088759  0.128611  0  1.024428  0
H  H119  1  0.88866647  0.60448130  0.27378821  1  0.030448  0  0.08876  0.128611  0  1.024416  0
H  H120  1  0.24921802  0.81405069  0.71365086  1  0.047021  0  0.088867  0.126866  0  1.041459  0
H  H121  1  0.25078047  0.18595022  0.21365159  1  0.047033  0  0.088873  0.126866  0  1.041443  0
H  H122  1  0.75078301  0.31405111  0.78634998  1  0.047029  0  0.088887  0.126888  0  1.041424  0
H  H123  1  0.74921774  0.68594878  0.28635062  1  0.047044  0  0.088893  0.126888  0  1.041432  0
H  H124  1  0.40644672  0.75946083  0.69817180  1  0.025026  0  0.088129  0.124178  0  1.013627  0
H  H125  1  0.09355273  0.24054086  0.19817041  1  0.024856  0  0.088107  0.124154  0  1.013651  0
H  H126  1  0.59355424  0.25945953  0.80182900  1  0.024885  0  0.088137  0.124189  0  1.013569  0
H  H127  1  0.90644653  0.74054120  0.30182922  1  0.024876  0  0.08814  0.124201  0  1.013592  0
H  H128  1  0.18685870  0.78414081  0.57385108  1  0.66531  0  0.298525  0.347544  0  0.986962  0
H  H129  1  0.31314155  0.21585821  0.07385133  1  0.665311  0  0.298528  0.347544  0  0.986966  0
H  H130  1  0.81314132  0.28414156  0.92614974  1  0.665309  0  0.298512  0.347511  0  0.987003  0
H  H131  1  0.68685865  0.71585780  0.42614933  1  0.665315  0  0.298516  0.347526  0  0.986983  0
H  H132  1  0.41768103  0.97648496  0.50714782  1  0.644212  0  0.296423  0.342619  0  0.990341  0
H  H133  1  0.08231814  0.02351473  0.00714781  1  0.644218  0  0.296433  0.342613  0  0.990344  0
H  H134  1  0.58231632  0.47648644  0.99285264  1  0.644227  0  0.296424  0.342621  0  0.990292  0
H  H135  1  0.91768375  0.52351466  0.49285268  1  0.644243  0  0.296433  0.342641  0  0.990265  0
C  C136  1  0.67003463  0.37992377  0.32197369  1  1.57325  0  0.222407  0.584876  0  4.195402  0
C  C137  1  0.82996423  0.62007458  0.82197387  1  1.573257  0  0.222406  0.584825  0  4.195457  0
C  C138  1  0.32995704  0.87992738  0.17802501  1  1.573155  0  0.222437  0.58471  0  4.195579  0
C  C139  1  0.17004530  0.12007427  0.67802522  1  1.572949  0  0.222418  0.584722  0  4.19574  0
C  C140  1  0.69625706  0.41402379  0.24764282  1  0.009015  0  -0.011541  -0.030286  0  3.955045  0
C  C141  1  0.80374170  0.58597360  0.74764297  1  0.009005  0  -0.011517  -0.030207  0  3.955069  0
C  C142  1  0.30373659  0.91402914  0.25235485  1  0.00904  0  -0.011428  -0.02997  0  3.954927  0
C  C143  1  0.19626487  0.08597346  0.75235504  1  0.009023  0  -0.011461  -0.030076  0  3.955087  0
C  C144  1  0.81871865  0.39170683  0.21849466  1  -0.078606  0  -0.081144  -0.099011  0  3.972429  0
C  C145  1  0.68128103  0.60829292  0.71849477  1  -0.079091  0  -0.081176  -0.099083  0  3.972389  0
C  C146  1  0.18127594  0.89170891  0.28150352  1  -0.078566  0  -0.081247  -0.099206  0  3.97247  0
C  C147  1  0.31872557  0.10829375  0.78150484  1  -0.078533  0  -0.081193  -0.099074  0  3.972466  0
C  C148  1  0.85148771  0.43162638  0.15257083  1  -0.059779  0  -0.08667  -0.107232  0  3.975733  0
C  C149  1  0.64851188  0.56837244  0.65257036  1  -0.059281  0  -0.086673  -0.107226  0  3.975769  0
C  C150  1  0.14850985  0.93162614  0.34742792  1  -0.05981  0  -0.086646  -0.107189  0  3.975652  0
C  C151  1  0.35149175  0.06837584  0.84742921  1  -0.059823  0  -0.086727  -0.107438  0  3.975937  0
C  C152  1  0.76087009  0.49276417  0.11455275  1  -0.121567  0  -0.012959  -0.033464  0  3.971865  0
C  C153  1  0.73913043  0.50723537  0.61455332  1  -0.12155  0  -0.012942  -0.033443  0  3.971896  0
C  C154  1  0.23913047  0.99276490  0.38544657  1  -0.121644  0  -0.012921  -0.033417  0  3.971792  0
C  C155  1  0.26087118  0.00723716  0.88544725  1  -0.121635  0  -0.012909  -0.033318  0  3.971618  0
C  C156  1  0.63618672  0.51113625  0.14205085  1  0.029965  0  -0.076714  -0.091833  0  3.946899  0
C  C157  1  0.86381286  0.48886093  0.64205147  1  0.029977  0  -0.07676  -0.091898  0  3.946856  0
C  C158  1  0.36381029  0.01113889  0.35794595  1  0.030016  0  -0.07671  -0.091877  0  3.946903  0
C  C159  1  0.13619132  0.98886231  0.85794584  1  0.030045  0  -0.076687  -0.091895  0  3.946753  0
C  C160  1  0.60452174  0.47231461  0.20861115  1  -0.043862  0  -0.077998  -0.090865  0  3.962936  0
C  C161  1  0.89547696  0.52768270  0.70861233  1  -0.043936  0  -0.078005  -0.090951  0  3.962996  0
C  C162  1  0.39547199  0.97231851  0.29138395  1  -0.043888  0  -0.078142  -0.091163  0  3.963017  0
C  C163  1  0.10453051  0.02768417  0.79138353  1  -0.043876  0  -0.078099  -0.091061  0  3.963091  0
C  C164  1  0.79944259  0.54158845  0.04597473  1  1.544752  0  0.227264  0.599326  0  4.138548  0
C  C165  1  0.70055686  0.45840934  0.54597472  1  1.544728  0  0.227324  0.599325  0  4.138555  0
C  C166  1  0.20055350  0.04158631  0.45402472  1  1.544919  0  0.227262  0.599347  0  4.138657  0
C  C167  1  0.29944728  0.95841267  0.95402519  1  1.544916  0  0.22728  0.59928  0  4.138628  0
C  C168  1  0.10745941  0.30983518  0.46453058  1  1.56258  0  0.220466  0.585193  0  4.075037  0
C  C169  1  0.39254041  0.69016383  0.96452980  1  1.562308  0  0.220436  0.58512  0  4.075065  0
C  C170  1  0.89253702  0.80983497  0.03546648  1  1.562491  0  0.220574  0.585262  0  4.074859  0
C  C171  1  0.60746241  0.19016361  0.53546725  1  1.562583  0  0.220602  0.585356  0  4.075115  0
C  C172  1  0.23105722  0.34497764  0.42599811  1  0.499768  0  -0.020716  0.136785  0  3.973775  0
C  C173  1  0.26894255  0.65502290  0.92599830  1  0.499917  0  -0.020684  0.136976  0  3.973533  0
C  C174  1  0.76894315  0.84497740  0.07400161  1  0.499809  0  -0.02071  0.136854  0  3.973696  0
C  C175  1  0.73105730  0.15501965  0.57400188  1  0.49974  0  -0.020695  0.136832  0  3.973784  0
C  C176  1  0.22761068  0.30850379  0.34913242  1  -0.06547  0  -0.253127  -0.413243  0  3.917181  0
C  C177  1  0.27238801  0.69149498  0.84913212  1  -0.065565  0  -0.253126  -0.413307  0  3.917207  0
C  C178  1  0.77238770  0.80850371  0.15086779  1  -0.06548  0  -0.253117  -0.413203  0  3.917183  0
C  C179  1  0.72761384  0.19149430  0.65086756  1  -0.06552  0  -0.253131  -0.413345  0  3.917199  0
C  C180  1  0.23831905  0.52696111  0.60290605  1  0.415785  0  -0.083909  -0.010988  0  3.900013  0
C  C181  1  0.26168026  0.47303958  0.10290599  1  0.415787  0  -0.083914  -0.01096  0  3.899964  0
C  C182  1  0.76168355  0.02696015  0.89709349  1  0.415791  0  -0.083913  -0.011003  0  3.899969  0
C  C183  1  0.73831833  0.97303996  0.39709437  1  0.415797  0  -0.083878  -0.010949  0  3.899979  0
C  C184  1  0.27277193  0.43144391  0.64949945  1  0.453573  0  -0.007584  0.24548  0  3.86566  0
C  C185  1  0.22722842  0.56855607  0.14949945  1  0.453567  0  -0.007585  0.245459  0  3.865688  0
C  C186  1  0.72723023  0.93144338  0.85049991  1  0.453566  0  -0.007622  0.2454  0  3.865727  0
C  C187  1  0.77276965  0.06855663  0.35050003  1  0.453555  0  -0.00758  0.245505  0  3.865686  0
C  C188  1  0.31683376  0.46184552  0.72332803  1  -0.042664  0  -0.252173  -0.444877  0  3.934434  0
C  C189  1  0.18316572  0.53815461  0.22332799  1  -0.042688  0  -0.252164  -0.444874  0  3.934379  0
C  C190  1  0.68316552  0.96184320  0.77667189  1  -0.042684  0  -0.252144  -0.444813  0  3.934365  0
C  C191  1  0.81683230  0.03815587  0.27667199  1  -0.042701  0  -0.252151  -0.444854  0  3.934407  0
C  C192  1  0.34207558  0.62980373  0.41938962  1  0.437325  0  -0.080238  0.008216  0  3.87325  0
C  C193  1  0.15792418  0.37019759  0.91938846  1  0.437356  0  -0.080277  0.00811  0  3.873367  0
C  C194  1  0.65792354  0.12980285  0.08061097  1  0.437377  0  -0.080271  0.008114  0  3.873299  0
C  C195  1  0.84207790  0.87019582  0.58061138  1  0.437369  0  -0.080263  0.008164  0  3.873314  0
C  C196  1  0.42685383  0.71857423  0.38675781  1  0.453164  0  -0.012383  0.241847  0  3.884449  0
C  C197  1  0.07314491  0.28142703  0.88675812  1  0.453088  0  -0.012364  0.241943  0  3.884302  0
C  C198  1  0.57314443  0.21857414  0.11324285  1  0.453064  0  -0.012348  0.241887  0  3.884444  0
C  C199  1  0.92685511  0.78142782  0.61324375  1  0.453071  0  -0.012339  0.241946  0  3.884401  0
C  C200  1  0.48759625  0.68397345  0.31757749  1  -0.071474  0  -0.253849  -0.438235  0  3.928238  0
C  C201  1  0.01240142  0.31602687  0.81757728  1  -0.071482  0  -0.25385  -0.438299  0  3.928223  0
C  C202  1  0.51240002  0.18397183  0.18242261  1  -0.071484  0  -0.253865  -0.438318  0  3.928335  0
C  C203  1  0.98759864  0.81602946  0.68242356  1  -0.071432  0  -0.253884  -0.438383  0  3.928312  0
C  C204  1  0.47631071  0.89258509  0.58978524  1  0.442588  0  -0.07727  0.014329  0  3.904334  0
C  C205  1  0.02369052  0.10741476  0.08978528  1  0.442571  0  -0.077255  0.014366  0  3.904377  0
C  C206  1  0.52368848  0.39258395  0.91021514  1  0.442665  0  -0.077292  0.014211  0  3.904485  0
C  C207  1  0.97631148  0.60741619  0.41021528  1  0.442654  0  -0.077286  0.01418  0  3.904422  0
C  C208  1  0.33939692  0.86771570  0.61638703  1  0.461826  0  -0.012009  0.229991  0  3.875624  0
C  C209  1  0.16060241  0.13228340  0.11638715  1  0.461826  0  -0.011949  0.230058  0  3.875634  0
C  C210  1  0.66060224  0.36771543  0.88361334  1  0.461607  0  -0.011933  0.230162  0  3.875524  0
C  C211  1  0.83939671  0.63228385  0.38361396  1  0.461706  0  -0.011997  0.230102  0  3.875561  0
C  C212  1  0.34621302  0.83219181  0.69306963  1  -0.085313  0  -0.252344  -0.447685  0  3.935818  0
C  C213  1  0.15378545  0.16780825  0.19307031  1  -0.085184  0  -0.252341  -0.447643  0  3.935774  0
C  C214  1  0.65378707  0.33219299  0.80693122  1  -0.085154  0  -0.252365  -0.447735  0  3.935765  0
C  C215  1  0.84621372  0.66780694  0.30693136  1  -0.085143  0  -0.252377  -0.447756  0  3.935759  0
O  O216  1  0.55921784  0.40582983  0.34821940  1  -1.170194  0  -0.315321  -0.552438  0  2.362163  0
O  O217  1  0.94078203  0.59416938  0.84821908  1  -1.170187  0  -0.315316  -0.55241  0  2.362171  0
O  O218  1  0.44077094  0.90583590  0.15177669  1  -1.170077  0  -0.315321  -0.552309  0  2.362241  0
O  O219  1  0.05923136  0.09416569  0.65177683  1  -1.170002  0  -0.315292  -0.552286  0  2.362222  0
O  O220  1  0.76075537  0.33088782  0.35299810  1  -1.185912  0  -0.302387  -0.536644  0  2.405044  0
O  O221  1  0.73924354  0.66911060  0.85299829  1  -1.185908  0  -0.302398  -0.536621  0  2.405021  0
O  O222  1  0.23923526  0.83088404  0.14700108  1  -1.186047  0  -0.302432  -0.536637  0  2.405071  0
O  O223  1  0.26076606  0.16911593  0.64700137  1  -1.185912  0  -0.302457  -0.536664  0  2.405117  0
O  O224  1  0.71311087  0.56222470  0.00037069  1  -1.182798  0  -0.294988  -0.562352  0  2.351846  0
O  O225  1  0.78688851  0.43777220  0.50037176  1  -1.182789  0  -0.295011  -0.562376  0  2.351853  0
O  O226  1  0.28688621  0.06221869  0.49963088  1  -1.182788  0  -0.294987  -0.562391  0  2.351744  0
O  O227  1  0.21311560  0.93777957  0.99963077  1  -1.182758  0  -0.294975  -0.562356  0  2.351745  0
O  O228  1  0.92103264  0.56206948  0.03783547  1  -1.168518  0  -0.300558  -0.547654  0  2.409595  0
O  O229  1  0.57896777  0.43792991  0.53783540  1  -1.168497  0  -0.300567  -0.547594  0  2.409603  0
O  O230  1  0.07896639  0.06206644  0.46216242  1  -1.168529  0  -0.300516  -0.547647  0  2.409844  0
O  O231  1  0.42103537  0.93793256  0.96216345  1  -1.168596  0  -0.300575  -0.547621  0  2.40981  0
O  O232  1  0.11973263  0.26412350  0.52507399  1  -1.186781  0  -0.314884  -0.585896  0  2.425128  0
O  O233  1  0.38026754  0.73587622  0.02507367  1  -1.186744  0  -0.314858  -0.585874  0  2.425131  0
O  O234  1  0.88026931  0.76412497  0.97492523  1  -1.186816  0  -0.314874  -0.585874  0  2.425273  0
O  O235  1  0.61973171  0.23587449  0.47492753  1  -1.186769  0  -0.31494  -0.585961  0  2.425577  0
O  O236  1  0.00148980  0.32878835  0.43377493  1  -1.172563  0  -0.300897  -0.508492  0  2.35263  0
O  O237  1  0.49851095  0.67121139  0.93377471  1  -1.172583  0  -0.300899  -0.508481  0  2.352708  0
O  O238  1  0.99851541  0.82879071  0.06622424  1  -1.172414  0  -0.301015  -0.508631  0  2.352401  0
O  O239  1  0.50148504  0.17120792  0.56622548  1  -1.172543  0  -0.300971  -0.508601  0  2.352358  0
O  O240  1  0.34358122  0.30589201  0.46002756  1  -1.146681  0  -0.405747  -0.636529  0  2.501426  0
O  O241  1  0.15641860  0.69410698  0.96002773  1  -1.146569  0  -0.405743  -0.63655  0  2.501408  0
O  O242  1  0.65642007  0.80589402  0.03997265  1  -1.14666  0  -0.405724  -0.636482  0  2.501468  0
O  O243  1  0.84358033  0.19410215  0.53997195  1  -1.146587  0  -0.405773  -0.636528  0  2.501432  0
O  O244  1  0.37049545  0.36568585  0.61591079  1  -1.142369  0  -0.394071  -0.511699  0  2.384255  0
O  O245  1  0.12950485  0.63431406  0.11591080  1  -1.142373  0  -0.394066  -0.511669  0  2.384244  0
O  O246  1  0.62950565  0.86568289  0.88408905  1  -1.142426  0  -0.394022  -0.511626  0  2.384134  0
O  O247  1  0.87049427  0.13431638  0.38408873  1  -1.142405  0  -0.394077  -0.511732  0  2.384165  0
O  O248  1  0.35386250  0.58713071  0.58699466  1  -1.16526  0  -0.402638  -0.480015  0  2.369758  0
O  O249  1  0.14613776  0.41286995  0.08699450  1  -1.16526  0  -0.402657  -0.480069  0  2.369732  0
O  O250  1  0.64614018  0.08712968  0.91300493  1  -1.161142  0  -0.402627  -0.48001  0  2.369786  0
O  O251  1  0.85386075  0.91286966  0.41300476  1  -1.16117  0  -0.402646  -0.480017  0  2.369811  0
O  O252  1  0.52870193  0.75058083  0.43391988  1  -1.164117  0  -0.40321  -0.522254  0  2.307319  0
O  O253  1  0.97129708  0.24942097  0.93391980  1  -1.164141  0  -0.40314  -0.522119  0  2.307525  0
O  O254  1  0.47129734  0.25057975  0.06608081  1  -1.164142  0  -0.403166  -0.52215  0  2.307486  0
O  O255  1  0.02870484  0.74942006  0.56608256  1  -1.164136  0  -0.403212  -0.522188  0  2.307551  0
O  O256  1  0.41692683  0.54711361  0.45286253  1  -1.169969  0  -0.409747  -0.493241  0  2.442363  0
O  O257  1  0.08307200  0.45288778  0.95286300  1  -1.170003  0  -0.409754  -0.493252  0  2.442317  0
O  O258  1  0.58307315  0.04711259  0.04713693  1  -1.169993  0  -0.409769  -0.493251  0  2.442296  0
O  O259  1  0.91692922  0.95288601  0.54713691  1  -1.169974  0  -0.409736  -0.493237  0  2.44232  0
O  O260  1  0.28437703  0.78554300  0.57186545  1  -1.187323  0  -0.396873  -0.509055  0  2.32525  0
O  O261  1  0.21562321  0.21445682  0.07186567  1  -1.187298  0  -0.396918  -0.509121  0  2.325306  0
O  O262  1  0.71562396  0.28554287  0.92813589  1  -1.187207  0  -0.396916  -0.509098  0  2.325215  0
O  O263  1  0.78437699  0.71445650  0.42813551  1  -1.187334  0  -0.396894  -0.509079  0  2.3252  0
O  O264  1  0.48371818  0.91960350  0.51688614  1  -1.167647  0  -0.402777  -0.488558  0  2.358896  0
O  O265  1  0.01628198  0.08039702  0.01688615  1  -1.167651  0  -0.402779  -0.48855  0  2.358882  0
O  O266  1  0.51628007  0.41960330  0.98311374  1  -1.167632  0  -0.402765  -0.488523  0  2.358876  0
O  O267  1  0.98371902  0.58039779  0.48311492  1  -1.167649  0  -0.402768  -0.488545  0  2.35886  0
