# generated using pymatgen
data_CdH12C9O8
_symmetry_space_group_name_H-M   'P 1'
_cell_length_a   6.97983708
_cell_length_b   10.16439023
_cell_length_c   16.41700000
_cell_angle_alpha   90.00000000
_cell_angle_beta   90.00000000
_cell_angle_gamma   99.56582939
_symmetry_Int_Tables_number   1
_chemical_formula_structural   CdH12C9O8
_chemical_formula_sum   'Cd4 H48 C36 O32'
_cell_volume   1148.52198256
_cell_formula_units_Z   4
loop_
 _symmetry_equiv_pos_site_id
 _symmetry_equiv_pos_as_xyz
  1  'x, y, z'
loop_
 _atom_site_type_symbol
 _atom_site_label
 _atom_site_symmetry_multiplicity
 _atom_site_fract_x
 _atom_site_fract_y
 _atom_site_fract_z
 _atom_site_occupancy
 _atom_site_hle17_bader_spin_density
 _atom_site_hle17_ddec_charge
 _atom_site_hle17_ddec_spin_density
 _atom_site_hle17_ddec_sum_bond_order
 _atom_site_hle17_magmom
 _atom_site_hse06_10hf_bader_spin_density
 _atom_site_hse06_10hf_ddec_charge
 _atom_site_hse06_10hf_ddec_spin_density
 _atom_site_hse06_10hf_ddec_sum_bond_order
 _atom_site_hse06_10hf_magmom
 _atom_site_hse06_bader_spin_density
 _atom_site_hse06_ddec_charge
 _atom_site_hse06_ddec_spin_density
 _atom_site_hse06_ddec_sum_bond_order
 _atom_site_hse06_magmom
 _atom_site_pbe_bader_charge
 _atom_site_pbe_bader_spin_density
 _atom_site_pbe_cm5_charge
 _atom_site_pbe_ddec_charge
 _atom_site_pbe_ddec_spin_density
 _atom_site_pbe_ddec_sum_bond_order
 _atom_site_pbe_magmom
Cd  Cd0  1  0.76582824  0.02648493  0.62086008  1  0  1.275697  0  1.545219  0  0  1.103742  0  1.985822  0  0  1.161093  0  1.925273  0  1.341476  0  0.76779  1.062405  0  2.02793  0
Cd  Cd1  1  0.23417353  0.47351319  0.12086069  1  0  1.275673  0  1.54525  0  0  1.103723  0  1.985848  0  0  1.161071  0  1.925306  0  1.341466  0  0.76778  1.062386  0  2.027955  0
Cd  Cd2  1  0.23416940  0.97351231  0.37913931  1  0  1.275717  0  1.545255  0  0  1.103753  0  1.98586  0  0  1.161109  0  1.925303  0  1.341484  0  0.767802  1.062417  0  2.027968  0
Cd  Cd3  1  0.76583224  0.52648804  0.87914053  1  0  1.275681  0  1.54529  0  0  1.10371  0  1.985916  0  0  1.161071  0  1.925349  0  1.341472  0  0.767786  1.062373  0  2.028026  0
H  H4  1  0.30323949  0.67392409  0.73977523  1  0  0.114775  0  0.929324  0  0  0.123496  0  0.994346  0  0  0.124495  0  0.995181  0  0.137938  0  0.120883  0.122713  0  0.993993  0
H  H5  1  0.69676096  0.82607726  0.23977645  1  0  0.114748  0  0.92936  0  0  0.123475  0  0.99439  0  0  0.124473  0  0.995225  0  0.137915  0  0.120878  0.122692  0  0.994036  0
H  H6  1  0.69675434  0.32607515  0.26022720  1  0  0.114795  0  0.929366  0  0  0.123494  0  0.994406  0  0  0.124515  0  0.995217  0  0.137917  0  0.120917  0.122717  0  0.994039  0
H  H7  1  0.30324410  0.17392697  0.76022659  1  0  0.114769  0  0.929306  0  0  0.123495  0  0.994334  0  0  0.124498  0  0.995163  0  0.137971  0  0.120913  0.122715  0  0.993977  0
H  H8  1  0.43540393  0.74167886  0.82646403  1  0  0.107131  0  0.928239  0  0  0.114902  0  0.994813  0  0  0.117364  0  0.992129  0  0.105883  0  0.11548  0.113084  0  0.996967  0
H  H9  1  0.56459890  0.75832049  0.32646525  1  0  0.10714  0  0.928207  0  0  0.11491  0  0.994788  0  0  0.117368  0  0.992114  0  0.105842  0  0.115484  0.113092  0  0.996942  0
H  H10  1  0.56459205  0.25832337  0.17353841  1  0  0.107129  0  0.928207  0  0  0.114901  0  0.994774  0  0  0.117363  0  0.99209  0  0.10597  0  0.115474  0.11308  0  0.99693  0
H  H11  1  0.43540520  0.24167974  0.67353780  1  0  0.107144  0  0.928135  0  0  0.114924  0  0.994708  0  0  0.117388  0  0.992019  0  0.105909  0  0.115492  0.113106  0  0.996862  0
H  H12  1  0.90655856  0.94701740  0.82296705  1  0  0.119742  0  0.944855  0  0  0.130235  0  1.004527  0  0  0.133935  0  1.00275  0  0.107348  0  0.107866  0.127568  0  1.00602  0
H  H13  1  0.09344905  0.55298395  0.32297009  1  0  0.119713  0  0.944878  0  0  0.130219  0  1.004551  0  0  0.13392  0  1.002776  0  0.107279  0  0.107852  0.12755  0  1.006048  0
H  H14  1  0.09344221  0.05298682  0.17703234  1  0  0.119788  0  0.944788  0  0  0.130232  0  1.004517  0  0  0.133932  0  1.00274  0  0.107336  0  0.107866  0.127563  0  1.006013  0
H  H15  1  0.90655504  0.44701629  0.67702808  1  0  0.119749  0  0.944866  0  0  0.13024  0  1.004548  0  0  0.133941  0  1.002771  0  0.107147  0  0.107861  0.127571  0  1.006046  0
H  H16  1  0.51004341  0.93890012  0.87733021  1  0  0.113243  0  0.955216  0  0  0.125897  0  1.011611  0  0  0.12873  0  1.011103  0  0.088294  0  0.107064  0.123918  0  1.01211  0
H  H17  1  0.48996061  0.56109824  0.37732777  1  0  0.113276  0  0.955191  0  0  0.125935  0  1.011583  0  0  0.128768  0  1.011073  0  0.088278  0  0.107096  0.12396  0  1.012071  0
H  H18  1  0.48995471  0.06109912  0.12266918  1  0  0.113216  0  0.955221  0  0  0.125871  0  1.01162  0  0  0.128703  0  1.011111  0  0.088319  0  0.107067  0.123896  0  1.012108  0
H  H19  1  0.51004276  0.43889900  0.62266918  1  0  0.113262  0  0.955175  0  0  0.12592  0  1.011568  0  0  0.128754  0  1.011058  0  0.088262  0  0.107063  0.123938  0  1.012074  0
H  H20  1  0.91297279  0.13920303  0.91722544  1  0  0.099629  0  0.936368  0  0  0.113409  0  0.991305  0  0  0.116619  0  0.988723  0  0.090369  0  0.106744  0.111087  0  0.993165  0
H  H21  1  0.08702803  0.36079709  0.41722787  1  0  0.099662  0  0.936368  0  0  0.11342  0  0.991316  0  0  0.116629  0  0.988734  0  0.090391  0  0.10675  0.1111  0  0.993182  0
H  H22  1  0.08703108  0.86080219  0.08277517  1  0  0.09967  0  0.936337  0  0  0.113437  0  0.99128  0  0  0.116645  0  0.988702  0  0.090419  0  0.106765  0.111118  0  0.993139  0
H  H23  1  0.91296842  0.63920115  0.58277030  1  0  0.09974  0  0.93631  0  0  0.113476  0  0.991269  0  0  0.116686  0  0.988688  0  0.09036  0  0.106769  0.11116  0  0.993132  0
H  H24  1  0.51475336  0.13042527  0.96890297  1  0  0.08783  0  0.969879  0  0  0.098164  0  1.033643  0  0  0.10112  0  1.031571  0  0.081613  0  0.101312  0.09599  0  1.035268  0
H  H25  1  0.48524411  0.36957285  0.46889931  1  0  0.087813  0  0.969908  0  0  0.09817  0  1.033645  0  0  0.1011  0  1.031603  0  0.08165  0  0.101316  0.095995  0  1.03527  0
H  H26  1  0.48524930  0.86957497  0.03109825  1  0  0.087821  0  0.969915  0  0  0.098168  0  1.033664  0  0  0.101114  0  1.031603  0  0.081632  0  0.101316  0.095995  0  1.035288  0
H  H27  1  0.51475280  0.63042140  0.53109460  1  0  0.087784  0  0.969815  0  0  0.098092  0  1.033606  0  0  0.101022  0  1.031569  0  0.081615  0  0.101286  0.095919  0  1.035226  0
H  H28  1  0.15140984  0.01294515  0.57678321  1  0  0.420224  0  0.883985  0  0  0.392223  0  0.942936  0  0  0.402753  0  0.927686  0  0.621288  0  0.287194  0.384749  0  0.953776  0
H  H29  1  0.84858978  0.48704998  0.07678504  1  0  0.420284  0  0.883895  0  0  0.392281  0  0.942848  0  0  0.402811  0  0.927597  0  0.621323  0  0.287218  0.384807  0  0.953688  0
H  H30  1  0.84858900  0.98705109  0.42321618  1  0  0.420236  0  0.883962  0  0  0.392232  0  0.942918  0  0  0.402762  0  0.927668  0  0.621309  0  0.28719  0.384758  0  0.953758  0
H  H31  1  0.15141264  0.51294926  0.92321618  1  0  0.420216  0  0.883985  0  0  0.39221  0  0.942945  0  0  0.402741  0  0.927693  0  0.621304  0  0.287178  0.384736  0  0.953785  0
H  H32  1  0.75142127  0.21458921  0.75609612  1  0  0.432797  0  0.87085  0  0  0.400141  0  0.936257  0  0  0.412192  0  0.919003  0  0.655675  0  0.287131  0.391588  0  0.948457  0
H  H33  1  0.24857859  0.28540692  0.25609551  1  0  0.432851  0  0.870751  0  0  0.400169  0  0.936201  0  0  0.412218  0  0.918949  0  0.655638  0  0.287149  0.391616  0  0.9484  0
H  H34  1  0.24857948  0.78540903  0.24390510  1  0  0.432805  0  0.870829  0  0  0.40015  0  0.936234  0  0  0.412201  0  0.91898  0  0.655666  0  0.287151  0.391598  0  0.948434  0
H  H35  1  0.75142216  0.71459132  0.74390449  1  0  0.432796  0  0.870843  0  0  0.400142  0  0.936246  0  0  0.412191  0  0.918994  0  0.655665  0  0.287144  0.39159  0  0.948445  0
H  H36  1  0.60174455  0.84761560  0.48894865  1  0  0.441696  0  0.856505  0  0  0.405451  0  0.927893  0  0  0.417301  0  0.910796  0  0.670036  0  0.292338  0.396875  0  0.940299  0
H  H37  1  0.39825709  0.65238475  0.98895048  1  0  0.44169  0  0.856517  0  0  0.405451  0  0.927898  0  0  0.4173  0  0.910803  0  0.670031  0  0.29232  0.396875  0  0.940304  0
H  H38  1  0.39825238  0.15238464  0.51105135  1  0  0.441726  0  0.856473  0  0  0.405477  0  0.927869  0  0  0.417328  0  0.910771  0  0.670079  0  0.29234  0.396901  0  0.940275  0
H  H39  1  0.60174558  0.34761548  0.01105135  1  0  0.441683  0  0.856528  0  0  0.405441  0  0.927911  0  0  0.417291  0  0.910815  0  0.670038  0  0.292345  0.396865  0  0.940316  0
H  H40  1  0.83280896  0.83124734  0.50119876  1  0  0.441271  0  0.849463  0  0  0.409317  0  0.913987  0  0  0.420562  0  0.897572  0  0.666241  0  0.301892  0.401142  0  0.925949  0
H  H41  1  0.16719243  0.66875202  0.00119998  1  0  0.441305  0  0.849429  0  0  0.409352  0  0.913951  0  0  0.420598  0  0.897535  0  0.666279  0  0.301886  0.401177  0  0.925911  0
H  H42  1  0.16718559  0.16875489  0.49880246  1  0  0.441264  0  0.849466  0  0  0.409306  0  0.914003  0  0  0.420552  0  0.897587  0  0.666215  0  0.30187  0.401131  0  0.925964  0
H  H43  1  0.83281142  0.33124722  0.99880246  1  0  0.441265  0  0.849474  0  0  0.409309  0  0.914003  0  0  0.420554  0  0.897589  0  0.666283  0  0.301883  0.401134  0  0.925965  0
H  H44  1  0.17620110  0.95922725  0.66401961  1  0  0.431354  0  0.864419  0  0  0.398634  0  0.931029  0  0  0.410065  0  0.914363  0  0.645737  0  0.290334  0.390416  0  0.943008  0
H  H45  1  0.82379886  0.54077211  0.16402022  1  0  0.431295  0  0.864501  0  0  0.398572  0  0.931116  0  0  0.410003  0  0.91445  0  0.645714  0  0.290304  0.390355  0  0.943095  0
H  H46  1  0.82379845  0.04077199  0.33598100  1  0  0.43133  0  0.86445  0  0  0.39861  0  0.93106  0  0  0.410041  0  0.914395  0  0.645724  0  0.290317  0.390392  0  0.943039  0
H  H47  1  0.17620477  0.45923212  0.83597917  1  0  0.431304  0  0.864478  0  0  0.398588  0  0.931085  0  0  0.410019  0  0.914419  0  0.645714  0  0.290305  0.39037  0  0.943063  0
H  H48  1  0.96342603  0.21308468  0.72367302  1  0  0.409424  0  0.899653  0  0  0.374743  0  0.969071  0  0  0.385597  0  0.953349  0  0.64477  0  0.295388  0.36708  0  0.980155  0
H  H49  1  0.03657385  0.28691744  0.22367363  1  0  0.409407  0  0.899684  0  0  0.374747  0  0.969071  0  0  0.385601  0  0.953349  0  0.64477  0  0.295393  0.367084  0  0.980156  0
H  H50  1  0.03657496  0.78691456  0.27632637  1  0  0.409407  0  0.899684  0  0  0.374715  0  0.969119  0  0  0.385567  0  0.953401  0  0.645021  0  0.295388  0.367051  0  0.980204  0
H  H51  1  0.96342548  0.71308679  0.77632698  1  0  0.409391  0  0.899701  0  0  0.374726  0  0.969089  0  0  0.385575  0  0.953376  0  0.645002  0  0.295403  0.367063  0  0.980173  0
C  C52  1  0.48741766  0.86079222  0.71659560  1  0  0.652717  0  3.908928  0  0  0.598049  0  4.215555  0  0  0.63032  0  4.211616  0  1.579197  0  0.19998  0.576231  0  4.21709  0
C  C53  1  0.51258182  0.63920514  0.21659743  1  0  0.652625  0  3.908697  0  0  0.597949  0  4.215334  0  0  0.630222  0  4.211391  0  1.579198  0  0.199941  0.576131  0  4.216868  0
C  C54  1  0.51257592  0.13920602  0.28340379  1  0  0.652798  0  3.908637  0  0  0.597971  0  4.215466  0  0  0.630242  0  4.211528  0  1.579267  0  0.1999  0.57615  0  4.217004  0
C  C55  1  0.48742444  0.36079808  0.78340257  1  0  0.652727  0  3.908331  0  0  0.597868  0  4.21523  0  0  0.630141  0  4.211291  0  1.579608  0  0.199916  0.576051  0  4.216764  0
C  C56  1  0.35512776  0.76712719  0.77265213  1  0  -0.074571  0  3.601443  0  0  -0.129398  0  3.854794  0  0  -0.126158  0  3.855297  0  0.375194  0  -0.063303  -0.131644  0  3.854511  0
C  C57  1  0.64487220  0.73287217  0.27265274  1  0  -0.074518  0  3.601392  0  0  -0.129374  0  3.854772  0  0  -0.126132  0  3.855277  0  0.375228  0  -0.063302  -0.131619  0  3.854488  0
C  C58  1  0.64487036  0.23287205  0.22734970  1  0  -0.074612  0  3.601301  0  0  -0.129395  0  3.8547  0  0  -0.126163  0  3.855202  0  0.375181  0  -0.063316  -0.131635  0  3.854413  0
C  C59  1  0.35513094  0.26713006  0.72734909  1  0  -0.074564  0  3.601166  0  0  -0.129385  0  3.854622  0  0  -0.126138  0  3.855128  0  0.374918  0  -0.063315  -0.131632  0  3.854344  0
C  C60  1  0.20456385  0.92819779  0.84634038  1  0  0.292514  0  3.778163  0  0  0.276675  0  4.043403  0  0  0.290375  0  4.057343  0  0.395697  0  0.089716  0.267549  0  4.033876  0
C  C61  1  0.79543874  0.57180056  0.34633916  1  0  0.292458  0  3.778287  0  0  0.276659  0  4.043463  0  0  0.290366  0  4.057404  0  0.395677  0  0.089733  0.267532  0  4.033939  0
C  C62  1  0.79543165  0.07180244  0.15366084  1  0  0.292457  0  3.778186  0  0  0.276567  0  4.043461  0  0  0.29028  0  4.057398  0  0.395899  0  0.0897  0.26744  0  4.033937  0
C  C63  1  0.20455866  0.42819568  0.65365901  1  0  0.292432  0  3.778204  0  0  0.276589  0  4.043426  0  0  0.290304  0  4.057367  0  0.395526  0  0.08966  0.267467  0  4.033894  0
C  C64  1  0.03755885  0.98606936  0.85702199  1  0  -0.175702  0  3.724136  0  0  -0.19836  0  3.985822  0  0  -0.204974  0  4.003571  0  0.001716  0  -0.101143  -0.194183  0  3.973941  0
C  C65  1  0.96244278  0.51393100  0.35702382  1  0  -0.17559  0  3.724177  0  0  -0.198282  0  3.985837  0  0  -0.204896  0  4.003586  0  0.001762  0  -0.101123  -0.194107  0  3.97396  0
C  C66  1  0.96243760  0.01392888  0.14297862  1  0  -0.175659  0  3.723984  0  0  -0.198258  0  3.985671  0  0  -0.20487  0  4.003413  0  0.001658  0  -0.101114  -0.194083  0  3.973792  0
C  C67  1  0.03755534  0.48606824  0.64297496  1  0  -0.175675  0  3.724157  0  0  -0.198333  0  3.985803  0  0  -0.204945  0  4.003547  0  0.001946  0  -0.10113  -0.194155  0  3.973922  0
C  C68  1  0.37805163  0.98127641  0.88570750  1  0  -0.209358  0  3.754453  0  0  -0.228205  0  4.009367  0  0  -0.235893  0  4.029432  0  -0.015602  0  -0.110165  -0.223254  0  3.996059  0
C  C69  1  0.62194904  0.51871995  0.38570384  1  0  -0.209474  0  3.754601  0  0  -0.228339  0  4.009497  0  0  -0.236023  0  4.029549  0  -0.015424  0  -0.110279  -0.223386  0  3.996191  0
C  C70  1  0.62194936  0.01872283  0.11429616  1  0  -0.209298  0  3.754532  0  0  -0.228136  0  4.009463  0  0  -0.235821  0  4.029521  0  -0.015568  0  -0.110205  -0.223184  0  3.996157  0
C  C71  1  0.37805122  0.48127629  0.61429067  1  0  -0.209391  0  3.754423  0  0  -0.228256  0  4.009323  0  0  -0.235941  0  4.029376  0  -0.015339  0  -0.110189  -0.223303  0  3.996011  0
C  C72  1  0.21457283  0.25632996  0.01099226  1  0  0.656986  0  3.905623  0  0  0.604132  0  4.198616  0  0  0.6393  0  4.192051  0  1.508409  0  0.204132  0.580072  0  4.202544  0
C  C73  1  0.78542632  0.24366916  0.51099105  1  0  0.656904  0  3.905712  0  0  0.604085  0  4.198696  0  0  0.639254  0  4.19213  0  1.508299  0  0.204111  0.580023  0  4.202619  0
C  C74  1  0.78543175  0.74367227  0.98900895  1  0  0.657009  0  3.905638  0  0  0.604177  0  4.198587  0  0  0.639345  0  4.192023  0  1.508474  0  0.204168  0.580115  0  4.20251  0
C  C75  1  0.21457443  0.75632908  0.48900713  1  0  0.657069  0  3.905484  0  0  0.604273  0  4.198451  0  0  0.639441  0  4.191884  0  1.508396  0  0.204165  0.580212  0  4.202379  0
C  C76  1  0.21344018  0.14643535  0.95128403  1  0  -0.104987  0  3.788069  0  0  -0.08489  0  4.028163  0  0  -0.096025  0  4.052715  0  -0.025731  0  -0.032723  -0.077568  0  4.01154  0
C  C77  1  0.78655538  0.35356077  0.45128038  1  0  -0.104969  0  3.788004  0  0  -0.084938  0  4.028161  0  0  -0.096073  0  4.052706  0  -0.025784  0  -0.032717  -0.077614  0  4.011536  0
C  C78  1  0.78655508  0.85356388  0.04871901  1  0  -0.105073  0  3.787955  0  0  -0.084955  0  4.028023  0  0  -0.09609  0  4.052571  0  -0.02597  0  -0.032744  -0.077632  0  4.011399  0
C  C79  1  0.21344250  0.64643747  0.54871536  1  0  -0.105029  0  3.788071  0  0  -0.085073  0  4.028305  0  0  -0.096207  0  4.052849  0  -0.025733  0  -0.032763  -0.077749  0  4.011684  0
C  C80  1  0.04232975  0.09372589  0.90925139  1  0  -0.022045  0  3.726427  0  0  -0.047941  0  3.977597  0  0  -0.044049  0  3.996045  0  -0.028183  0  -0.076032  -0.050135  0  3.964864  0
C  C81  1  0.95767226  0.40627323  0.40925199  1  0  -0.022153  0  3.72638  0  0  -0.048009  0  3.977574  0  0  -0.044115  0  3.996021  0  -0.028439  0  -0.076065  -0.050212  0  3.964852  0
C  C82  1  0.95767148  0.90627434  0.09074801  1  0  -0.022119  0  3.726373  0  0  -0.048017  0  3.977536  0  0  -0.044124  0  3.995981  0  -0.028584  0  -0.076076  -0.050212  0  3.964805  0
C  C83  1  0.04232394  0.59372401  0.59074313  1  0  -0.022193  0  3.726315  0  0  -0.04801  0  3.977504  0  0  -0.044117  0  3.995949  0  -0.028371  0  -0.076064  -0.050216  0  3.964784  0
C  C84  1  0.38052079  0.09005436  0.93756959  1  0  -0.041067  0  3.759998  0  0  -0.064454  0  4.008386  0  0  -0.061343  0  4.028548  0  -0.012778  0  -0.084974  -0.06626  0  3.994542  0
C  C85  1  0.61947836  0.40994476  0.43756777  1  0  -0.040941  0  3.760108  0  0  -0.064323  0  4.008502  0  0  -0.061191  0  4.028672  0  -0.012657  0  -0.084904  -0.066127  0  3.994655  0
C  C86  1  0.61947711  0.90994987  0.06243102  1  0  -0.040987  0  3.759969  0  0  -0.064397  0  4.008351  0  0  -0.061281  0  4.028514  0  -0.012428  0  -0.084916  -0.066204  0  3.994508  0
C  C87  1  0.38050996  0.59004948  0.56242493  1  0  -0.040912  0  3.759979  0  0  -0.064218  0  4.008372  0  0  -0.061089  0  4.028542  0  -0.012654  0  -0.084846  -0.066021  0  3.994523  0
O  O88  1  0.65517487  0.83158656  0.70196991  1  0  -0.650227  0  2.024237  0  0  -0.578381  0  2.259876  0  0  -0.609195  0  2.250264  0  -1.178796  0  -0.315621  -0.556579  0  2.265587  0
O  O89  1  0.34482127  0.66841479  0.20197052  1  0  -0.650231  0  2.023997  0  0  -0.578362  0  2.259623  0  0  -0.609174  0  2.250009  0  -1.178787  0  -0.315624  -0.556558  0  2.265334  0
O  O90  1  0.34481871  0.16841168  0.29802887  1  0  -0.650286  0  2.024155  0  0  -0.578348  0  2.259842  0  0  -0.609161  0  2.250229  0  -1.178867  0  -0.315558  -0.556546  0  2.265555  0
O  O91  1  0.65518091  0.33158345  0.79803375  1  0  -0.650221  0  2.023781  0  0  -0.578295  0  2.259496  0  0  -0.609109  0  2.249886  0  -1.178936  0  -0.315587  -0.556492  0  2.265205  0
O  O92  1  0.43050911  0.96174245  0.68634891  1  0  -0.634538  0  1.997806  0  0  -0.572569  0  2.233904  0  0  -0.600877  0  2.22607  0  -1.177838  0  -0.306783  -0.552683  0  2.238696  0
O  O93  1  0.56948703  0.53825890  0.18634769  1  0  -0.634479  0  1.997853  0  0  -0.572496  0  2.23393  0  0  -0.600803  0  2.226098  0  -1.177823  0  -0.306753  -0.552613  0  2.238724  0
O  O94  1  0.56948663  0.03825878  0.31365231  1  0  -0.634531  0  1.997703  0  0  -0.572509  0  2.23387  0  0  -0.600816  0  2.226036  0  -1.177808  0  -0.306754  -0.552623  0  2.238663  0
O  O95  1  0.43052113  0.46174632  0.81365231  1  0  -0.634532  0  1.997799  0  0  -0.572472  0  2.233919  0  0  -0.600779  0  2.226083  0  -1.177848  0  -0.306765  -0.552588  0  2.238711  0
O  O96  1  0.18484913  0.81965906  0.79511969  1  0  -0.277639  0  2.408626  0  0  -0.192878  0  2.625366  0  0  -0.211678  0  2.626938  0  -1.096004  0  -0.169062  -0.179626  0  2.623957  0
O  O97  1  0.81514916  0.68033930  0.29511908  1  0  -0.277629  0  2.408632  0  0  -0.192848  0  2.625345  0  0  -0.211664  0  2.62693  0  -1.095976  0  -0.169032  -0.179595  0  2.623936  0
O  O98  1  0.81514756  0.18034018  0.20488153  1  0  -0.277691  0  2.408576  0  0  -0.192873  0  2.625287  0  0  -0.211711  0  2.626893  0  -1.096093  0  -0.169081  -0.179624  0  2.623878  0
O  O99  1  0.18485518  0.31966193  0.70488153  1  0  -0.277638  0  2.408635  0  0  -0.192828  0  2.625342  0  0  -0.211669  0  2.626948  0  -1.096002  0  -0.169042  -0.179576  0  2.623934  0
O  O100  1  0.37681485  0.31145486  0.04364257  1  0  -0.68609  0  2.003787  0  0  -0.615235  0  2.245904  0  0  -0.644871  0  2.233318  0  -1.185765  0  -0.329504  -0.594348  0  2.254264  0
O  O101  1  0.62318692  0.18854326  0.54364013  1  0  -0.686044  0  2.00385  0  0  -0.615183  0  2.245936  0  0  -0.644823  0  2.233358  0  -1.185764  0  -0.329466  -0.594293  0  2.254294  0
O  O102  1  0.62318519  0.68854637  0.95635804  1  0  -0.686116  0  2.003711  0  0  -0.615278  0  2.245815  0  0  -0.644921  0  2.233243  0  -1.18571  0  -0.329536  -0.594387  0  2.254176  0
O  O103  1  0.37681645  0.81145398  0.45635683  1  0  -0.686157  0  2.003783  0  0  -0.615305  0  2.245867  0  0  -0.644943  0  2.233289  0  -1.185788  0  -0.329525  -0.594417  0  2.254228  0
O  O104  1  0.05638332  0.29373571  0.03143388  1  0  -0.661013  0  2.028225  0  0  -0.598133  0  2.269051  0  0  -0.627056  0  2.259826  0  -1.183551  0  -0.320049  -0.577789  0  2.274937  0
O  O105  1  0.94362109  0.20626740  0.53143449  1  0  -0.661025  0  2.028271  0  0  -0.598128  0  2.269038  0  0  -0.627049  0  2.259808  0  -1.183459  0  -0.320078  -0.577797  0  2.274961  0
O  O106  1  0.94361432  0.70626153  0.96856734  1  0  -0.661013  0  2.028346  0  0  -0.598102  0  2.269091  0  0  -0.62702  0  2.259861  0  -1.183644  0  -0.320035  -0.577776  0  2.275023  0
O  O107  1  0.05638230  0.79373583  0.46856368  1  0  -0.661063  0  2.028164  0  0  -0.598158  0  2.268924  0  0  -0.62708  0  2.259696  0  -1.183541  0  -0.320072  -0.577817  0  2.274824  0
O  O108  1  0.07532157  0.97009519  0.62357739  1  0  -0.852514  0  1.856522  0  0  -0.789838  0  2.048133  0  0  -0.811909  0  2.013716  0  -1.252118  0  -0.605664  -0.774256  0  2.07236  0
O  O109  1  0.92467767  0.52990117  0.12357983  1  0  -0.852493  0  1.856503  0  0  -0.78981  0  2.048116  0  0  -0.811883  0  2.013708  0  -1.252151  0  -0.605641  -0.774229  0  2.072342  0
O  O110  1  0.92467631  0.02990305  0.37642200  1  0  -0.852496  0  1.856525  0  0  -0.789817  0  2.048136  0  0  -0.811888  0  2.013724  0  -1.252148  0  -0.60564  -0.774235  0  2.072362  0
O  O111  1  0.07532500  0.47009906  0.87642139  1  0  -0.852463  0  1.85656  0  0  -0.789778  0  2.04815  0  0  -0.811851  0  2.013738  0  -1.252118  0  -0.605622  -0.774196  0  2.072376  0
O  O112  1  0.83853822  0.15409170  0.73348785  1  0  -0.85449  0  1.893945  0  0  -0.791127  0  2.103908  0  0  -0.815249  0  2.068808  0  -1.268462  0  -0.592989  -0.773913  0  2.128195  0
O  O113  1  0.16146260  0.34590842  0.23348846  1  0  -0.854503  0  1.893878  0  0  -0.791151  0  2.103868  0  0  -0.815272  0  2.068772  0  -1.268435  0  -0.593018  -0.773929  0  2.128137  0
O  O114  1  0.16145990  0.84590754  0.26651154  1  0  -0.854465  0  1.893934  0  0  -0.791087  0  2.103892  0  0  -0.815209  0  2.068797  0  -1.268722  0  -0.59301  -0.773877  0  2.128188  0
O  O115  1  0.83854030  0.65409282  0.76651154  1  0  -0.854462  0  1.893968  0  0  -0.791102  0  2.103923  0  0  -0.815225  0  2.068834  0  -1.268705  0  -0.593026  -0.773882  0  2.128197  0
O  O116  1  0.73613752  0.89270463  0.50451605  1  0  -0.852767  0  1.905553  0  0  -0.777826  0  2.099585  0  0  -0.80256  0  2.063535  0  -1.292049  0  -0.567241  -0.760251  0  2.125321  0
O  O117  1  0.26386531  0.60729472  0.00451727  1  0  -0.852778  0  1.905533  0  0  -0.777855  0  2.099565  0  0  -0.80259  0  2.063516  0  -1.29206  0  -0.567212  -0.760277  0  2.125306  0
O  O118  1  0.26385990  0.10729760  0.49548212  1  0  -0.85281  0  1.905535  0  0  -0.77786  0  2.099554  0  0  -0.802595  0  2.063503  0  -1.292041  0  -0.567226  -0.760283  0  2.125293  0
O  O119  1  0.73613736  0.39270551  0.99548456  1  0  -0.852762  0  1.905618  0  0  -0.777816  0  2.099645  0  0  -0.802553  0  2.063594  0  -1.292072  0  -0.56723  -0.760241  0  2.125381  0
