# generated using pymatgen
data_CdH21C27(NO)5
_symmetry_space_group_name_H-M   'P 1'
_cell_length_a   10.98432318
_cell_length_b   20.84430403
_cell_length_c   20.84397365
_cell_angle_alpha   119.99918888
_cell_angle_beta   90.00020694
_cell_angle_gamma   89.99986289
_symmetry_Int_Tables_number   1
_chemical_formula_structural   CdH21C27(NO)5
_chemical_formula_sum   'Cd6 H126 C162 N30 O30'
_cell_volume   4133.09509839
_cell_formula_units_Z   6
loop_
 _symmetry_equiv_pos_site_id
 _symmetry_equiv_pos_as_xyz
  1  'x, y, z'
loop_
 _atom_site_type_symbol
 _atom_site_label
 _atom_site_symmetry_multiplicity
 _atom_site_fract_x
 _atom_site_fract_y
 _atom_site_fract_z
 _atom_site_occupancy
 _atom_site_pbe_bader_charge
 _atom_site_pbe_bader_spin_density
 _atom_site_pbe_cm5_charge
 _atom_site_pbe_ddec_charge
 _atom_site_pbe_ddec_spin_density
 _atom_site_pbe_ddec_sum_bond_order
 _atom_site_pbe_magmom
Cd  Cd0  1  0.94004483  0.97906555  0.54908106  1  1.227081  0  0.774535  0.844072  0  2.191318  0
Cd  Cd1  1  0.77343024  0.54908473  0.57001218  1  1.225773  0  0.774615  0.844132  0  2.191271  0
Cd  Cd2  1  0.60671709  0.57001610  0.02094023  1  1.225801  0  0.77459  0.844164  0  2.191292  0
Cd  Cd3  1  0.44004954  0.02093224  0.45091490  1  1.226985  0  0.774555  0.844046  0  2.19125  0
Cd  Cd4  1  0.27343468  0.45092391  0.42999095  1  1.225769  0  0.774551  0.844029  0  2.191253  0
Cd  Cd5  1  0.10671354  0.42998290  0.97906178  1  1.225943  0  0.774569  0.844108  0  2.19135  0
H  H6  1  0.84567216  0.09098252  0.22792512  1  0.092911  0  0.113534  0.12483  0  0.977734  0
H  H7  1  0.67903132  0.22792122  0.13695957  1  0.086548  0  0.113508  0.124812  0  0.977745  0
H  H8  1  0.51235753  0.13695651  0.90903224  1  0.078202  0  0.113502  0.124773  0  0.977738  0
H  H9  1  0.34567412  0.90901806  0.77207177  1  0.093016  0  0.113491  0.124806  0  0.977754  0
H  H10  1  0.17901632  0.77207915  0.86305171  1  0.086346  0  0.113552  0.124848  0  0.977645  0
H  H11  1  0.01236416  0.86304239  0.09096782  1  0.078315  0  0.11352  0.124783  0  0.977717  0
H  H12  1  0.05594592  0.06973069  0.26225134  1  0.128138  0  0.110533  0.126381  0  0.998492  0
H  H13  1  0.88931293  0.26224903  0.19252402  1  0.12412  0  0.110564  0.126362  0  0.998429  0
H  H14  1  0.72262441  0.19254189  0.93028533  1  0.132703  0  0.110536  0.126291  0  0.998298  0
H  H15  1  0.55595000  0.93026630  0.73774301  1  0.12813  0  0.110532  0.126388  0  0.998474  0
H  H16  1  0.38929771  0.73775215  0.80748576  1  0.124223  0  0.110517  0.126383  0  0.998424  0
H  H17  1  0.22263206  0.80745652  0.06971357  1  0.132471  0  0.110553  0.126291  0  0.998157  0
H  H18  1  0.07952448  0.03660663  0.36046646  1  0.097288  0  0.108157  0.112765  0  1.015791  0
H  H19  1  0.91290587  0.36048923  0.32385304  1  0.079158  0  0.108023  0.112604  0  1.015662  0
H  H20  1  0.74618053  0.32387947  0.96340194  1  0.084752  0  0.108168  0.112725  0  1.015803  0
H  H21  1  0.57952319  0.96339098  0.63952634  1  0.097189  0  0.108184  0.112721  0  1.015883  0
H  H22  1  0.41289202  0.63952263  0.67615472  1  0.079045  0  0.1081  0.112696  0  1.015757  0
H  H23  1  0.24618854  0.67611974  0.03660003  1  0.08471  0  0.108186  0.112716  0  1.01581  0
H  H24  1  0.62247832  0.97459665  0.19696588  1  0.117014  0  0.11838  0.095344  0  1.024296  0
H  H25  1  0.45588093  0.19697211  0.22238546  1  0.111967  0  0.118331  0.095277  0  1.024509  0
H  H26  1  0.28914348  0.22237953  0.02541557  1  0.115373  0  0.118361  0.095421  0  1.02411  0
H  H27  1  0.12248087  0.02540455  0.80303394  1  0.116945  0  0.118379  0.095371  0  1.024225  0
H  H28  1  0.95583851  0.80302485  0.77761136  1  0.11202  0  0.118316  0.095311  0  1.024149  0
H  H29  1  0.78915806  0.77762648  0.97458829  1  0.115354  0  0.118336  0.095326  0  1.024243  0
H  H30  1  0.40574023  0.98661064  0.17231276  1  0.109452  0  0.110724  0.145416  0  1.005316  0
H  H31  1  0.23914652  0.17229641  0.18570909  1  0.1446  0  0.110819  0.145507  0  1.005454  0
H  H32  1  0.07241374  0.18569574  0.01339299  1  0.142977  0  0.11075  0.145452  0  1.005301  0
H  H33  1  0.90574454  0.01338567  0.82769328  1  0.10984  0  0.110734  0.145425  0  1.005301  0
H  H34  1  0.73910607  0.82769316  0.81429485  1  0.144658  0  0.110766  0.145448  0  1.005413  0
H  H35  1  0.57242823  0.81431010  0.98660692  1  0.142968  0  0.110807  0.14552  0  1.005164  0
H  H36  1  0.41682298  0.21148618  0.36236093  1  0.1029  0  0.107753  0.13645  0  1.003687  0
H  H37  1  0.25016258  0.36233989  0.15087212  1  0.090528  0  0.107707  0.136423  0  1.003658  0
H  H38  1  0.08350044  0.15086759  0.78851455  1  0.093033  0  0.107758  0.136533  0  1.00365  0
H  H39  1  0.91682702  0.78851400  0.63764125  1  0.102939  0  0.107739  0.136444  0  1.003693  0
H  H40  1  0.75017057  0.63765192  0.84913630  1  0.090389  0  0.10774  0.136478  0  1.003772  0
H  H41  1  0.58351040  0.84914160  0.21148875  1  0.093132  0  0.10775  0.136476  0  1.003726  0
H  H42  1  0.63340721  0.18806536  0.37933091  1  0.096215  0  0.117869  0.092151  0  1.007386  0
H  H43  1  0.46674680  0.37933282  0.19126587  1  0.082677  0  0.117846  0.092198  0  1.007444  0
H  H44  1  0.30007636  0.19127302  0.81193910  1  0.083169  0  0.117862  0.092135  0  1.007469  0
H  H45  1  0.13340586  0.81193702  0.62066678  1  0.096256  0  0.117859  0.092171  0  1.007445  0
H  H46  1  0.96675186  0.62066734  0.80873639  1  0.08256  0  0.117829  0.092152  0  1.007496  0
H  H47  1  0.80008452  0.80873382  0.18806395  1  0.083126  0  0.117847  0.092057  0  1.007503  0
H  H48  1  0.65783084  0.90634732  0.51120397  1  0.182001  0  0.1161  0.129054  0  1.04496  0
H  H49  1  0.49120277  0.51120814  0.60483568  1  0.184825  0  0.116089  0.129151  0  1.045037  0
H  H50  1  0.32450415  0.60485178  0.09365618  1  0.196998  0  0.116075  0.129053  0  1.044932  0
H  H51  1  0.15783822  0.09365058  0.48879151  1  0.18165  0  0.11607  0.129057  0  1.044924  0
H  H52  1  0.99121470  0.48879465  0.39516206  1  0.184687  0  0.116122  0.12925  0  1.044963  0
H  H53  1  0.82450088  0.39514081  0.90634099  1  0.197316  0  0.116087  0.129033  0  1.045013  0
H  H54  1  0.60371575  0.76272778  0.47813504  1  0.121722  0  0.115034  0.114061  0  1.062068  0
H  H55  1  0.43703784  0.47814666  0.71538882  1  0.124766  0  0.115214  0.114234  0  1.061806  0
H  H56  1  0.27037361  0.71540680  0.23727071  1  0.129079  0  0.115069  0.11406  0  1.061971  0
H  H57  1  0.10372088  0.23726843  0.52185919  1  0.121777  0  0.115055  0.114075  0  1.062024  0
H  H58  1  0.93704614  0.52184949  0.28460494  1  0.124734  0  0.115222  0.114252  0  1.061873  0
H  H59  1  0.77036986  0.28458733  0.76272678  1  0.128969  0  0.115078  0.114179  0  1.061893  0
H  H60  1  0.98564643  0.79459374  0.49932611  1  0.155002  0  0.133776  0.10385  0  1.013452  0
H  H61  1  0.81898027  0.49933173  0.70474926  1  0.15667  0  0.133757  0.103737  0  1.013507  0
H  H62  1  0.65230875  0.70474601  0.20541350  1  0.155905  0  0.13379  0.103815  0  1.013487  0
H  H63  1  0.48565247  0.20540868  0.50067680  1  0.154888  0  0.133759  0.103782  0  1.013419  0
H  H64  1  0.31898994  0.50066639  0.29524622  1  0.157045  0  0.133791  0.103829  0  1.013378  0
H  H65  1  0.15230547  0.29525437  0.79458334  1  0.155936  0  0.13378  0.103791  0  1.013465  0
H  H66  1  0.76097835  0.66638065  0.49840803  1  0.102946  0  0.113626  0.102591  0  1.013106  0
H  H67  1  0.59425680  0.49842306  0.83202664  1  0.107394  0  0.113638  0.102577  0  1.013013  0
H  H68  1  0.42761777  0.83203333  0.33362208  1  0.119342  0  0.113555  0.102468  0  1.013242  0
H  H69  1  0.26097835  0.33361966  0.50159285  1  0.102979  0  0.113651  0.102628  0  1.013103  0
H  H70  1  0.09426560  0.50157426  0.16796647  1  0.107168  0  0.113623  0.102589  0  1.013009  0
H  H71  1  0.92761390  0.16796598  0.66637427  1  0.119241  0  0.113558  0.102436  0  1.013185  0
H  H72  1  0.90939156  0.66863247  0.46689420  1  0.066723  0  0.122838  0.115001  0  0.944512  0
H  H73  1  0.74268193  0.46691685  0.79828275  1  0.082874  0  0.122909  0.11516  0  0.944491  0
H  H74  1  0.57603572  0.79827931  0.33137181  1  0.065296  0  0.122863  0.114996  0  0.944507  0
H  H75  1  0.40938906  0.33136978  0.53310783  1  0.066729  0  0.12284  0.114998  0  0.944589  0
H  H76  1  0.24269081  0.53308273  0.20171404  1  0.082853  0  0.122877  0.115108  0  0.944407  0
H  H77  1  0.07603473  0.20171856  0.66862456  1  0.065334  0  0.122865  0.114972  0  0.944481  0
H  H78  1  0.68333582  0.55089647  0.40497016  1  0.064152  0  0.101752  0.103077  0  1.037694  0
H  H79  1  0.51664830  0.40497100  0.85407711  1  0.063932  0  0.10178  0.103068  0  1.037798  0
H  H80  1  0.35000022  0.85407577  0.44911733  1  0.063005  0  0.101787  0.103134  0  1.037619  0
H  H81  1  0.18334048  0.44910416  0.59503031  1  0.064224  0  0.101778  0.103124  0  1.03765  0
H  H82  1  0.01664196  0.59502742  0.14592247  1  0.064066  0  0.101785  0.103066  0  1.037755  0
H  H83  1  0.85000021  0.14592564  0.55087874  1  0.063238  0  0.101773  0.10318  0  1.037624  0
H  H84  1  0.62727658  0.46510427  0.27522358  1  0.081677  0  0.093566  0.088451  0  1.063746  0
H  H85  1  0.46060676  0.27522588  0.81012121  1  0.0594  0  0.093575  0.088437  0  1.063781  0
H  H86  1  0.29396439  0.81010992  0.53490555  1  0.06384  0  0.093541  0.088517  0  1.063602  0
H  H87  1  0.12727902  0.53489486  0.72477639  1  0.0818  0  0.093593  0.088458  0  1.063715  0
H  H88  1  0.96059984  0.72477208  0.18987940  1  0.059677  0  0.093594  0.08848  0  1.063729  0
H  H89  1  0.79396906  0.18988883  0.46508830  1  0.064559  0  0.093564  0.088597  0  1.063461  0
H  H90  1  0.78945898  0.61276836  0.21055888  1  0.084219  0  0.101498  0.111603  0  1.026025  0
H  H91  1  0.62279187  0.21058018  0.59780101  1  0.091982  0  0.101523  0.111697  0  1.025884  0
H  H92  1  0.45615825  0.59779731  0.38722802  1  0.095374  0  0.101478  0.111489  0  1.026035  0
H  H93  1  0.28945889  0.38722967  0.78944144  1  0.08423  0  0.10149  0.111567  0  1.026033  0
H  H94  1  0.12279094  0.78941620  0.40219787  1  0.091901  0  0.101514  0.111685  0  1.025903  0
H  H95  1  0.95615750  0.40220410  0.61277105  1  0.095327  0  0.101475  0.111478  0  1.026085  0
H  H96  1  0.84646958  0.69859332  0.34102016  1  0.080198  0  0.097949  0.098612  0  1.032122  0
H  H97  1  0.67978568  0.34104009  0.64243625  1  0.074042  0  0.097969  0.098668  0  1.031973  0
H  H98  1  0.51313815  0.64243846  0.30140159  1  0.082472  0  0.097988  0.098669  0  1.032084  0
H  H99  1  0.34646807  0.30140374  0.65897930  1  0.080282  0  0.097959  0.098631  0  1.03208  0
H  H100  1  0.17978959  0.65895718  0.35756086  1  0.0741  0  0.098001  0.098694  0  1.032  0
H  H101  1  0.01313302  0.35756183  0.69859708  1  0.082449  0  0.098003  0.098667  0  1.032092  0
H  H102  1  0.61948966  0.43403216  0.14637969  1  0.068916  0  0.114087  0.100034  0  0.968605  0
H  H103  1  0.45282836  0.14638518  0.71235376  1  0.032333  0  0.114095  0.100022  0  0.968686  0
H  H104  1  0.28618545  0.71233993  0.56597284  1  0.082504  0  0.113962  0.099905  0  0.968383  0
H  H105  1  0.11949466  0.56596802  0.85362020  1  0.068955  0  0.114063  0.100032  0  0.9686  0
H  H106  1  0.95282789  0.85361334  0.28764629  1  0.032367  0  0.114046  0.099912  0  0.968743  0
H  H107  1  0.78619765  0.28766165  0.43402105  1  0.080593  0  0.114029  0.099959  0  0.968489  0
H  H108  1  0.64672005  0.50419249  0.12372132  1  0.092201  0  0.117849  0.105631  0  1.001534  0
H  H109  1  0.48005508  0.12372911  0.61953500  1  0.134009  0  0.117833  0.105663  0  1.001431  0
H  H110  1  0.31342606  0.61952347  0.49580965  1  0.091254  0  0.117811  0.105687  0  1.001591  0
H  H111  1  0.14672188  0.49580987  0.87628026  1  0.092196  0  0.117868  0.10563  0  1.001566  0
H  H112  1  0.98005787  0.87626988  0.38046558  1  0.134019  0  0.117835  0.1056  0  1.001471  0
H  H113  1  0.81343286  0.38047755  0.50418485  1  0.09131  0  0.117803  0.105727  0  1.001582  0
H  H114  1  0.82095060  0.36196986  0.15384758  1  0.135167  0  0.11783  0.119092  0  1.043574  0
H  H115  1  0.65428209  0.15384482  0.79188185  1  0.095483  0  0.117773  0.119039  0  1.043564  0
H  H116  1  0.48762897  0.79187077  0.63804824  1  0.137943  0  0.117816  0.119085  0  1.043526  0
H  H117  1  0.32095158  0.63803172  0.84615691  1  0.135224  0  0.117793  0.119121  0  1.043635  0
H  H118  1  0.15428049  0.84615128  0.20811736  1  0.095569  0  0.117781  0.119001  0  1.043579  0
H  H119  1  0.98764559  0.20813276  0.36195356  1  0.138116  0  0.117797  0.119112  0  1.043543  0
H  H120  1  0.03799092  0.33537230  0.07664615  1  0.145847  0  0.119992  0.121609  0  1.02277  0
H  H121  1  0.87132140  0.07664641  0.74127860  1  0.15934  0  0.119958  0.121562  0  1.022778  0
H  H122  1  0.70468033  0.74126898  0.66463247  1  0.154002  0  0.120035  0.121809  0  1.022852  0
H  H123  1  0.53799292  0.66462879  0.92335559  1  0.145837  0  0.119972  0.121601  0  1.022785  0
H  H124  1  0.37131616  0.92335711  0.25872019  1  0.159337  0  0.119924  0.121555  0  1.022735  0
H  H125  1  0.20469592  0.25873512  0.33537319  1  0.153905  0  0.120037  0.121717  0  1.02291  0
H  H126  1  0.84523094  0.50454263  0.06383972  1  0.166709  0  0.134929  0.115093  0  1.035963  0
H  H127  1  0.67856155  0.06385063  0.55930266  1  0.170702  0  0.134975  0.115121  0  1.036  0
H  H128  1  0.51194366  0.55930259  0.49544745  1  0.209627  0  0.134897  0.114897  0  1.036071  0
H  H129  1  0.34523500  0.49545601  0.93615911  1  0.166739  0  0.13493  0.115107  0  1.035945  0
H  H130  1  0.17856022  0.93615007  0.44069678  1  0.170713  0  0.1349  0.115022  0  1.035906  0
H  H131  1  0.01195048  0.44070164  0.50455016  1  0.209665  0  0.134926  0.114911  0  1.03613  0
C  C132  1  0.90011336  0.01349322  0.43792658  1  1.53461  0  0.186411  0.535227  0  4.26174  0
C  C133  1  0.73351128  0.43795100  0.42442116  1  1.531811  0  0.186187  0.534666  0  4.262552  0
C  C134  1  0.56676104  0.42443981  0.98651092  1  1.539507  0  0.186588  0.535404  0  4.261785  0
C  C135  1  0.40011172  0.98650569  0.56206821  1  1.534937  0  0.186347  0.535024  0  4.261957  0
C  C136  1  0.23349710  0.56206324  0.57557919  1  1.5323  0  0.186581  0.535313  0  4.261945  0
C  C137  1  0.06676753  0.57556118  0.01349576  1  1.538866  0  0.186456  0.535201  0  4.261994  0
C  C138  1  0.65672357  0.04005944  0.39761540  1  1.62698  0  0.190166  0.581112  0  4.262689  0
C  C139  1  0.49010516  0.39761932  0.35756949  1  1.611203  0  0.19011  0.58091  0  4.26278  0
C  C140  1  0.32337515  0.35755946  0.95995560  1  1.617716  0  0.190171  0.581116  0  4.262343  0
C  C141  1  0.15672232  0.95993695  0.60237968  1  1.626971  0  0.190169  0.581272  0  4.262515  0
C  C142  1  0.99009278  0.60239213  0.64243303  1  1.610672  0  0.190269  0.581008  0  4.262766  0
C  C143  1  0.82338305  0.64244723  0.04006010  1  1.616891  0  0.190138  0.581032  0  4.26285  0
C  C144  1  0.88716102  0.03565569  0.37984334  1  -0.030017  0  -0.012312  -0.044756  0  3.944457  0
C  C145  1  0.72054539  0.37985806  0.34418302  1  -0.006139  0  -0.012263  -0.044768  0  3.945195  0
C  C146  1  0.55381907  0.34419784  0.96435504  1  -0.03232  0  -0.01233  -0.044766  0  3.944454  0
C  C147  1  0.38715897  0.96434283  0.62014991  1  -0.030373  0  -0.012291  -0.04456  0  3.94434  0
C  C148  1  0.22053422  0.62015226  0.65581836  1  -0.006713  0  -0.012293  -0.044812  0  3.945074  0
C  C149  1  0.05382443  0.65580062  0.03564743  1  -0.032239  0  -0.012283  -0.044846  0  3.944666  0
C  C150  1  0.76956242  0.04677394  0.36025702  1  -0.030398  0  0.00148  -0.087273  0  3.907176  0
C  C151  1  0.60294227  0.36027223  0.31348746  1  -0.038034  0  0.001488  -0.087363  0  3.907167  0
C  C152  1  0.43622059  0.31348881  0.95323243  1  -0.021311  0  0.001465  -0.087356  0  3.907184  0
C  C153  1  0.26956146  0.95322179  0.63973598  1  -0.029729  0  0.001516  -0.087422  0  3.907238  0
C  C154  1  0.10293122  0.63973449  0.68651450  1  -0.037188  0  0.001546  -0.087135  0  3.907208  0
C  C155  1  0.93622743  0.68651012  0.04676910  1  -0.021202  0  0.00154  -0.087199  0  3.907184  0
C  C156  1  0.75692509  0.06730183  0.30597977  1  0.322463  0  0.084652  0.107258  0  4.011877  0
C  C157  1  0.59029411  0.30598728  0.23868605  1  0.319076  0  0.084804  0.107793  0  4.011695  0
C  C158  1  0.42358359  0.23868521  0.93270862  1  0.310416  0  0.084591  0.107193  0  4.012112  0
C  C159  1  0.25692186  0.93270002  0.69401765  1  0.321785  0  0.084662  0.10747  0  4.011976  0
C  C160  1  0.09028151  0.69401881  0.76131747  1  0.319327  0  0.084677  0.107367  0  4.012048  0
C  C161  1  0.92359478  0.76131386  0.06729468  1  0.311013  0  0.084634  0.107303  0  4.012064  0
C  C162  1  0.85849425  0.07497690  0.26995977  1  -0.098818  0  -0.084572  -0.157736  0  3.992499  0
C  C163  1  0.69186152  0.26996317  0.19499467  1  -0.077223  0  -0.084806  -0.158005  0  3.992645  0
C  C164  1  0.52515751  0.19499758  0.92503727  1  -0.079043  0  -0.084445  -0.157495  0  3.992455  0
C  C165  1  0.35849039  0.92502367  0.73003715  1  -0.098807  0  -0.084515  -0.157788  0  3.992608  0
C  C166  1  0.19184632  0.73003927  0.80501263  1  -0.077563  0  -0.084783  -0.157878  0  3.99269  0
C  C167  1  0.02516794  0.80500152  0.07496356  1  -0.079103  0  -0.084592  -0.157681  0  3.992466  0
C  C168  1  0.97519338  0.06313947  0.28904960  1  0.012253  0  -0.086624  -0.078557  0  3.990772  0
C  C169  1  0.80856609  0.28905301  0.22591661  1  0.001309  0  -0.086427  -0.078379  0  3.99086  0
C  C170  1  0.64185744  0.22592576  0.93687816  1  0.010569  0  -0.086539  -0.078409  0  3.990791  0
C  C171  1  0.47519207  0.93685838  0.71094539  1  0.012251  0  -0.086615  -0.078587  0  3.990808  0
C  C172  1  0.30854803  0.71095055  0.77409260  1  0.001134  0  -0.086528  -0.078587  0  3.991045  0
C  C173  1  0.14186519  0.77407206  0.06312218  1  0.010772  0  -0.086495  -0.078307  0  3.990457  0
C  C174  1  0.98882941  0.04443918  0.34435564  1  -0.033182  0  -0.077664  -0.087091  0  3.949978  0
C  C175  1  0.82220748  0.34437358  0.29991169  1  -0.021169  0  -0.077569  -0.086821  0  3.949881  0
C  C176  1  0.65549040  0.29992821  0.95556931  1  -0.017311  0  -0.077745  -0.087089  0  3.950039  0
C  C177  1  0.48882764  0.95555998  0.65563903  1  -0.032864  0  -0.077692  -0.087039  0  3.94994  0
C  C178  1  0.32219554  0.65563695  0.70009344  1  -0.020553  0  -0.077572  -0.08687  0  3.950023  0
C  C179  1  0.15549836  0.70006966  0.04443389  1  -0.017674  0  -0.077772  -0.087068  0  3.949985  0
C  C180  1  0.57141691  0.02534357  0.23076248  1  0.337174  0  0.035463  0.043654  0  3.941144  0
C  C181  1  0.40480436  0.23076103  0.20542900  1  0.349315  0  0.035569  0.04407  0  3.941182  0
C  C182  1  0.23808126  0.20542402  0.97466771  1  0.332463  0  0.035552  0.043655  0  3.940752  0
C  C183  1  0.07142038  0.97465786  0.76923801  1  0.33717  0  0.035466  0.043678  0  3.941094  0
C  C184  1  0.90477497  0.76923324  0.79456947  1  0.348793  0  0.035561  0.044015  0  3.940891  0
C  C185  1  0.73809747  0.79457946  0.02533574  1  0.332405  0  0.035466  0.043743  0  3.940932  0
C  C186  1  0.45171808  0.03315034  0.21847546  1  -0.014058  0  -0.106512  -0.267418  0  3.925609  0
C  C187  1  0.28510737  0.21846105  0.18533158  1  -0.045573  0  -0.106618  -0.267543  0  3.925437  0
C  C188  1  0.11838796  0.18532097  0.96685258  1  -0.019722  0  -0.106567  -0.26749  0  3.925686  0
C  C189  1  0.95172411  0.96684864  0.78152893  1  -0.014625  0  -0.106543  -0.267496  0  3.925615  0
C  C190  1  0.78507897  0.78152748  0.81466865  1  -0.046349  0  -0.106721  -0.267774  0  3.925722  0
C  C191  1  0.61840414  0.81468114  0.03314537  1  -0.019443  0  -0.10656  -0.267553  0  3.925287  0
C  C192  1  0.38426742  0.10042531  0.26670266  1  0.903247  0  0.10495  0.402875  0  4.168082  0
C  C193  1  0.21764469  0.26667705  0.16627339  1  0.885495  0  0.105127  0.402809  0  4.167807  0
C  C194  1  0.05094257  0.16626797  0.89957364  1  0.884182  0  0.105047  0.402942  0  4.168204  0
C  C195  1  0.88427252  0.89957391  0.73330237  1  0.903006  0  0.104992  0.402917  0  4.168092  0
C  C196  1  0.71762847  0.73331140  0.83373547  1  0.886467  0  0.10519  0.403076  0  4.1677  0
C  C197  1  0.55095274  0.83373465  0.10042467  1  0.884563  0  0.105048  0.402888  0  4.167813  0
C  C198  1  0.45820468  0.15794269  0.32530098  1  -0.04484  0  -0.11077  -0.272844  0  3.960561  0
C  C199  1  0.29156263  0.32528465  0.16735868  1  -0.009092  0  -0.110602  -0.272486  0  3.960712  0
C  C200  1  0.12488229  0.16735275  0.84205746  1  -0.034054  0  -0.11076  -0.272946  0  3.9607  0
C  C201  1  0.95820782  0.84205700  0.67470080  1  -0.044461  0  -0.110795  -0.272879  0  3.960602  0
C  C202  1  0.79155668  0.67470633  0.83264678  1  -0.00944  0  -0.110653  -0.272689  0  3.960753  0
C  C203  1  0.62488922  0.83265072  0.15794296  1  -0.034206  0  -0.110647  -0.272701  0  3.96052  0
C  C204  1  0.57751113  0.14652243  0.33473453  1  0.326224  0  0.029723  0.02546  0  3.982064  0
C  C205  1  0.41086634  0.33473416  0.18821973  1  0.314117  0  0.029628  0.025247  0  3.9829  0
C  C206  1  0.24418230  0.18821815  0.85348460  1  0.34273  0  0.029718  0.025459  0  3.982494  0
C  C207  1  0.07751080  0.85348017  0.66526382  1  0.325951  0  0.02976  0.025435  0  3.982244  0
C  C208  1  0.91085848  0.66526148  0.81178123  1  0.314959  0  0.029662  0.025324  0  3.982509  0
C  C209  1  0.74419016  0.81178712  0.14651898  1  0.342513  0  0.029691  0.025507  0  3.982273  0
C  C210  1  0.71842000  0.86202377  0.50403229  1  0.408385  0  -0.004675  -0.028533  0  3.968297  0
C  C211  1  0.55177560  0.50403385  0.64199095  1  0.405688  0  -0.004642  -0.028551  0  3.967925  0
C  C212  1  0.38508510  0.64200973  0.13798024  1  0.404414  0  -0.004637  -0.028492  0  3.968317  0
C  C213  1  0.21842540  0.13797466  0.49596274  1  0.409156  0  -0.004567  -0.028367  0  3.968125  0
C  C214  1  0.05178481  0.49596561  0.35800476  1  0.40638  0  -0.00475  -0.028784  0  3.967803  0
C  C215  1  0.88507988  0.35798413  0.86202054  1  0.404276  0  -0.004594  -0.028435  0  3.968469  0
C  C216  1  0.68979476  0.79138339  0.48777533  1  0.255418  0  -0.002522  -0.103568  0  3.913547  0
C  C217  1  0.52313683  0.48778574  0.69638376  1  0.257202  0  -0.002677  -0.103839  0  3.913349  0
C  C218  1  0.35645805  0.69639745  0.20861823  1  0.234253  0  -0.002515  -0.103459  0  3.913354  0
C  C219  1  0.18980086  0.20861498  0.51222069  1  0.255192  0  -0.002609  -0.103683  0  3.91365  0
C  C220  1  0.02314377  0.51221071  0.30361109  1  0.256553  0  -0.002723  -0.103755  0  3.913525  0
C  C221  1  0.85645169  0.30360222  0.79138055  1  0.234052  0  -0.002639  -0.103742  0  3.913584  0
C  C222  1  0.88979252  0.80626205  0.49822921  1  0.962046  0  0.136984  0.078693  0  3.960064  0
C  C223  1  0.72313454  0.49823579  0.69196879  1  0.956113  0  0.137112  0.078975  0  3.960061  0
C  C224  1  0.55645668  0.69197588  0.19374056  1  0.963256  0  0.136871  0.07861  0  3.960114  0
C  C225  1  0.38979862  0.19373829  0.50177086  1  0.964504  0  0.137024  0.078787  0  3.960028  0
C  C226  1  0.22314247  0.50176188  0.30802605  1  0.955707  0  0.137128  0.078908  0  3.959987  0
C  C227  1  0.05645160  0.30802350  0.80625619  1  0.962815  0  0.136963  0.078693  0  3.960108  0
C  C228  1  0.81282299  0.67859300  0.46076843  1  0.298597  0  -0.039985  -0.105007  0  3.884471  0
C  C229  1  0.64612246  0.46077772  0.78218355  1  0.305562  0  -0.040086  -0.105094  0  3.884299  0
C  C230  1  0.47947356  0.78218641  0.32141170  1  0.282816  0  -0.039992  -0.104927  0  3.884348  0
C  C231  1  0.31282421  0.32140661  0.53923130  1  0.298595  0  -0.04002  -0.105031  0  3.884594  0
C  C232  1  0.14612869  0.53922047  0.21781164  1  0.305967  0  -0.040046  -0.105071  0  3.884199  0
C  C233  1  0.97946955  0.21781452  0.67858694  1  0.282759  0  -0.039979  -0.104756  0  3.884266  0
C  C234  1  0.77163595  0.62947532  0.38171398  1  -0.011945  0  -0.01072  0.083572  0  3.974042  0
C  C235  1  0.60494203  0.38172139  0.75224058  1  0.001271  0  -0.010731  0.083467  0  3.974288  0
C  C236  1  0.43829966  0.75224698  0.37053066  1  -0.071414  0  -0.010693  0.083621  0  3.973958  0
C  C237  1  0.27163567  0.37052280  0.61828528  1  -0.011872  0  -0.010716  0.083577  0  3.974054  0
C  C238  1  0.10494537  0.61827666  0.24775661  1  0.001167  0  -0.010776  0.083321  0  3.974375  0
C  C239  1  0.93829518  0.24775341  0.62946846  1  -0.071143  0  -0.01075  0.083535  0  3.973883  0
C  C240  1  0.70802173  0.56436200  0.36250220  1  0.040981  0  -0.087361  -0.115034  0  3.960473  0
C  C241  1  0.54133430  0.36250941  0.79814466  1  -0.036664  0  -0.087402  -0.115026  0  3.960701  0
C  C242  1  0.37468730  0.79814185  0.43564719  1  0.019736  0  -0.08734  -0.115089  0  3.960556  0
C  C243  1  0.20802038  0.43563758  0.63749839  1  0.040803  0  -0.087361  -0.115092  0  3.960442  0
C  C244  1  0.04133543  0.63748956  0.20185441  1  -0.036975  0  -0.0874  -0.11497  0  3.960704  0
C  C245  1  0.87468895  0.20185700  0.56434859  1  0.019422  0  -0.08727  -0.114979  0  3.960381  0
C  C246  1  0.67593586  0.51596213  0.28895136  1  -0.131811  0  -0.092832  -0.127591  0  3.984481  0
C  C247  1  0.50926140  0.28895884  0.77299510  1  -0.074824  0  -0.092877  -0.127543  0  3.984658  0
C  C248  1  0.34261454  0.77298353  0.48404359  1  -0.032949  0  -0.092874  -0.127744  0  3.984756  0
C  C249  1  0.17593661  0.48403732  0.71105125  1  -0.13175  0  -0.092863  -0.127548  0  3.984441  0
C  C250  1  0.00925690  0.71103780  0.22700434  1  -0.074885  0  -0.092977  -0.127686  0  3.984754  0
C  C251  1  0.84261848  0.22701417  0.51595042  1  -0.033526  0  -0.092986  -0.127996  0  3.984451  0
C  C252  1  0.70605857  0.53250329  0.23377136  1  -0.044421  0  -0.01912  0.072185  0  4.002449  0
C  C253  1  0.53938512  0.23378394  0.70127522  1  0.022762  0  -0.019085  0.07215  0  4.002891  0
C  C254  1  0.37275124  0.70126653  0.46749891  1  -0.081147  0  -0.01914  0.072218  0  4.002694  0
C  C255  1  0.20605886  0.46749443  0.76623014  1  -0.044438  0  -0.01916  0.072141  0  4.002518  0
C  C256  1  0.03938814  0.76621284  0.29872221  1  0.02355  0  -0.019006  0.072182  0  4.002838  0
C  C257  1  0.87275132  0.29873384  0.53249727  1  -0.081186  0  -0.019076  0.072261  0  4.002247  0
C  C258  1  0.76581182  0.59931864  0.25335454  1  -0.063852  0  -0.095716  -0.145718  0  3.997818  0
C  C259  1  0.59913643  0.25336904  0.65404521  1  -0.143617  0  -0.095703  -0.145748  0  3.997898  0
C  C260  1  0.43249444  0.65403973  0.40068039  1  -0.090638  0  -0.09572  -0.145503  0  3.997913  0
C  C261  1  0.26580955  0.40067900  0.74664423  1  -0.063971  0  -0.09566  -0.14558  0  3.99796  0
C  C262  1  0.09913623  0.74662880  0.34595506  1  -0.144189  0  -0.095727  -0.145777  0  3.997828  0
C  C263  1  0.93249476  0.34596081  0.59931665  1  -0.090776  0  -0.095727  -0.145465  0  3.997739  0
C  C264  1  0.79831192  0.64736518  0.32670605  1  -0.069727  0  -0.093712  -0.133605  0  3.996481  0
C  C265  1  0.63162903  0.32671802  0.67934551  1  -0.027201  0  -0.093679  -0.133576  0  3.996561  0
C  C266  1  0.46498234  0.67934828  0.35263365  1  -0.004693  0  -0.093699  -0.133716  0  3.996595  0
C  C267  1  0.29830845  0.35263265  0.67329353  1  -0.069828  0  -0.093722  -0.133674  0  3.996549  0
C  C268  1  0.13163262  0.67327919  0.32065255  1  -0.027257  0  -0.093703  -0.133526  0  3.996641  0
C  C269  1  0.96498220  0.32065073  0.64736304  1  -0.004585  0  -0.093718  -0.133714  0  3.996478  0
C  C270  1  0.68383038  0.47733849  0.15324170  1  0.306441  0  -0.043649  -0.10281  0  3.888125  0
C  C271  1  0.51716446  0.15325307  0.67590988  1  0.266575  0  -0.043651  -0.102833  0  3.888259  0
C  C272  1  0.35052799  0.67589764  0.52266317  1  0.277497  0  -0.043561  -0.103017  0  3.887841  0
C  C273  1  0.18383279  0.52266186  0.84675906  1  0.306446  0  -0.043685  -0.102914  0  3.888311  0
C  C274  1  0.01716365  0.84674376  0.32409033  1  0.266544  0  -0.043583  -0.10254  0  3.888147  0
C  C275  1  0.85053760  0.32410213  0.47733071  1  0.279071  0  -0.043549  -0.103072  0  3.888045  0
C  C276  1  0.85858681  0.38657451  0.12312437  1  0.294675  0  -0.000406  -0.108012  0  3.917152  0
C  C277  1  0.69192015  0.12312713  0.73655302  1  0.322952  0  -0.000357  -0.108041  0  3.917066  0
C  C278  1  0.52527812  0.73654235  0.61343049  1  0.285005  0  -0.000154  -0.107769  0  3.917594  0
C  C279  1  0.35858810  0.61342473  0.87687675  1  0.294586  0  -0.000385  -0.108048  0  3.917159  0
C  C280  1  0.19191788  0.87686999  0.26344618  1  0.323068  0  -0.000367  -0.107975  0  3.917037  0
C  C281  1  0.02529495  0.26345841  0.38656868  1  0.284853  0  -3.4e-05  -0.107793  0  3.917706  0
C  C282  1  0.96607535  0.37451894  0.08513449  1  0.378003  0  0.001274  -0.022207  0  3.978259  0
C  C283  1  0.79940879  0.08513436  0.71061998  1  0.376677  0  0.001391  -0.021978  0  3.977728  0
C  C284  1  0.63277233  0.71061545  0.62549055  1  0.399572  0  0.001116  -0.022582  0  3.978218  0
C  C285  1  0.46607594  0.62548204  0.91486695  1  0.378082  0  0.001309  -0.022154  0  3.978277  0
C  C286  1  0.29940471  0.91486382  0.28937829  1  0.376394  0  0.001428  -0.021915  0  3.977712  0
C  C287  1  0.13278623  0.28938863  0.37451216  1  0.399323  0  0.001115  -0.022372  0  3.97841  0
C  C288  1  0.86941282  0.46206451  0.07716078  1  1.003471  0  0.140168  0.090306  0  3.920377  0
C  C289  1  0.70274709  0.07716715  0.61510085  1  0.986732  0  0.140115  0.090278  0  3.920398  0
C  C290  1  0.53612906  0.61509794  0.53793253  1  0.946192  0  0.140139  0.090505  0  3.920159  0
C  C291  1  0.36941659  0.53793440  0.92283782  1  1.003454  0  0.140178  0.090399  0  3.920358  0
C  C292  1  0.20274817  0.92283175  0.38489849  1  0.986764  0  0.140152  0.09042  0  3.920289  0
C  C293  1  0.03613857  0.38490565  0.46206672  1  0.94627  0  0.140121  0.090456  0  3.919935  0
N  N294  1  0.84351191  0.87048000  0.51067946  1  -1.207261  0  -0.366388  -0.296533  0  3.568652  0
N  N295  1  0.67687295  0.51068088  0.64019506  1  -1.203895  0  -0.366461  -0.29664  0  3.568617  0
N  N296  1  0.51017790  0.64020498  0.12952514  1  -1.207613  0  -0.366412  -0.296636  0  3.568699  0
N  N297  1  0.34351640  0.12952064  0.48932025  1  -1.207313  0  -0.366467  -0.296646  0  3.568736  0
N  N298  1  0.17688220  0.48931922  0.35980210  1  -1.203749  0  -0.366362  -0.29655  0  3.56843  0
N  N299  1  0.01017393  0.35979208  0.87047196  1  -1.207311  0  -0.366408  -0.296484  0  3.568853  0
N  N300  1  0.79914157  0.75679591  0.48417470  1  -1.228012  0  -0.243984  0.042728  0  3.794367  0
N  N301  1  0.63246548  0.48418482  0.72737971  1  -1.233276  0  -0.244098  0.042557  0  3.7943  0
N  N302  1  0.46579939  0.72739086  0.24320516  1  -1.227023  0  -0.24387  0.042831  0  3.793981  0
N  N303  1  0.29914572  0.24320358  0.51582323  1  -1.230538  0  -0.243928  0.042749  0  3.794425  0
N  N304  1  0.13247401  0.51581118  0.27261381  1  -1.233435  0  -0.24407  0.042566  0  3.794538  0
N  N305  1  0.96579110  0.27260649  0.75679319  1  -1.226923  0  -0.243897  0.042665  0  3.794133  0
N  N306  1  0.79822609  0.44153361  0.11687760  1  -1.228447  0  -0.24432  0.039665  0  3.776912  0
N  N307  1  0.63156394  0.11688623  0.67534945  1  -1.223662  0  -0.244327  0.03971  0  3.777015  0
N  N308  1  0.46492752  0.67534247  0.55846875  1  -1.247403  0  -0.244264  0.039941  0  3.776994  0
N  N309  1  0.29822859  0.55846525  0.88312191  1  -1.228454  0  -0.244285  0.039754  0  3.776857  0
N  N310  1  0.13156388  0.88311035  0.32465020  1  -1.223658  0  -0.244299  0.039611  0  3.777115  0
N  N311  1  0.96493961  0.32465917  0.44152723  1  -1.24655  0  -0.244453  0.039833  0  3.776845  0
N  N312  1  0.97146555  0.42217611  0.05692596  1  -1.240931  0  -0.368246  -0.308303  0  3.553943  0
N  N313  1  0.80480447  0.05693444  0.63475473  1  -1.229618  0  -0.368297  -0.308448  0  3.553705  0
N  N314  1  0.63817822  0.63475224  0.57781884  1  -1.228635  0  -0.368289  -0.308417  0  3.55361  0
N  N315  1  0.47146928  0.57782228  0.94307233  1  -1.240981  0  -0.368275  -0.308456  0  3.554003  0
N  N316  1  0.30480168  0.94306580  0.36524341  1  -1.229535  0  -0.368288  -0.308514  0  3.553769  0
N  N317  1  0.13819028  0.36525027  0.42218065  1  -1.228899  0  -0.368232  -0.308413  0  3.553442  0
N  N318  1  0.63568130  0.08094934  0.28844576  1  -1.249868  0  -0.235149  -0.006966  0  3.785518  0
N  N319  1  0.46905035  0.28845039  0.20750835  1  -1.2552  0  -0.235297  -0.007677  0  3.786604  0
N  N320  1  0.30234720  0.20749722  0.91905789  1  -1.256328  0  -0.235225  -0.007035  0  3.785647  0
N  N321  1  0.13568281  0.91905069  0.71155237  1  -1.250095  0  -0.23521  -0.007057  0  3.78568  0
N  N322  1  0.96903576  0.71154866  0.79249503  1  -1.255394  0  -0.235153  -0.007353  0  3.785992  0
N  N323  1  0.80236107  0.79250045  0.08094376  1  -1.256834  0  -0.235236  -0.007202  0  3.785834  0
O  O324  1  0.00236583  0.02472278  0.47201450  1  -1.156168  0  -0.326878  -0.554272  0  2.23989  0
O  O325  1  0.83576702  0.47202515  0.44728499  1  -1.154286  0  -0.326639  -0.554049  0  2.240858  0
O  O326  1  0.66901213  0.44729441  0.97527431  1  -1.159052  0  -0.326921  -0.554336  0  2.239759  0
O  O327  1  0.50236463  0.97527463  0.52798128  1  -1.156151  0  -0.326836  -0.554207  0  2.239951  0
O  O328  1  0.33575283  0.52798752  0.55271899  1  -1.154327  0  -0.326905  -0.55438  0  2.240764  0
O  O329  1  0.16901971  0.55270435  0.02472705  1  -1.158602  0  -0.326879  -0.554251  0  2.239967  0
O  O330  1  0.80989172  0.98417896  0.45109205  1  -1.152386  0  -0.316944  -0.529009  0  2.186743  0
O  O331  1  0.64329191  0.45114111  0.46690878  1  -1.153269  0  -0.317056  -0.528783  0  2.186483  0
O  O332  1  0.47654360  0.46692075  0.01583337  1  -1.16  0  -0.317137  -0.529187  0  2.186915  0
O  O333  1  0.30988802  0.01582040  0.54890410  1  -1.152514  0  -0.316954  -0.528931  0  2.186809  0
O  O334  1  0.14327932  0.54887978  0.53309249  1  -1.153462  0  -0.317083  -0.528961  0  2.186408  0
O  O335  1  0.97655208  0.53307953  0.98417070  1  -1.159988  0  -0.317067  -0.529084  0  2.186863  0
O  O336  1  0.63015034  0.09355414  0.46153754  1  -1.183693  0  -0.332828  -0.571346  0  2.162825  0
O  O337  1  0.46348803  0.46153041  0.36798063  1  -1.16971  0  -0.332844  -0.571324  0  2.162992  0
O  O338  1  0.29679706  0.36800012  0.90646828  1  -1.173897  0  -0.332995  -0.57156  0  2.162871  0
O  O339  1  0.13014617  0.90644349  0.53845817  1  -1.183953  0  -0.332819  -0.571396  0  2.162827  0
O  O340  1  0.96347678  0.53848254  0.63202611  1  -1.169578  0  -0.333151  -0.571619  0  2.162903  0
O  O341  1  0.79681266  0.63201097  0.09355066  1  -1.173621  0  -0.332812  -0.571274  0  2.162881  0
O  O342  1  0.59003535  0.98333317  0.36042964  1  -1.152166  0  -0.331672  -0.537719  0  2.169429  0
O  O343  1  0.42344395  0.36043474  0.37712525  1  -1.150818  0  -0.33162  -0.537504  0  2.169108  0
O  O344  1  0.25669139  0.37709419  0.01668288  1  -1.153174  0  -0.331499  -0.537557  0  2.169225  0
O  O345  1  0.09003045  0.01666125  0.63956443  1  -1.15205  0  -0.331725  -0.53788  0  2.169327  0
O  O346  1  0.92343308  0.63957749  0.62287737  1  -1.150959  0  -0.331498  -0.537409  0  2.169277  0
O  O347  1  0.75669490  0.62290482  0.98333275  1  -1.152816  0  -0.33167  -0.53776  0  2.16962  0
O  O348  1  0.27300153  0.10905613  0.25863280  1  -1.155491  0  -0.338043  -0.51601  0  2.047362  0
O  O349  1  0.10637971  0.25859358  0.14956822  1  -1.145192  0  -0.338208  -0.515995  0  2.04728  0
O  O350  1  0.93968008  0.14955968  0.89094250  1  -1.15586  0  -0.33811  -0.515988  0  2.047379  0
O  O351  1  0.77300945  0.89094097  0.74137708  1  -1.154957  0  -0.338025  -0.515955  0  2.047422  0
O  O352  1  0.60636630  0.74139316  0.85044701  1  -1.145089  0  -0.338176  -0.516022  0  2.04713  0
O  O353  1  0.43969144  0.85044485  0.10905633  1  -1.155753  0  -0.338169  -0.516014  0  2.047198  0
