# generated using pymatgen
data_CdH8C10(IN)2
_symmetry_space_group_name_H-M   'P 1'
_cell_length_a   7.64234604
_cell_length_b   9.68318818
_cell_length_c   9.68314850
_cell_angle_alpha   62.57491905
_cell_angle_beta   77.24729790
_cell_angle_gamma   77.24732032
_symmetry_Int_Tables_number   1
_chemical_formula_structural   CdH8C10(IN)2
_chemical_formula_sum   'Cd2 H16 C20 I4 N4'
_cell_volume   614.45624609
_cell_formula_units_Z   2
loop_
 _symmetry_equiv_pos_site_id
 _symmetry_equiv_pos_as_xyz
  1  'x, y, z'
loop_
 _atom_site_type_symbol
 _atom_site_label
 _atom_site_symmetry_multiplicity
 _atom_site_fract_x
 _atom_site_fract_y
 _atom_site_fract_z
 _atom_site_occupancy
 _atom_site_pbe_bader_spin_density
 _atom_site_pbe_cm5_charge
 _atom_site_pbe_ddec_charge
 _atom_site_pbe_ddec_spin_density
 _atom_site_pbe_ddec_sum_bond_order
 _atom_site_pbe_magmom
Cd  Cd0  1  0.25000118  0.91709604  0.08290470  1  0  0.48376  0.556063  0  2.572379  0
Cd  Cd1  1  0.74999941  0.08290367  0.91709643  1  0  0.483762  0.556066  0  2.572377  0
H  H2  1  0.33451556  0.33308638  0.55142057  1  0  0.096912  0.111341  0  1.038373  0
H  H3  1  0.16548178  0.44857732  0.66691483  1  0  0.096929  0.111353  0  1.038364  0
H  H4  1  0.66548367  0.66691332  0.44857978  1  0  0.096931  0.111373  0  1.038347  0
H  H5  1  0.83451649  0.55142001  0.33308577  1  0  0.09693  0.111353  0  1.03837  0
H  H6  1  0.56992428  0.21132504  0.40728850  1  0  0.09571  0.103205  0  1.006191  0
H  H7  1  0.93007253  0.59270881  0.78867773  1  0  0.095701  0.103188  0  1.00618  0
H  H8  1  0.43007475  0.78867582  0.59271031  1  0  0.09571  0.103186  0  1.006168  0
H  H9  1  0.06992421  0.40728969  0.21132259  1  0  0.095698  0.103177  0  1.006192  0
H  H10  1  0.69551088  0.37845472  0.12817548  1  0  0.089607  0.104557  0  1.048558  0
H  H11  1  0.80449100  0.87182310  0.62154657  1  0  0.089612  0.104576  0  1.048536  0
H  H12  1  0.30449103  0.62154499  0.87182438  1  0  0.089601  0.104566  0  1.048556  0
H  H13  1  0.19550976  0.12817542  0.37845405  1  0  0.089628  0.10464  0  1.048451  0
H  H14  1  0.56803067  0.66600555  0.00657924  1  0  0.094113  0.070646  0  1.053845  0
H  H15  1  0.93196904  0.99342093  0.33399670  1  0  0.094104  0.070631  0  1.053865  0
H  H16  1  0.43196973  0.33399533  0.99342137  1  0  0.094106  0.070625  0  1.053874  0
H  H17  1  0.06803135  0.00657996  0.66600391  1  0  0.094107  0.070652  0  1.053852  0
C  C18  1  0.32196873  0.56563524  0.35447152  1  0  0.116671  0.16893  0  3.967578  0
C  C19  1  0.17802982  0.64552785  0.43436592  1  0  0.116693  0.168985  0  3.967597  0
C  C20  1  0.67803069  0.43436327  0.64552832  1  0  0.116699  0.168965  0  3.96754  0
C  C21  1  0.82196922  0.35447301  0.56563391  1  0  0.116683  0.168999  0  3.96755  0
C  C22  1  0.38710416  0.40541480  0.43037209  1  0  -0.083429  -0.153049  0  3.934597  0
C  C23  1  0.11289325  0.56962764  0.59458604  1  0  -0.083528  -0.153196  0  3.934738  0
C  C24  1  0.61289487  0.59458606  0.56962672  1  0  -0.083515  -0.153184  0  3.934567  0
C  C25  1  0.88710483  0.43037086  0.40541405  1  0  -0.083478  -0.153097  0  3.934563  0
C  C26  1  0.52059346  0.33638617  0.34912407  1  0  -0.070303  -0.018916  0  3.958588  0
C  C27  1  0.97940465  0.65087327  0.66361746  1  0  -0.07024  -0.018795  0  3.958435  0
C  C28  1  0.47940538  0.66361586  0.65087422  1  0  -0.070269  -0.018815  0  3.958443  0
C  C29  1  0.02059343  0.34912524  0.33638365  1  0  -0.070257  -0.01884  0  3.958452  0
C  C30  1  0.58908251  0.42845070  0.19445303  1  0  -0.084861  -0.115868  0  3.956169  0
C  C31  1  0.91091870  0.80554559  0.57155057  1  0  -0.084874  -0.115895  0  3.956198  0
C  C32  1  0.41091786  0.57155016  0.80554553  1  0  -0.084881  -0.115954  0  3.956196  0
C  C33  1  0.08908206  0.19445293  0.42845005  1  0  -0.084914  -0.115997  0  3.956173  0
C  C34  1  0.51943201  0.58706507  0.12685944  1  0  0.039046  0.09353  0  3.954862  0
C  C35  1  0.98057115  0.87313846  0.41293869  1  0  0.039064  0.093514  0  3.954991  0
C  C36  1  0.48056836  0.41293579  0.87313912  1  0  0.039058  0.093576  0  3.954922  0
C  C37  1  0.01942943  0.12686125  0.58706244  1  0  0.039078  0.093522  0  3.955027  0
I  I38  1  0.47856874  0.99567846  0.78246384  1  0  -0.205377  -0.394308  0  1.499989  0
I  I39  1  0.02143173  0.21753561  0.00432138  1  0  -0.205371  -0.394307  0  1.500008  0
I  I40  1  0.52143164  0.00432242  0.21753574  1  0  -0.205374  -0.394317  0  1.500024  0
I  I41  1  0.97856885  0.78246409  0.99567873  1  0  -0.20538  -0.394325  0  1.500001  0
N  N42  1  0.38870201  0.65310276  0.20417311  1  0  -0.329969  -0.248086  0  3.511506  0
N  N43  1  0.11129720  0.79582738  0.34689754  1  0  -0.329969  -0.248075  0  3.511569  0
N  N44  1  0.61129702  0.34689810  0.79582570  1  0  -0.329952  -0.248084  0  3.511572  0
N  N45  1  0.88870184  0.20417349  0.65310229  1  0  -0.329972  -0.24811  0  3.511548  0
