# generated using pymatgen
data_RbUH12C21I3O8
_symmetry_space_group_name_H-M   'P 1'
_cell_length_a   7.89040551
_cell_length_b   10.79701952
_cell_length_c   15.58463552
_cell_angle_alpha   74.11636177
_cell_angle_beta   83.95365099
_cell_angle_gamma   78.01954206
_symmetry_Int_Tables_number   1
_chemical_formula_structural   RbUH12C21I3O8
_chemical_formula_sum   'Rb2 U2 H24 C42 I6 O16'
_cell_volume   1247.52998842
_cell_formula_units_Z   2
loop_
 _symmetry_equiv_pos_site_id
 _symmetry_equiv_pos_as_xyz
  1  'x, y, z'
loop_
 _atom_site_type_symbol
 _atom_site_label
 _atom_site_symmetry_multiplicity
 _atom_site_fract_x
 _atom_site_fract_y
 _atom_site_fract_z
 _atom_site_occupancy
 _atom_site_hle17_bader_spin_density
 _atom_site_hle17_ddec_charge
 _atom_site_hle17_ddec_spin_density
 _atom_site_hle17_ddec_sum_bond_order
 _atom_site_hle17_magmom
 _atom_site_hse06_10hf_bader_spin_density
 _atom_site_hse06_10hf_ddec_charge
 _atom_site_hse06_10hf_ddec_spin_density
 _atom_site_hse06_10hf_ddec_sum_bond_order
 _atom_site_hse06_10hf_magmom
 _atom_site_hse06_bader_spin_density
 _atom_site_hse06_ddec_charge
 _atom_site_hse06_ddec_spin_density
 _atom_site_hse06_ddec_sum_bond_order
 _atom_site_hse06_magmom
 _atom_site_pbe_bader_spin_density
 _atom_site_pbe_cm5_charge
 _atom_site_pbe_ddec_charge
 _atom_site_pbe_ddec_spin_density
 _atom_site_pbe_ddec_sum_bond_order
 _atom_site_pbe_magmom
Rb  Rb0  1  0.67229689  0.57785386  0.06626051  1  0  0.9542  0  0.517281  0  0  0.910477  0  0.73843  0  0  0.927808  0  0.713778  0  0  0.783405  0.897726  0  0.756079  0
Rb  Rb1  1  0.32769917  0.42214078  0.93374190  1  0  0.954222  0  0.517259  0  0  0.910485  0  0.738425  0  0  0.927815  0  0.713768  0  0  0.783399  0.897706  0  0.756122  0
U  U2  1  0.18052705  0.47872411  0.19322172  1  0  2.414828  0  4.126493  0  0  2.478485  0  4.768155  0  0  2.587008  0  4.736945  0  0  2.132124  2.40273  0  4.79145  0
U  U3  1  0.81946935  0.52127444  0.80677989  1  0  2.414814  0  4.126434  0  0  2.478584  0  4.767979  0  0  2.587105  0  4.736776  0  0  2.132026  2.402808  0  4.791312  0
H  H4  1  0.97048445  0.09329516  0.39171443  1  0  0.085531  0  1.023048  0  0  0.088863  0  1.103472  0  0  0.093482  0  1.099152  0  0  0.08285  0.085591  0  1.106464  0
H  H5  1  0.02953275  0.90670713  0.60828278  1  0  0.085463  0  1.023133  0  0  0.088846  0  1.103529  0  0  0.093461  0  1.099217  0  0  0.082898  0.085575  0  1.106521  0
H  H6  1  0.65078744  0.29987356  0.16979571  1  0  0.077881  0  0.970314  0  0  0.085631  0  1.041453  0  0  0.088921  0  1.038613  0  0  0.103447  0.083256  0  1.043674  0
H  H7  1  0.34921675  0.70011905  0.83020539  1  0  0.077872  0  0.970359  0  0  0.085634  0  1.041488  0  0  0.088923  0  1.03865  0  0  0.103433  0.08326  0  1.043707  0
H  H8  1  0.52804958  0.27256120  0.45986106  1  0  0.100586  0  0.980493  0  0  0.106241  0  1.054805  0  0  0.110269  0  1.051687  0  0  0.094621  0.103392  0  1.056866  0
H  H9  1  0.47196108  0.72743631  0.54014130  1  0  0.100569  0  0.980513  0  0  0.106206  0  1.054836  0  0  0.110257  0  1.051693  0  0  0.09463  0.103352  0  1.056919  0
H  H10  1  0.65572146  0.63436653  0.29301967  1  0  0.077615  0  1.004691  0  0  0.082455  0  1.081822  0  0  0.086451  0  1.077876  0  0  0.090355  0.079543  0  1.084661  0
H  H11  1  0.34426340  0.36563782  0.70697434  1  0  0.077659  0  1.004635  0  0  0.082466  0  1.081777  0  0  0.086467  0  1.077838  0  0  0.090365  0.079554  0  1.084612  0
H  H12  1  0.85311136  0.81100155  0.93249629  1  0  0.093706  0  0.951468  0  0  0.102484  0  1.018263  0  0  0.106337  0  1.014567  0  0  0.111319  0.09973  0  1.020969  0
H  H13  1  0.14689204  0.18898904  0.06750204  1  0  0.093537  0  0.951794  0  0  0.102431  0  1.018458  0  0  0.106231  0  1.014814  0  0  0.111263  0.099646  0  1.021195  0
H  H14  1  0.35352723  0.86568651  0.98517944  1  0  0.091162  0  0.984692  0  0  0.097235  0  1.057992  0  0  0.101495  0  1.054218  0  0  0.099362  0.094167  0  1.060725  0
H  H15  1  0.64647978  0.13430499  0.01481660  1  0  0.091218  0  0.98458  0  0  0.097339  0  1.057813  0  0  0.101596  0  1.054036  0  0  0.099396  0.094265  0  1.060564  0
H  H16  1  0.44266077  0.14966999  0.22525309  1  0  0.098702  0  0.943087  0  0  0.110172  0  1.000361  0  0  0.113292  0  0.998458  0  0  0.105719  0.108007  0  1.001848  0
H  H17  1  0.55734870  0.85032178  0.77475624  1  0  0.098891  0  0.942948  0  0  0.110336  0  1.000224  0  0  0.113437  0  0.998345  0  0  0.105801  0.108168  0  1.001717  0
H  H18  1  0.84680157  0.64179790  0.40794222  1  0  0.082709  0  0.972888  0  0  0.089324  0  1.041294  0  0  0.092514  0  1.039518  0  0  0.093218  0.087337  0  1.042219  0
H  H19  1  0.15317526  0.35822415  0.59205063  1  0  0.082635  0  0.973005  0  0  0.089266  0  1.041409  0  0  0.092462  0  1.039623  0  0  0.093215  0.08728  0  1.042334  0
H  H20  1  0.81101383  0.02767207  0.82116929  1  0  0.07866  0  0.979727  0  0  0.090472  0  1.042896  0  0  0.093522  0  1.041413  0  0  0.088088  0.088307  0  1.044084  0
H  H21  1  0.18898573  0.97231857  0.17883052  1  0  0.078583  0  0.979811  0  0  0.090428  0  1.042947  0  0  0.093477  0  1.041467  0  0  0.088076  0.088265  0  1.044138  0
H  H22  1  0.49743278  0.96884617  0.36309850  1  0  0.068799  0  1.032611  0  0  0.072168  0  1.113258  0  0  0.076035  0  1.110045  0  0  0.075773  0.069443  0  1.115464  0
H  H23  1  0.50258236  0.03114853  0.63691124  1  0  0.068794  0  1.032745  0  0  0.072199  0  1.113342  0  0  0.076063  0  1.110133  0  0  0.0758  0.069474  0  1.115547  0
H  H24  1  0.87870281  0.46503715  0.54940018  1  0  0.106997  0  0.954176  0  0  0.118426  0  1.015697  0  0  0.121262  0  1.01396  0  0  0.107778  0.116488  0  1.016804  0
H  H25  1  0.12127443  0.53499384  0.45059729  1  0  0.106954  0  0.954305  0  0  0.118345  0  1.015851  0  0  0.121181  0  1.01412  0  0  0.107729  0.116409  0  1.016959  0
H  H26  1  0.04074732  0.16282783  0.78821707  1  0  0.115663  0  0.948685  0  0  0.126572  0  1.009679  0  0  0.130233  0  1.006383  0  0  0.108074  0.124004  0  1.011987  0
H  H27  1  0.95924772  0.83716577  0.21178239  1  0  0.115773  0  0.948822  0  0  0.126658  0  1.009837  0  0  0.130318  0  1.006543  0  0  0.108113  0.124099  0  1.012123  0
C  C28  1  0.94486614  0.29913378  0.24668830  1  0  0.642895  0  3.868948  0  0  0.606149  0  4.163683  0  0  0.642643  0  4.157176  0  0  0.208123  0.581345  0  4.166991  0
C  C29  1  0.05514156  0.70086557  0.75330678  1  0  0.643134  0  3.86869  0  0  0.606379  0  4.163465  0  0  0.642874  0  4.15695  0  0  0.208135  0.581577  0  4.166775  0
C  C30  1  0.45321628  0.45640343  0.30586010  1  0  0.631786  0  3.886133  0  0  0.593079  0  4.184258  0  0  0.629731  0  4.177692  0  0  0.201772  0.568192  0  4.187555  0
C  C31  1  0.54677956  0.54359216  0.69414084  1  0  0.631759  0  3.885973  0  0  0.593016  0  4.184105  0  0  0.629668  0  4.177539  0  0  0.20172  0.568129  0  4.187397  0
C  C32  1  0.13580771  0.69820925  0.03493182  1  0  0.639363  0  3.904078  0  0  0.601148  0  4.1981  0  0  0.637414  0  4.190208  0  0  0.208329  0.576503  0  4.202447  0
C  C33  1  0.86419605  0.30178523  0.96506444  1  0  0.639468  0  3.90384  0  0  0.601192  0  4.197939  0  0  0.637457  0  4.190046  0  0  0.208323  0.576549  0  4.202284  0
C  C34  1  0.82407083  0.20558078  0.27694943  1  0  -0.065062  0  3.756855  0  0  -0.035043  0  3.978763  0  0  -0.044571  0  4.002405  0  0  -0.018392  -0.028918  0  3.963081  0
C  C35  1  0.17593767  0.79442056  0.72304779  1  0  -0.065308  0  3.756989  0  0  -0.035231  0  3.978924  0  0  -0.044758  0  4.002565  0  0  -0.018421  -0.029108  0  3.963246  0
C  C36  1  0.57968179  0.45405484  0.37017845  1  0  -0.064695  0  3.761147  0  0  -0.033667  0  3.981357  0  0  -0.043371  0  4.004747  0  0  -0.015237  -0.027741  0  3.965708  0
C  C37  1  0.42031557  0.54595049  0.62981856  1  0  -0.064743  0  3.761186  0  0  -0.033577  0  3.981179  0  0  -0.04328  0  4.004575  0  0  -0.015244  -0.02765  0  3.96553  0
C  C38  1  0.10579961  0.82555241  0.96611630  1  0  -0.054512  0  3.750668  0  0  -0.023391  0  3.969978  0  0  -0.032542  0  3.99294  0  0  -0.009798  -0.017603  0  3.9548  0
C  C39  1  0.89420739  0.17443913  0.03388165  1  0  -0.054297  0  3.750262  0  0  -0.023107  0  3.969542  0  0  -0.032254  0  3.992482  0  0  -0.009694  -0.017318  0  3.954352  0
C  C40  1  0.85595387  0.10359330  0.35514635  1  0  -0.096013  0  3.733857  0  0  -0.127181  0  3.976523  0  0  -0.126737  0  3.997379  0  0  -0.093483  -0.127097  0  3.962614  0
C  C41  1  0.14405924  0.89641004  0.64485344  1  0  -0.095912  0  3.734058  0  0  -0.127197  0  3.976768  0  0  -0.126752  0  3.997623  0  0  -0.09348  -0.127113  0  3.962859  0
C  C42  1  0.67598649  0.22076358  0.23005272  1  0  -0.054474  0  3.723642  0  0  -0.0834  0  3.976833  0  0  -0.081832  0  3.996879  0  0  -0.080605  -0.084372  0  3.963432  0
C  C43  1  0.32402128  0.77923002  0.76994992  1  0  -0.054339  0  3.723519  0  0  -0.083297  0  3.976726  0  0  -0.08173  0  3.996767  0  0  -0.080529  -0.084269  0  3.963325  0
C  C44  1  0.60019794  0.35178951  0.44879336  1  0  -0.082665  0  3.701011  0  0  -0.113179  0  3.941036  0  0  -0.112572  0  3.962446  0  0  -0.08492  -0.112893  0  3.926476  0
C  C45  1  0.39980577  0.64821585  0.55120651  1  0  -0.082672  0  3.701047  0  0  -0.113194  0  3.941039  0  0  -0.1126  0  3.962423  0  0  -0.084967  -0.112914  0  3.926478  0
C  C46  1  0.67208360  0.55631333  0.35444158  1  0  -0.054087  0  3.719422  0  0  -0.082343  0  3.964748  0  0  -0.079979  0  3.982916  0  0  -0.080027  -0.083025  0  3.952201  0
C  C47  1  0.32790669  0.44369494  0.64555329  1  0  -0.054163  0  3.719396  0  0  -0.082384  0  3.964602  0  0  -0.080041  0  3.98279  0  0  -0.080022  -0.083063  0  3.952043  0
C  C48  1  0.95310762  0.87075729  0.91959229  1  0  -0.050853  0  3.70314  0  0  -0.080748  0  3.95422  0  0  -0.07843  0  3.972994  0  0  -0.072167  -0.082108  0  3.94156  0
C  C49  1  0.04689517  0.12923045  0.08041049  1  0  -0.050798  0  3.703237  0  0  -0.080855  0  3.954393  0  0  -0.078488  0  3.97319  0  0  -0.072186  -0.082188  0  3.941739  0
C  C50  1  0.23586490  0.90132356  0.94828838  1  0  -0.096469  0  3.741076  0  0  -0.12645  0  3.980197  0  0  -0.126317  0  4.001651  0  0  -0.084297  -0.126216  0  3.965603  0
C  C51  1  0.76413803  0.09866903  0.05171150  1  0  -0.09664  0  3.741232  0  0  -0.126663  0  3.980333  0  0  -0.126558  0  4.001858  0  0  -0.084332  -0.126429  0  3.965732  0
C  C52  1  0.73783714  0.01944193  0.38527928  1  0  0.005358  0  3.695008  0  0  0.037592  0  3.948868  0  0  0.035744  0  3.974956  0  0  -0.055132  0.038523  0  3.93129  0
C  C53  1  0.26217302  0.98055766  0.61472846  1  0  0.00572  0  3.694425  0  0  0.037994  0  3.948295  0  0  0.036148  0  3.974381  0  0  -0.0551  0.038924  0  3.930716  0
C  C54  1  0.55940835  0.13581697  0.26101385  1  0  -0.053425  0  3.747499  0  0  -0.065242  0  4.000942  0  0  -0.068566  0  4.021489  0  0  -0.085961  -0.06322  0  3.987292  0
C  C55  1  0.44059707  0.86417576  0.73899358  1  0  -0.053591  0  3.74742  0  0  -0.065377  0  4.000907  0  0  -0.068686  0  4.02146  0  0  -0.086054  -0.063356  0  3.987258  0
C  C56  1  0.71201034  0.35563457  0.51091551  1  0  0.03007  0  3.66981  0  0  0.058984  0  3.928566  0  0  0.058185  0  3.953669  0  0  -0.044249  0.059229  0  3.911536  0
C  C57  1  0.28797990  0.64438460  0.48908362  1  0  0.030083  0  3.669587  0  0  0.058979  0  3.928353  0  0  0.058181  0  3.953461  0  0  -0.044219  0.059225  0  3.911323  0
C  C58  1  0.77947331  0.55991057  0.41870925  1  0  -0.048637  0  3.740552  0  0  -0.056102  0  3.988335  0  0  -0.060225  0  4.009073  0  0  -0.08216  -0.053676  0  3.974139  0
C  C59  1  0.22050849  0.44010662  0.58128751  1  0  -0.048501  0  3.740346  0  0  -0.055981  0  3.988089  0  0  -0.060102  0  4.008833  0  0  -0.082116  -0.053556  0  3.973895  0
C  C60  1  0.93110844  0.99161669  0.85635888  1  0  -0.057011  0  3.741624  0  0  -0.065385  0  3.991007  0  0  -0.069987  0  4.013121  0  0  -0.086184  -0.062368  0  3.97592  0
C  C61  1  0.06888951  0.00837003  0.14364115  1  0  -0.05688  0  3.741567  0  0  -0.065278  0  3.990968  0  0  -0.069878  0  4.013068  0  0  -0.086151  -0.062267  0  3.975878  0
C  C62  1  0.21197567  0.02074857  0.88413771  1  0  0.032924  0  3.675553  0  0  0.06306  0  3.930106  0  0  0.061645  0  3.956815  0  0  -0.040654  0.063737  0  3.912086  0
C  C63  1  0.78802171  0.97924596  0.11585952  1  0  0.032904  0  3.675756  0  0  0.063024  0  3.930337  0  0  0.061605  0  3.957045  0  0  -0.04068  0.063702  0  3.912316  0
C  C64  1  0.58953222  0.03468078  0.33866221  1  0  -0.091724  0  3.787429  0  0  -0.114983  0  4.036128  0  0  -0.115237  0  4.057041  0  0  -0.100476  -0.11467  0  4.022206  0
C  C65  1  0.41047748  0.96532074  0.66134388  1  0  -0.092026  0  3.787467  0  0  -0.115318  0  4.036142  0  0  -0.115572  0  4.057049  0  0  -0.100584  -0.115002  0  4.022217  0
C  C66  1  0.79899733  0.46030127  0.49787438  1  0  -0.077785  0  3.718472  0  0  -0.104933  0  3.969008  0  0  -0.104347  0  3.989245  0  0  -0.08523  -0.105321  0  3.955155  0
C  C67  1  0.20099294  0.53971783  0.50212155  1  0  -0.077799  0  3.71833  0  0  -0.104926  0  3.968916  0  0  -0.104346  0  3.989159  0  0  -0.085225  -0.105316  0  3.955066  0
C  C68  1  0.05998742  0.06815236  0.83758163  1  0  -0.067465  0  3.691299  0  0  -0.092563  0  3.937166  0  0  -0.092049  0  3.957664  0  0  -0.078256  -0.092502  0  3.923063  0
C  C69  1  0.94001411  0.93183535  0.16241994  1  0  -0.06758  0  3.691371  0  0  -0.092676  0  3.93726  0  0  -0.092161  0  3.957757  0  0  -0.078295  -0.092614  0  3.923166  0
I  I70  1  0.77312818  0.87040538  0.50511984  1  0  0.068793  0  1.458692  0  0  0.052634  0  1.779931  0  0  0.051317  0  1.770043  0  0  0.150423  0.054081  0  1.785698  0
I  I71  1  0.22688194  0.12960506  0.49488960  1  0  0.06874  0  1.458356  0  0  0.052561  0  1.779591  0  0  0.051214  0  1.769753  0  0  0.150433  0.054005  0  1.785359  0
I  I72  1  0.75231520  0.20166910  0.62804508  1  0  0.004826  0  1.384084  0  0  -0.004262  0  1.689424  0  0  -0.009336  0  1.682322  0  0  0.120729  -0.001123  0  1.694469  0
I  I73  1  0.24767231  0.79835611  0.37196006  1  0  0.004824  0  1.383994  0  0  -0.004264  0  1.689351  0  0  -0.009344  0  1.682254  0  0  0.120718  -0.001119  0  1.694397  0
I  I74  1  0.41576451  0.12714647  0.85499468  1  0  -0.004889  0  1.38287  0  0  -0.013228  0  1.685856  0  0  -0.016208  0  1.675515  0  0  0.14927  -0.010967  0  1.693334  0
I  I75  1  0.58422912  0.87285306  0.14500625  1  0  -0.004914  0  1.382907  0  0  -0.01324  0  1.685887  0  0  -0.016216  0  1.675556  0  0  0.149247  -0.010984  0  1.693363  0
O  O76  1  0.91825528  0.39541150  0.17611138  1  0  -0.696809  0  1.995292  0  0  -0.676993  0  2.261837  0  0  -0.710103  0  2.258442  0  0  -0.434052  -0.653439  0  2.26342  0
O  O77  1  0.08175455  0.60457891  0.82388023  1  0  -0.697062  0  1.995275  0  0  -0.677251  0  2.261835  0  0  -0.71036  0  2.258429  0  0  -0.434137  -0.653692  0  2.263424  0
O  O78  1  0.30942235  0.37301814  0.12665421  1  0  -0.813209  0  1.591273  0  0  -0.81404  0  1.887269  0  0  -0.835952  0  1.873678  0  0  -0.825776  -0.800145  0  1.897152  0
O  O79  1  0.69058021  0.62698134  0.87334626  1  0  -0.813186  0  1.591394  0  0  -0.81404  0  1.887374  0  0  -0.83596  0  1.873806  0  0  -0.825778  -0.800145  0  1.897265  0
O  O80  1  0.34036175  0.38201788  0.32783149  1  0  -0.596475  0  1.994609  0  0  -0.571907  0  2.249858  0  0  -0.604377  0  2.248336  0  0  -0.341951  -0.548987  0  2.250011  0
O  O81  1  0.65963664  0.61797770  0.67216933  1  0  -0.596492  0  1.994486  0  0  -0.572003  0  2.249832  0  0  -0.604475  0  2.248311  0  0  -0.341967  -0.54908  0  2.249984  0
O  O82  1  0.45008035  0.53580044  0.22704740  1  0  -0.693249  0  2.020205  0  0  -0.676311  0  2.293941  0  0  -0.709114  0  2.289919  0  0  -0.419544  -0.652852  0  2.295827  0
O  O83  1  0.54991318  0.46419416  0.77295258  1  0  -0.693129  0  2.020102  0  0  -0.676191  0  2.293844  0  0  -0.708991  0  2.289824  0  0  -0.419451  -0.652725  0  2.295719  0
O  O84  1  0.02020818  0.62608540  0.05749557  1  0  -0.687889  0  1.995557  0  0  -0.66302  0  2.254985  0  0  -0.693107  0  2.249553  0  0  -0.401196  -0.641696  0  2.258053  0
O  O85  1  0.97978766  0.37391019  0.94250537  1  0  -0.687888  0  1.995593  0  0  -0.663021  0  2.255084  0  0  -0.693104  0  2.249647  0  0  -0.401215  -0.641693  0  2.258149  0
O  O86  1  0.05207066  0.59295584  0.25133505  1  0  -0.704813  0  1.58391  0  0  -0.712625  0  1.876296  0  0  -0.733375  0  1.866467  0  0  -0.75775  -0.699866  0  1.88377  0
O  O87  1  0.94792056  0.40703774  0.74866269  1  0  -0.704848  0  1.583875  0  0  -0.712682  0  1.876236  0  0  -0.733433  0  1.866409  0  0  -0.757684  -0.699915  0  1.88371  0
O  O88  1  0.07840164  0.28710251  0.29040774  1  0  -0.59768  0  1.966544  0  0  -0.570927  0  2.212468  0  0  -0.602217  0  2.208984  0  0  -0.344463  -0.548829  0  2.213967  0
O  O89  1  0.92160197  0.71289791  0.70959119  1  0  -0.597662  0  1.966456  0  0  -0.570929  0  2.212401  0  0  -0.60222  0  2.208915  0  0  -0.344422  -0.548829  0  2.213902  0
O  O90  1  0.28059392  0.65988757  0.07367213  1  0  -0.693145  0  2.016479  0  0  -0.663676  0  2.270281  0  0  -0.69467  0  2.26595  0  0  -0.392815  -0.641637  0  2.272254  0
O  O91  1  0.71940648  0.34010497  0.92632469  1  0  -0.693208  0  2.016251  0  0  -0.663732  0  2.270077  0  0  -0.694721  0  2.265747  0  0  -0.39277  -0.641687  0  2.27205  0
