# generated using pymatgen
data_ZnFe2H34C36(SN)4
_symmetry_space_group_name_H-M   'P 1'
_cell_length_a   7.11448525
_cell_length_b   17.09689655
_cell_length_c   17.41545187
_cell_angle_alpha   89.89104194
_cell_angle_beta   89.99804267
_cell_angle_gamma   89.99720441
_symmetry_Int_Tables_number   1
_chemical_formula_structural   ZnFe2H34C36(SN)4
_chemical_formula_sum   'Zn2 Fe4 H68 C72 S8 N8'
_cell_volume   2118.33542231
_cell_formula_units_Z   2
loop_
 _symmetry_equiv_pos_site_id
 _symmetry_equiv_pos_as_xyz
  1  'x, y, z'
loop_
 _atom_site_type_symbol
 _atom_site_label
 _atom_site_symmetry_multiplicity
 _atom_site_fract_x
 _atom_site_fract_y
 _atom_site_fract_z
 _atom_site_occupancy
 _atom_site_pbe_bader_charge
 _atom_site_pbe_bader_spin_density
 _atom_site_pbe_cm5_charge
 _atom_site_pbe_ddec_charge
 _atom_site_pbe_ddec_spin_density
 _atom_site_pbe_ddec_sum_bond_order
 _atom_site_pbe_magmom
Zn  Zn0  1  0.99998321  0.99999916  0.99999399  1  1.028959  0  0.493759  0.475248  0  2.732912  0
Zn  Zn1  1  0.49999850  0.50000426  0.00000384  1  1.02901  0  0.493769  0.475217  0  2.732938  0
Fe  Fe2  1  0.06699053  0.13098127  0.41053426  1  0.710339  0  0.527852  0.205838  0  4.065127  0
Fe  Fe3  1  0.56698420  0.36901616  0.58946651  1  0.710281  0  0.527868  0.20583  0  4.064991  0
Fe  Fe4  1  0.93301658  0.86902973  0.58945245  1  0.710086  0  0.52805  0.20601  0  4.065308  0
Fe  Fe5  1  0.43300744  0.63097339  0.41054169  1  0.70984  0  0.52803  0.205923  0  4.065213  0
H  H6  1  0.89465053  0.23320872  0.25157271  1  0.069905  0  0.109948  0.093234  0  0.964761  0
H  H7  1  0.39464076  0.26679529  0.74843519  1  0.069879  0  0.10993  0.093288  0  0.964705  0
H  H8  1  0.10537063  0.76679222  0.74842016  1  0.069822  0  0.109939  0.093241  0  0.964782  0
H  H9  1  0.60536072  0.73320352  0.25157832  1  0.069842  0  0.109888  0.093234  0  0.96487  0
H  H10  1  0.07522323  0.16869370  0.21879687  1  0.086901  0  0.100482  0.088391  0  1.041562  0
H  H11  1  0.57518838  0.33129420  0.78120363  1  0.087076  0  0.10052  0.088458  0  1.041621  0
H  H12  1  0.92477965  0.83129500  0.78119351  1  0.087632  0  0.100537  0.088498  0  1.041574  0
H  H13  1  0.42480467  0.66871227  0.21880655  1  0.087522  0  0.100608  0.088558  0  1.0416  0
H  H14  1  0.71456518  0.19599799  0.38572264  1  0.096857  0  0.10469  0.128829  0  1.016972  0
H  H15  1  0.21457636  0.30400546  0.61429459  1  0.096993  0  0.104678  0.128791  0  1.01695  0
H  H16  1  0.28544614  0.80400353  0.61427023  1  0.096382  0  0.104765  0.128894  0  1.016953  0
H  H17  1  0.78541668  0.69598863  0.38572115  1  0.096507  0  0.10471  0.128841  0  1.016818  0
H  H18  1  0.74645338  0.07843943  0.48912714  1  0.07891  0  0.106718  0.121688  0  1.00181  0
H  H19  1  0.24643136  0.42155477  0.51088032  1  0.078512  0  0.106754  0.12174  0  1.001708  0
H  H20  1  0.25356357  0.92155907  0.51087143  1  0.078707  0  0.106776  0.121713  0  1.001808  0
H  H21  1  0.75355044  0.57843438  0.48911753  1  0.078608  0  0.106768  0.121765  0  1.001772  0
H  H22  1  0.98741753  0.97090677  0.43119135  1  0.080816  0  0.106244  0.122877  0  1.025656  0
H  H23  1  0.48737191  0.52908102  0.56881216  1  0.0732  0  0.106222  0.122808  0  1.025827  0
H  H24  1  0.01262049  0.02908290  0.56880996  1  0.081311  0  0.106203  0.122825  0  1.025882  0
H  H25  1  0.51263098  0.47091102  0.43118746  1  0.081283  0  0.106218  0.12284  0  1.025696  0
H  H26  1  0.09996289  0.02185088  0.28989788  1  0.071948  0  0.102702  0.129527  0  1.007892  0
H  H27  1  0.59992525  0.47814479  0.71009781  1  0.069995  0  0.102591  0.12939  0  1.007969  0
H  H28  1  0.90005124  0.97815462  0.71010137  1  0.07199  0  0.10269  0.129459  0  1.007825  0
H  H29  1  0.40007623  0.52184840  0.28990298  1  0.069984  0  0.102677  0.129412  0  1.007906  0
H  H30  1  0.26568102  0.25291745  0.33902352  1  0.065399  0  0.103591  0.118201  0  1.001845  0
H  H31  1  0.76567172  0.24707481  0.66097217  1  0.06532  0  0.10359  0.118169  0  1.001905  0
H  H32  1  0.73435419  0.74709391  0.66097525  1  0.065507  0  0.103546  0.118033  0  1.001828  0
H  H33  1  0.23433117  0.75291954  0.33902921  1  0.065567  0  0.103506  0.117971  0  1.001711  0
H  H34  1  0.04843681  0.28602687  0.46300376  1  0.121181  0  0.1052  0.131943  0  1.010784  0
H  H35  1  0.54845442  0.21397567  0.53699446  1  0.12124  0  0.105207  0.13191  0  1.010784  0
H  H36  1  0.95155483  0.71398987  0.53698878  1  0.121448  0  0.105229  0.131996  0  1.010816  0
H  H37  1  0.45149927  0.78600027  0.46302214  1  0.12177  0  0.105259  0.131983  0  1.010789  0
H  H38  1  0.09358515  0.17028066  0.56678378  1  0.088054  0  0.105617  0.122161  0  1.000759  0
H  H39  1  0.59360495  0.32971910  0.43321953  1  0.087979  0  0.105581  0.122108  0  1.000744  0
H  H40  1  0.90640509  0.82972738  0.43320461  1  0.087882  0  0.105676  0.122238  0  1.000742  0
H  H41  1  0.40635858  0.67025807  0.56679364  1  0.08777  0  0.105686  0.122236  0  1.000632  0
H  H42  1  0.33817231  0.06422086  0.50783483  1  0.080875  0  0.104788  0.124972  0  1.008773  0
H  H43  1  0.83816351  0.43576558  0.49217357  1  0.081124  0  0.104829  0.12515  0  1.00864  0
H  H44  1  0.66183058  0.93577868  0.49217065  1  0.080906  0  0.104798  0.125059  0  1.008602  0
H  H45  1  0.16181267  0.56421661  0.50782074  1  0.081173  0  0.104746  0.124905  0  1.008795  0
H  H46  1  0.44144490  0.11434453  0.36633064  1  0.08274  0  0.106108  0.129362  0  1.005238  0
H  H47  1  0.94142589  0.38564164  0.63367233  1  0.081225  0  0.105988  0.129186  0  1.005308  0
H  H48  1  0.55857767  0.88566606  0.63367846  1  0.082618  0  0.106098  0.129358  0  1.005166  0
H  H49  1  0.05857981  0.61434757  0.36632208  1  0.082632  0  0.105963  0.129212  0  1.005199  0
H  H50  1  0.56937841  0.17656918  0.24239297  1  0.044794  0  0.112724  0.102813  0  0.971083  0
H  H51  1  0.06937389  0.32345134  0.75762248  1  0.045391  0  0.112726  0.102765  0  0.971223  0
H  H52  1  0.43062026  0.82342656  0.75759637  1  0.044552  0  0.112708  0.10273  0  0.971145  0
H  H53  1  0.93062337  0.67655808  0.24238661  1  0.044795  0  0.112773  0.102887  0  0.971193  0
H  H54  1  0.52139553  0.12720409  0.15509533  1  0.135285  0  0.104327  0.107595  0  1.026349  0
H  H55  1  0.02138496  0.37282812  0.84491004  1  0.134732  0  0.104149  0.107415  0  1.026368  0
H  H56  1  0.47862000  0.87280031  0.84490047  1  0.135138  0  0.104292  0.107531  0  1.026363  0
H  H57  1  0.97861652  0.62717791  0.15509210  1  0.134893  0  0.104223  0.107503  0  1.026297  0
H  H58  1  0.86175361  0.24533594  0.08238341  1  0.103539  0  0.108128  0.124171  0  1.004982  0
H  H59  1  0.36172827  0.25467626  0.91762967  1  0.103492  0  0.108169  0.124335  0  1.004754  0
H  H60  1  0.13823381  0.75466624  0.91760546  1  0.103405  0  0.108125  0.124178  0  1.005078  0
H  H61  1  0.63824931  0.74532323  0.08237869  1  0.103435  0  0.108119  0.124192  0  1.004777  0
H  H62  1  0.80853629  0.37372801  0.01680892  1  0.124798  0  0.104614  0.079808  0  1.024289  0
H  H63  1  0.30850501  0.12627723  0.98319672  1  0.124868  0  0.10468  0.079925  0  1.024342  0
H  H64  1  0.19145676  0.62627626  0.98319376  1  0.12475  0  0.104622  0.079869  0  1.02417  0
H  H65  1  0.69147398  0.87371784  0.01679720  1  0.124908  0  0.104594  0.079846  0  1.02428  0
H  H66  1  0.28330368  0.39840533  0.11522539  1  0.092081  0  0.108265  0.083369  0  1.002692  0
H  H67  1  0.78324626  0.10163092  0.88477649  1  0.092001  0  0.108237  0.083438  0  1.002703  0
H  H68  1  0.71671185  0.60159649  0.88478357  1  0.092167  0  0.108256  0.083301  0  1.002753  0
H  H69  1  0.21674117  0.89837142  0.11520377  1  0.092159  0  0.108186  0.083321  0  1.002601  0
H  H70  1  0.31436867  0.27173166  0.18675457  1  0.059515  0  0.102429  0.10974  0  1.01447  0
H  H71  1  0.81433334  0.22831603  0.81325797  1  0.060351  0  0.102289  0.109513  0  1.014469  0
H  H72  1  0.68565108  0.72827024  0.81324980  1  0.059503  0  0.10245  0.109796  0  1.014534  0
H  H73  1  0.18567657  0.77169418  0.18673964  1  0.060239  0  0.102358  0.109567  0  1.014384  0
C  C74  1  0.86712026  0.09248562  0.12487987  1  0.252041  0  0.118806  0.21  0  4.073831  0
C  C75  1  0.36712980  0.40750838  0.87513113  1  0.251715  0  0.118787  0.209877  0  4.073854  0
C  C76  1  0.13288685  0.90751426  0.87510724  1  0.252378  0  0.118916  0.210129  0  4.073419  0
C  C77  1  0.63286887  0.59249869  0.12487907  1  0.252168  0  0.118885  0.2101  0  4.073725  0
C  C78  1  0.93108447  0.17156613  0.24110447  1  0.275481  0  -0.057239  -0.094425  0  3.931381  0
C  C79  1  0.43106521  0.32843674  0.75889258  1  0.275334  0  -0.057267  -0.094519  0  3.931595  0
C  C80  1  0.06890717  0.82843571  0.75887118  1  0.2755  0  -0.057311  -0.094606  0  3.931474  0
C  C81  1  0.56892502  0.67156201  0.24112380  1  0.275446  0  -0.057339  -0.094782  0  3.931929  0
C  C82  1  0.91235902  0.12450156  0.31325117  1  -0.127957  0  -0.08058  0.047647  0  3.988269  0
C  C83  1  0.41236842  0.37551266  0.68675436  1  -0.127345  0  -0.080678  0.047229  0  3.989015  0
C  C84  1  0.08767619  0.87550541  0.68673146  1  -0.126921  0  -0.080785  0.047319  0  3.989322  0
C  C85  1  0.58766539  0.62449198  0.31326039  1  -0.127737  0  -0.080722  0.047452  0  3.989028  0
C  C86  1  0.79596873  0.14287677  0.37827174  1  -0.1208  0  -0.162263  -0.204672  0  4.005517  0
C  C87  1  0.29597869  0.35712042  0.62174027  1  -0.120596  0  -0.1623  -0.204667  0  4.005577  0
C  C88  1  0.20405103  0.85712558  0.62170794  1  -0.121348  0  -0.162348  -0.204542  0  4.005902  0
C  C89  1  0.70403122  0.64286832  0.37827998  1  -0.121159  0  -0.162301  -0.204685  0  4.005638  0
C  C90  1  0.81395730  0.08082335  0.43323046  1  -0.180521  0  -0.157944  -0.144144  0  4.019053  0
C  C91  1  0.31393229  0.41917300  0.56677555  1  -0.181188  0  -0.157915  -0.144098  0  4.019089  0
C  C92  1  0.18605261  0.91917937  0.56676071  1  -0.180257  0  -0.157864  -0.144085  0  4.019368  0
C  C93  1  0.68605514  0.58081605  0.43322805  1  -0.18062  0  -0.157934  -0.144006  0  4.019325  0
C  C94  1  0.94142582  0.02387773  0.40228982  1  -0.17182  0  -0.155712  -0.13741  0  3.993376  0
C  C95  1  0.44138453  0.47611673  0.59770811  1  -0.163767  0  -0.155743  -0.137403  0  3.993913  0
C  C96  1  0.05859955  0.97611958  0.59770988  1  -0.171796  0  -0.155734  -0.137459  0  3.994075  0
C  C97  1  0.55861274  0.52387651  0.40229038  1  -0.171574  0  -0.155708  -0.137457  0  3.993777  0
C  C98  1  0.00186535  0.05061985  0.32841252  1  -0.092563  0  -0.154247  -0.174442  0  3.949467  0
C  C99  1  0.50183290  0.44938960  0.67158012  1  -0.090714  0  -0.153968  -0.17395  0  3.949706  0
C  C100  1  0.99814175  0.94938226  0.67158037  1  -0.093199  0  -0.154143  -0.174191  0  3.949814  0
C  C101  1  0.49815593  0.55061707  0.32841915  1  -0.09037  0  -0.154074  -0.174094  0  3.949658  0
C  C102  1  0.25576729  0.21811520  0.39120528  1  -0.161343  0  -0.158047  -0.146915  0  4.004423  0
C  C103  1  0.75576813  0.28187200  0.60879046  1  -0.161461  0  -0.158053  -0.146952  0  4.004279  0
C  C104  1  0.74425668  0.78189089  0.60879399  1  -0.161374  0  -0.157969  -0.146616  0  4.004264  0
C  C105  1  0.24422492  0.71811585  0.39121484  1  -0.161692  0  -0.157863  -0.146444  0  4.004163  0
C  C106  1  0.14137434  0.23605922  0.45668145  1  -0.143683  0  -0.15167  -0.125866  0  3.965423  0
C  C107  1  0.64138276  0.26393903  0.54331832  1  -0.143931  0  -0.151624  -0.125694  0  3.965485  0
C  C108  1  0.85862574  0.76395043  0.54331500  1  -0.143791  0  -0.151632  -0.125818  0  3.965742  0
C  C109  1  0.35858920  0.73603930  0.45669545  1  -0.143188  0  -0.151863  -0.126143  0  3.966284  0
C  C110  1  0.16498521  0.17442410  0.51176436  1  -0.184017  0  -0.15575  -0.149013  0  4.013397  0
C  C111  1  0.66499386  0.32557650  0.48824087  1  -0.183738  0  -0.155673  -0.148927  0  4.013504  0
C  C112  1  0.83502751  0.82557797  0.48823083  1  -0.183915  0  -0.155891  -0.149273  0  4.014027  0
C  C113  1  0.33498654  0.67440769  0.51177242  1  -0.184397  0  -0.155728  -0.148947  0  4.013959  0
C  C114  1  0.29384242  0.11824228  0.48037901  1  -0.150465  0  -0.160111  -0.155279  0  4.0129  0
C  C115  1  0.79383765  0.38175086  0.51963296  1  -0.150791  0  -0.16034  -0.15587  0  4.01359  0
C  C116  1  0.70617452  0.88175729  0.51962475  1  -0.150806  0  -0.160244  -0.155569  0  4.013226  0
C  C117  1  0.20615259  0.61823520  0.48037404  1  -0.150597  0  -0.16018  -0.155377  0  4.013327  0
C  C118  1  0.34873904  0.14498396  0.40547329  1  -0.162993  0  -0.161009  -0.149558  0  4.021183  0
C  C119  1  0.84873112  0.35500115  0.59453207  1  -0.161079  0  -0.160781  -0.149052  0  4.020891  0
C  C120  1  0.65128774  0.85502022  0.59453456  1  -0.162544  0  -0.160992  -0.149483  0  4.021187  0
C  C121  1  0.15127458  0.64498500  0.40546976  1  -0.162873  0  -0.160901  -0.149457  0  4.021141  0
C  C122  1  0.61414487  0.17080537  0.18214708  1  0.284952  0  -0.053147  -0.120427  0  3.916262  0
C  C123  1  0.11414729  0.32922020  0.81786152  1  0.285052  0  -0.053046  -0.120496  0  3.916159  0
C  C124  1  0.38586504  0.82919556  0.81784636  1  0.28578  0  -0.053131  -0.120239  0  3.916031  0
C  C125  1  0.88584998  0.67078570  0.18214808  1  0.285582  0  -0.053208  -0.120663  0  3.91649  0
C  C126  1  0.59248766  0.24816301  0.14095190  1  -0.05527  0  0.00795  0.142237  0  3.958578  0
C  C127  1  0.09245491  0.25187144  0.85907493  1  -0.05448  0  0.007877  0.14259  0  3.957785  0
C  C128  1  0.40751523  0.75183956  0.85904788  1  -0.055701  0  0.00796  0.142252  0  3.958613  0
C  C129  1  0.90753252  0.74813559  0.14093698  1  -0.05413  0  0.007964  0.142489  0  3.95795  0
C  C130  1  0.73178268  0.27754908  0.09209240  1  -0.062126  0  -0.091453  -0.188252  0  3.943719  0
C  C131  1  0.23175489  0.22246692  0.90792307  1  -0.063122  0  -0.091444  -0.188702  0  3.943726  0
C  C132  1  0.26820475  0.72244772  0.90790270  1  -0.061932  0  -0.091498  -0.188252  0  3.943748  0
C  C133  1  0.76823956  0.77753440  0.09208129  1  -0.063448  0  -0.091426  -0.188484  0  3.943636  0
C  C134  1  0.70263951  0.34880067  0.05508549  1  0.488467  0  0.044683  0.098494  0  3.955853  0
C  C135  1  0.20260431  0.15121601  0.94492522  1  0.488303  0  0.044563  0.098427  0  3.956134  0
C  C136  1  0.29736759  0.65120132  0.94491372  1  0.488775  0  0.044682  0.098407  0  3.955686  0
C  C137  1  0.79737468  0.84878709  0.05507745  1  0.487993  0  0.044729  0.098505  0  3.955874  0
C  C138  1  0.40941631  0.36246377  0.11020388  1  0.487327  0  0.042053  0.094607  0  3.978233  0
C  C139  1  0.90936691  0.13756557  0.88980996  1  0.489238  0  0.042069  0.094474  0  3.977548  0
C  C140  1  0.59060344  0.63754337  0.88980172  1  0.489172  0  0.042068  0.094789  0  3.978201  0
C  C141  1  0.09060505  0.86244247  0.11017842  1  0.489909  0  0.042073  0.094543  0  3.977574  0
C  C142  1  0.42808491  0.29223840  0.14979907  1  -0.005201  0  -0.094391  -0.195158  0  3.967919  0
C  C143  1  0.92806012  0.20780062  0.85020835  1  -0.005736  0  -0.094097  -0.194798  0  3.966781  0
C  C144  1  0.57191657  0.70776885  0.85020079  1  -0.005255  0  -0.094364  -0.195265  0  3.968056  0
C  C145  1  0.07194276  0.79220850  0.14978522  1  -0.005869  0  -0.094277  -0.194914  0  3.966736  0
S  S146  1  0.71148202  0.05896134  0.05735675  1  -0.243832  0  -0.199964  -0.356058  0  2.354153  0
S  S147  1  0.21147636  0.44104815  0.94265373  1  -0.243974  0  -0.199974  -0.356061  0  2.354024  0
S  S148  1  0.28850821  0.94103950  0.94264129  1  -0.244246  0  -0.199968  -0.356027  0  2.353867  0
S  S149  1  0.78851247  0.55896369  0.05735137  1  -0.244111  0  -0.199975  -0.356073  0  2.353884  0
S  S150  1  0.10018804  0.06619919  0.12120263  1  -0.271378  0  -0.19851  -0.378614  0  2.383996  0
S  S151  1  0.60018643  0.43379586  0.87879477  1  -0.271267  0  -0.198484  -0.378535  0  2.38406  0
S  S152  1  0.89980220  0.93379892  0.87878502  1  -0.271786  0  -0.198621  -0.378708  0  2.383897  0
S  S153  1  0.39980802  0.56621131  0.12120968  1  -0.271496  0  -0.198561  -0.378642  0  2.38406  0
N  N154  1  0.80590330  0.14174961  0.18077779  1  -1.136293  0  -0.272475  -0.030743  0  3.636105  0
N  N155  1  0.30590080  0.35826459  0.81922057  1  -1.13679  0  -0.272431  -0.030507  0  3.636214  0
N  N156  1  0.19409116  0.85823604  0.81921944  1  -1.136956  0  -0.27247  -0.030912  0  3.635832  0
N  N157  1  0.69408944  0.64175079  0.18078229  1  -1.136938  0  -0.272421  -0.030595  0  3.63613  0
N  N158  1  0.54429357  0.39039695  0.06376602  1  -1.226458  0  -0.320294  -0.2041  0  3.574334  0
N  N159  1  0.04426677  0.10961974  0.93623018  1  -1.227893  0  -0.320363  -0.204273  0  3.574052  0
N  N160  1  0.45571916  0.60960214  0.93623199  1  -1.228057  0  -0.32032  -0.20418  0  3.574333  0
N  N161  1  0.95572066  0.89038441  0.06374666  1  -1.228245  0  -0.320345  -0.204118  0  3.574032  0
