# generated using pymatgen
data_Ag2H12C7(SO5)2
_symmetry_space_group_name_H-M   'P 1'
_cell_length_a   7.51293808
_cell_length_b   8.42012142
_cell_length_c   11.08679864
_cell_angle_alpha   104.65365505
_cell_angle_beta   101.13288089
_cell_angle_gamma   90.46191051
_symmetry_Int_Tables_number   1
_chemical_formula_structural   Ag2H12C7(SO5)2
_chemical_formula_sum   'Ag4 H24 C14 S4 O20'
_cell_volume   664.57012477
_cell_formula_units_Z   2
loop_
 _symmetry_equiv_pos_site_id
 _symmetry_equiv_pos_as_xyz
  1  'x, y, z'
loop_
 _atom_site_type_symbol
 _atom_site_label
 _atom_site_symmetry_multiplicity
 _atom_site_fract_x
 _atom_site_fract_y
 _atom_site_fract_z
 _atom_site_occupancy
 _atom_site_hle17_bader_spin_density
 _atom_site_hle17_ddec_charge
 _atom_site_hle17_ddec_spin_density
 _atom_site_hle17_ddec_sum_bond_order
 _atom_site_hle17_magmom
 _atom_site_hse06_10hf_bader_spin_density
 _atom_site_hse06_10hf_ddec_charge
 _atom_site_hse06_10hf_ddec_spin_density
 _atom_site_hse06_10hf_ddec_sum_bond_order
 _atom_site_hse06_10hf_magmom
 _atom_site_hse06_bader_spin_density
 _atom_site_hse06_ddec_charge
 _atom_site_hse06_ddec_spin_density
 _atom_site_hse06_ddec_sum_bond_order
 _atom_site_hse06_magmom
 _atom_site_pbe_bader_spin_density
 _atom_site_pbe_cm5_charge
 _atom_site_pbe_ddec_charge
 _atom_site_pbe_ddec_spin_density
 _atom_site_pbe_ddec_sum_bond_order
 _atom_site_pbe_magmom
Ag  Ag0  1  0.45961855  0.30704209  0.20111177  1  0  0.73349  0  1.114185  0  0  0.628907  0  1.50909  0  0  0.659791  0  1.455922  0  0  0.455312  0.605939  0  1.546762  0
Ag  Ag1  1  0.54038421  0.69295871  0.79888859  1  0  0.733517  0  1.114188  0  0  0.628932  0  1.509085  0  0  0.659815  0  1.455917  0  0  0.45532  0.605963  0  1.546767  0
Ag  Ag2  1  0.21545367  0.60231111  0.04791122  1  0  0.724717  0  1.086893  0  0  0.622213  0  1.48119  0  0  0.653639  0  1.427578  0  0  0.429089  0.598898  0  1.519175  0
Ag  Ag3  1  0.78454210  0.39768731  0.95208860  1  0  0.724695  0  1.086905  0  0  0.622209  0  1.48119  0  0  0.653635  0  1.427578  0  0  0.429092  0.598893  0  1.519175  0
H  H4  1  0.36552195  0.29618148  0.92528396  1  0  0.42406  0  0.880346  0  0  0.39553  0  0.940462  0  0  0.405275  0  0.926276  0  0  0.292089  0.388608  0  0.950512  0
H  H5  1  0.63447624  0.70381322  0.07471456  1  0  0.424021  0  0.880405  0  0  0.395486  0  0.940531  0  0  0.405232  0  0.926344  0  0  0.292075  0.388564  0  0.95058  0
H  H6  1  0.17842104  0.24329881  0.95364560  1  0  0.440398  0  0.850995  0  0  0.412974  0  0.907476  0  0  0.422662  0  0.89348  0  0  0.297966  0.406078  0  0.91741  0
H  H7  1  0.82158134  0.75669708  0.04635284  1  0  0.440399  0  0.850986  0  0  0.412968  0  0.907479  0  0  0.422657  0  0.893482  0  0  0.297971  0.406073  0  0.917412  0
H  H8  1  0.79702597  0.16925597  0.12366581  1  0  0.425491  0  0.877753  0  0  0.3972  0  0.937063  0  0  0.406862  0  0.923041  0  0  0.291991  0.39039  0  0.946911  0
H  H9  1  0.20297346  0.83073748  0.87633355  1  0  0.425516  0  0.877713  0  0  0.397233  0  0.93701  0  0  0.406894  0  0.92299  0  0  0.29202  0.390424  0  0.946856  0
H  H10  1  0.65395060  0.10353053  0.99791113  1  0  0.435967  0  0.855407  0  0  0.41088  0  0.908144  0  0  0.420564  0  0.894068  0  0  0.297011  0.403974  0  0.91816  0
H  H11  1  0.34604893  0.89646414  0.00208847  1  0  0.436023  0  0.855346  0  0  0.410932  0  0.908096  0  0  0.420618  0  0.894019  0  0  0.297045  0.404026  0  0.918113  0
H  H12  1  0.06445259  0.48519978  0.79315281  1  0  0.437089  0  0.862791  0  0  0.411598  0  0.917081  0  0  0.420938  0  0.903494  0  0  0.296542  0.404981  0  0.926678  0
H  H13  1  0.93554487  0.51480233  0.20684617  1  0  0.437067  0  0.862821  0  0  0.411573  0  0.917115  0  0  0.420914  0  0.903527  0  0  0.296519  0.404956  0  0.926712  0
H  H14  1  0.95560459  0.64453687  0.82582287  1  0  0.431039  0  0.864899  0  0  0.402295  0  0.924955  0  0  0.412178  0  0.910467  0  0  0.295798  0.395286  0  0.935207  0
H  H15  1  0.04439566  0.35546642  0.17417763  1  0  0.431046  0  0.864898  0  0  0.402294  0  0.924969  0  0  0.412178  0  0.910478  0  0  0.295788  0.395283  0  0.935224  0
H  H16  1  0.40671984  0.36130382  0.48348475  1  0  0.39343  0  0.866681  0  0  0.370866  0  0.931579  0  0  0.38081  0  0.921189  0  0  0.314901  0.363861  0  0.938803  0
H  H17  1  0.59327886  0.63869703  0.51651505  1  0  0.393403  0  0.866703  0  0  0.370844  0  0.931587  0  0  0.380787  0  0.921202  0  0  0.31489  0.363838  0  0.938809  0
H  H18  1  0.32878569  0.99432665  0.70654195  1  0  0.114517  0  0.935544  0  0  0.124014  0  0.998187  0  0  0.128212  0  0.994129  0  0  0.107028  0.120913  0  1.001197  0
H  H19  1  0.67121053  0.00567671  0.29345620  1  0  0.114512  0  0.9355  0  0  0.12403  0  0.998133  0  0  0.12823  0  0.994071  0  0  0.107037  0.120921  0  1.001157  0
H  H20  1  0.10068254  0.75621202  0.31400364  1  0  0.11477  0  0.96136  0  0  0.121879  0  1.029038  0  0  0.125521  0  1.02572  0  0  0.107104  0.119221  0  1.031475  0
H  H21  1  0.89932021  0.24378877  0.68599762  1  0  0.114742  0  0.961387  0  0  0.121844  0  1.029084  0  0  0.125486  0  1.025767  0  0  0.107087  0.119188  0  1.031521  0
H  H22  1  0.03890988  0.69668029  0.57540560  1  0  0.123444  0  0.949583  0  0  0.142873  0  1.009627  0  0  0.144353  0  1.009973  0  0  0.090559  0.1417  0  1.009503  0
H  H23  1  0.96108874  0.30331934  0.42459305  1  0  0.123454  0  0.949569  0  0  0.142883  0  1.009607  0  0  0.144362  0  1.009953  0  0  0.090568  0.141705  0  1.009485  0
H  H24  1  0.27293668  0.68255310  0.63067000  1  0  0.076383  0  1.017114  0  0  0.087664  0  1.107552  0  0  0.090492  0  1.103556  0  0  0.070743  0.085575  0  1.11047  0
H  H25  1  0.72706066  0.31744777  0.36932962  1  0  0.076416  0  1.01708  0  0  0.087679  0  1.107526  0  0  0.090508  0  1.10353  0  0  0.070748  0.08559  0  1.110443  0
H  H26  1  0.17247342  0.58987896  0.46852523  1  0  0.123213  0  0.937299  0  0  0.145437  0  0.991949  0  0  0.14768  0  0.991136  0  0  0.092824  0.143743  0  0.992623  0
H  H27  1  0.82752673  0.41012310  0.53147502  1  0  0.123215  0  0.937292  0  0  0.145436  0  0.991934  0  0  0.147678  0  0.991121  0  0  0.092827  0.143741  0  0.992609  0
C  C28  1  0.20402520  0.00556474  0.35331182  1  0  -0.233687  0  3.720356  0  0  -0.212122  0  3.980746  0  0  -0.224029  0  4.001987  0  0  -0.032385  -0.204529  0  3.966767  0
C  C29  1  0.79597356  0.99443732  0.64669003  1  0  -0.233607  0  3.720304  0  0  -0.212108  0  3.980785  0  0  -0.224012  0  4.002024  0  0  -0.032367  -0.204514  0  3.966806  0
C  C30  1  0.29039982  0.14610041  0.44484280  1  0  0.334535  0  3.799061  0  0  0.307179  0  4.062897  0  0  0.3221  0  4.078113  0  0  0.091418  0.297075  0  4.052583  0
C  C31  1  0.70960422  0.85389915  0.55515660  1  0  0.334407  0  3.799111  0  0  0.307082  0  4.062951  0  0  0.322003  0  4.078167  0  0  0.091389  0.296978  0  4.052637  0
C  C32  1  0.32830462  0.13921209  0.57276905  1  0  -0.244106  0  3.745857  0  0  -0.218779  0  4.001615  0  0  -0.231345  0  4.024074  0  0  -0.033764  -0.210657  0  3.986692  0
C  C33  1  0.67170093  0.86078990  0.42723283  1  0  -0.244128  0  3.745842  0  0  -0.218868  0  4.001701  0  0  -0.231432  0  4.024151  0  0  -0.033814  -0.210746  0  3.986775  0
C  C34  1  0.29265355  0.99474694  0.60647604  1  0  -0.075382  0  3.685096  0  0  -0.113198  0  3.938972  0  0  -0.109647  0  3.956669  0  0  -0.080781  -0.115247  0  3.927072  0
C  C35  1  0.70735208  0.00525507  0.39352226  1  0  -0.075284  0  3.684972  0  0  -0.113107  0  3.938844  0  0  -0.109556  0  3.956542  0  0  -0.080733  -0.115153  0  3.926952  0
C  C36  1  0.21245160  0.85358601  0.51442620  1  0  0.137594  0  3.731162  0  0  0.161991  0  3.976347  0  0  0.159319  0  4.001491  0  0  -0.013013  0.163388  0  3.959414  0
C  C37  1  0.78754994  0.14641605  0.48557244  1  0  0.137531  0  3.731152  0  0  0.161944  0  3.976322  0  0  0.159273  0  4.001466  0  0  -0.013039  0.163342  0  3.959386  0
C  C38  1  0.16622600  0.86283438  0.38792464  1  0  -0.072901  0  3.684295  0  0  -0.111573  0  3.939974  0  0  -0.107266  0  3.957165  0  0  -0.079322  -0.114151  0  3.928436  0
C  C39  1  0.83377140  0.13716770  0.61207703  1  0  -0.072836  0  3.684232  0  0  -0.111501  0  3.939909  0  0  -0.107193  0  3.957095  0  0  -0.079295  -0.114077  0  3.92837  0
C  C40  1  0.17207301  0.69747694  0.54848415  1  0  -0.316701  0  3.687556  0  0  -0.394425  0  3.925909  0  0  -0.397347  0  3.934914  0  0  -0.24294  -0.392037  0  3.919842  0
C  C41  1  0.82792552  0.30252147  0.45151334  1  0  -0.316744  0  3.687567  0  0  -0.394442  0  3.925914  0  0  -0.397363  0  3.934919  0  0  -0.242944  -0.392051  0  3.919849  0
S  S42  1  0.13578491  0.01164974  0.19218992  1  0  1.361188  0  5.558779  0  0  1.251822  0  6.075802  0  0  1.300746  0  6.052796  0  0  0.528969  1.218136  0  6.09057  0
S  S43  1  0.86421241  0.98835112  0.80781059  1  0  1.361214  0  5.558715  0  0  1.251887  0  6.07572  0  0  1.300807  0  6.052715  0  0  0.528998  1.218203  0  6.090486  0
S  S44  1  0.39391254  0.32339413  0.69391393  1  0  1.301992  0  5.644566  0  0  1.198588  0  6.156118  0  0  1.2469  0  6.134323  0  0  0.512134  1.165275  0  6.169981  0
S  S45  1  0.60608739  0.67660546  0.30608670  1  0  1.301862  0  5.644389  0  0  1.198462  0  6.155981  0  0  1.246772  0  6.134191  0  0  0.512038  1.16515  0  6.16984  0
O  O46  1  0.29074321  0.31467906  0.99155238  1  0  -0.855509  0  1.957941  0  0  -0.783445  0  2.180291  0  0  -0.8089  0  2.144405  0  0  -0.587402  -0.765039  0  2.20519  0
O  O47  1  0.70925651  0.68531808  0.00844774  1  0  -0.85546  0  1.957974  0  0  -0.78339  0  2.180326  0  0  -0.808845  0  2.144439  0  0  -0.587405  -0.764982  0  2.205225  0
O  O48  1  0.30297556  0.03602699  0.14578885  1  0  -0.691474  0  2.066139  0  0  -0.626341  0  2.340935  0  0  -0.650556  0  2.323038  0  0  -0.336091  -0.609127  0  2.352716  0
O  O49  1  0.69702419  0.96397016  0.85421037  1  0  -0.691501  0  2.066286  0  0  -0.626354  0  2.34106  0  0  -0.650571  0  2.323165  0  0  -0.336093  -0.609137  0  2.352841  0
O  O50  1  0.67732436  0.19229826  0.07777250  1  0  -0.860947  0  1.916784  0  0  -0.793818  0  2.130141  0  0  -0.818142  0  2.093998  0  0  -0.589706  -0.776168  0  2.15527  0
O  O51  1  0.32267350  0.80769273  0.92222706  1  0  -0.86103  0  1.916747  0  0  -0.793897  0  2.130054  0  0  -0.818221  0  2.093909  0  0  -0.589756  -0.776247  0  2.155183  0
O  O52  1  0.03740807  0.85287778  0.12388905  1  0  -0.68604  0  2.054553  0  0  -0.618866  0  2.321735  0  0  -0.642151  0  2.304096  0  0  -0.329562  -0.602407  0  2.333433  0
O  O53  1  0.96259050  0.14712184  0.87611139  1  0  -0.685985  0  2.05448  0  0  -0.618849  0  2.321686  0  0  -0.642129  0  2.304044  0  0  -0.329557  -0.602388  0  2.33338  0
O  O54  1  0.97732006  0.53737670  0.84510223  1  0  -0.864684  0  1.909848  0  0  -0.802254  0  2.128888  0  0  -0.825922  0  2.092761  0  0  -0.592845  -0.785055  0  2.153963  0
O  O55  1  0.02267876  0.46262539  0.15489693  1  0  -0.864666  0  1.909884  0  0  -0.802226  0  2.128918  0  0  -0.825894  0  2.092792  0  0  -0.592805  -0.785026  0  2.153994  0
O  O56  1  0.01858459  0.15159997  0.19394926  1  0  -0.68578  0  2.034635  0  0  -0.616283  0  2.275257  0  0  -0.639716  0  2.260955  0  0  -0.325313  -0.599955  0  2.284786  0
O  O57  1  0.98141399  0.84839965  0.80605119  1  0  -0.68583  0  2.034524  0  0  -0.616344  0  2.275137  0  0  -0.639775  0  2.260834  0  0  -0.325332  -0.600018  0  2.284671  0
O  O58  1  0.22518559  0.40355071  0.71088848  1  0  -0.660449  0  2.011356  0  0  -0.600962  0  2.258962  0  0  -0.623945  0  2.245555  0  0  -0.326214  -0.584678  0  2.267518  0
O  O59  1  0.77481285  0.59644765  0.28911350  1  0  -0.660406  0  2.011307  0  0  -0.600908  0  2.258899  0  0  -0.623898  0  2.245508  0  0  -0.326215  -0.584623  0  2.26745  0
O  O60  1  0.49036965  0.27820237  0.80845837  1  0  -0.679553  0  2.098434  0  0  -0.614116  0  2.373504  0  0  -0.637759  0  2.356049  0  0  -0.326639  -0.597369  0  2.385017  0
O  O61  1  0.50963187  0.72179968  0.19154117  1  0  -0.679545  0  2.098413  0  0  -0.614096  0  2.373475  0  0  -0.637738  0  2.356021  0  0  -0.326638  -0.597348  0  2.38499  0
O  O62  1  0.51403516  0.42232020  0.64411210  1  0  -0.682835  0  2.029505  0  0  -0.614212  0  2.292298  0  0  -0.638866  0  2.277759  0  0  -0.331111  -0.596688  0  2.301698  0
O  O63  1  0.48595967  0.57768316  0.35588765  1  0  -0.682751  0  2.029409  0  0  -0.614118  0  2.292189  0  0  -0.638773  0  2.277653  0  0  -0.331011  -0.596596  0  2.301586  0
O  O64  1  0.33160961  0.28189601  0.40806486  1  0  -0.523299  0  2.18818  0  0  -0.473552  0  2.42982  0  0  -0.492489  0  2.417742  0  0  -0.344408  -0.45997  0  2.437793  0
O  O65  1  0.66838899  0.71810361  0.59193469  1  0  -0.52324  0  2.188192  0  0  -0.473474  0  2.429803  0  0  -0.492412  0  2.417725  0  0  -0.344393  -0.459892  0  2.437775  0
