# generated using pymatgen
data_SmH24C25S2N3O8
_symmetry_space_group_name_H-M   'P 1'
_cell_length_a   16.13955857
_cell_length_b   16.13949842
_cell_length_c   27.95061053
_cell_angle_alpha   80.33717652
_cell_angle_beta   80.33708084
_cell_angle_gamma   62.78455561
_symmetry_Int_Tables_number   1
_chemical_formula_structural   SmH24C25S2N3O8
_chemical_formula_sum   'Sm4 H96 C100 S8 N12 O32'
_cell_volume   6348.26938490
_cell_formula_units_Z   4
loop_
 _symmetry_equiv_pos_site_id
 _symmetry_equiv_pos_as_xyz
  1  'x, y, z'
loop_
 _atom_site_type_symbol
 _atom_site_label
 _atom_site_symmetry_multiplicity
 _atom_site_fract_x
 _atom_site_fract_y
 _atom_site_fract_z
 _atom_site_occupancy
 _atom_site_pbe_bader_charge
 _atom_site_pbe_bader_spin_density
 _atom_site_pbe_cm5_charge
 _atom_site_pbe_ddec_charge
 _atom_site_pbe_ddec_spin_density
 _atom_site_pbe_ddec_sum_bond_order
 _atom_site_pbe_magmom
Sm  Sm0  1  0.52965674  0.06614047  0.04503049  1  2.220117  0  1.487231  2.091128  0  2.144831  0
Sm  Sm1  1  0.93385996  0.47034331  0.45496990  1  2.220176  0  1.487213  2.091109  0  2.144861  0
Sm  Sm2  1  0.47034491  0.93385976  0.95497032  1  2.220177  0  1.487246  2.091169  0  2.144921  0
Sm  Sm3  1  0.06613818  0.52965719  0.54502980  1  2.220184  0  1.487227  2.09118  0  2.144904  0
H  H4  1  0.62996768  0.06312511  0.20393917  1  0.074354  0  0.102757  0.108602  0  1.000287  0
H  H5  1  0.93687510  0.37003156  0.29606161  1  0.072784  0  0.102753  0.108581  0  1.000308  0
H  H6  1  0.37003257  0.93687574  0.79606136  1  0.072744  0  0.102775  0.108632  0  1.00028  0
H  H7  1  0.06312585  0.62996835  0.70393895  1  0.074381  0  0.102744  0.108545  0  1.000301  0
H  H8  1  0.70965808  0.10584362  0.25949934  1  0.067478  0  0.103141  0.103506  0  1.02121  0
H  H9  1  0.89415739  0.29034124  0.24050133  1  0.067478  0  0.103138  0.103506  0  1.021181  0
H  H10  1  0.29034287  0.89415691  0.74050080  1  0.067455  0  0.103138  0.103453  0  1.021187  0
H  H11  1  0.10584426  0.70965899  0.75949912  1  0.067478  0  0.103116  0.10344  0  1.021209  0
H  H12  1  0.84791861  0.20307566  0.13410627  1  0.076355  0  0.107122  0.109963  0  0.995101  0
H  H13  1  0.79692344  0.15208135  0.36589378  1  0.076333  0  0.107141  0.110028  0  0.995068  0
H  H14  1  0.15208234  0.79692424  0.86589357  1  0.076374  0  0.107131  0.109994  0  0.995084  0
H  H15  1  0.20307751  0.84791855  0.63410606  1  0.076701  0  0.107136  0.110012  0  0.995062  0
H  H16  1  0.76748727  0.16016843  0.07864491  1  0.073073  0  0.107159  0.116152  0  0.990567  0
H  H17  1  0.83983052  0.23251246  0.42135556  1  0.073038  0  0.107135  0.116112  0  0.990579  0
H  H18  1  0.23251298  0.83983116  0.92135503  1  0.073059  0  0.107156  0.116175  0  0.990535  0
H  H19  1  0.16016973  0.76748650  0.57864480  1  0.073051  0  0.107161  0.116177  0  0.990558  0
H  H20  1  0.31684407  0.83100983  0.08341410  1  0.088997  0  0.102939  0.102836  0  1.020429  0
H  H21  1  0.16899309  0.68315456  0.41658503  1  0.089022  0  0.102936  0.102822  0  1.020445  0
H  H22  1  0.68315267  0.16899317  0.91658585  1  0.089002  0  0.102947  0.102843  0  1.020414  0
H  H23  1  0.83100786  0.31684408  0.58341458  1  0.088989  0  0.102933  0.102851  0  1.020417  0
H  H24  1  0.24454216  0.76762374  0.15863680  1  0.085193  0  0.101709  0.102626  0  1.020854  0
H  H25  1  0.23237814  0.75545678  0.34136205  1  0.085198  0  0.101741  0.102685  0  1.02083  0
H  H26  1  0.75545739  0.23237677  0.84136276  1  0.085194  0  0.101732  0.102693  0  1.020811  0
H  H27  1  0.76762211  0.24454217  0.65863759  1  0.085156  0  0.101736  0.102671  0  1.020807  0
H  H28  1  0.37441141  0.85551420  0.24876486  1  0.051577  0  0.101492  0.10172  0  1.004321  0
H  H29  1  0.14448351  0.62559044  0.25123409  1  0.051535  0  0.101482  0.101693  0  1.004235  0
H  H30  1  0.62559165  0.14448226  0.75123475  1  0.051552  0  0.101477  0.101732  0  1.004267  0
H  H31  1  0.85551744  0.37440820  0.74876516  1  0.051565  0  0.101475  0.10171  0  1.004291  0
H  H32  1  0.44715120  0.91869559  0.17293493  1  0.097387  0  0.10946  0.116756  0  0.997224  0
H  H33  1  0.08130337  0.55284989  0.32706433  1  0.09738  0  0.109468  0.116773  0  0.997196  0
H  H34  1  0.55285045  0.08130211  0.82706434  1  0.097382  0  0.10946  0.116751  0  0.997199  0
H  H35  1  0.91869758  0.44714938  0.67293486  1  0.097405  0  0.109458  0.116742  0  0.997253  0
H  H36  1  0.83513285  0.79809272  0.05673190  1  0.105598  0  0.110607  0.1185  0  0.985967  0
H  H37  1  0.20190953  0.16486856  0.44326810  1  0.105634  0  0.110577  0.118408  0  0.986094  0
H  H38  1  0.16486879  0.20190813  0.94326778  1  0.105622  0  0.110596  0.118414  0  0.986041  0
H  H39  1  0.79808932  0.83513289  0.55673216  1  0.105653  0  0.11061  0.11846  0  0.986058  0
H  H40  1  0.96760217  0.63730037  0.04559252  1  0.085908  0  0.101642  0.101879  0  1.023846  0
H  H41  1  0.36270112  0.03239934  0.45440699  1  0.085988  0  0.10165  0.101883  0  1.023779  0
H  H42  1  0.03239947  0.36269985  0.95440722  1  0.085954  0  0.101642  0.101906  0  1.023717  0
H  H43  1  0.63729772  0.96760211  0.54559290  1  0.085912  0  0.10163  0.101845  0  1.023811  0
H  H44  1  0.80251576  0.58414245  0.96032808  1  0.053505  0  0.095973  0.089974  0  1.026169  0
H  H45  1  0.41585691  0.19748774  0.53967239  1  0.053427  0  0.095955  0.089962  0  1.026132  0
H  H46  1  0.19748449  0.41585714  0.03967294  1  0.053473  0  0.09597  0.08995  0  1.026221  0
H  H47  1  0.58414193  0.80251435  0.46032744  1  0.053463  0  0.095997  0.090013  0  1.026115  0
H  H48  1  0.67135315  0.74566613  0.97010521  1  0.144964  0  0.106407  0.113772  0  1.067092  0
H  H49  1  0.25433263  0.32864925  0.52989491  1  0.145128  0  0.106422  0.113877  0  1.067101  0
H  H50  1  0.32864641  0.25433377  0.02989584  1  0.145171  0  0.106394  0.113835  0  1.06708  0
H  H51  1  0.74566551  0.67135252  0.47010502  1  0.144908  0  0.106392  0.113803  0  1.067073  0
H  H52  1  0.28116256  0.35533985  0.11306285  1  0.085357  0  0.10684  0.166587  0  0.986955  0
H  H53  1  0.64466002  0.71883653  0.38693732  1  0.085346  0  0.106833  0.166577  0  0.98696  0
H  H54  1  0.71883559  0.64466003  0.88693762  1  0.085332  0  0.106853  0.166592  0  0.986895  0
H  H55  1  0.35534023  0.28116305  0.61306226  1  0.085324  0  0.10685  0.166575  0  0.986938  0
H  H56  1  0.28523448  0.34503436  0.17772608  1  0.064034  0  0.106848  0.16102  0  0.980083  0
H  H57  1  0.65496653  0.71476354  0.32227409  1  0.064036  0  0.10685  0.161048  0  0.980034  0
H  H58  1  0.71476297  0.65496582  0.82227408  1  0.064025  0  0.106838  0.161034  0  0.980033  0
H  H59  1  0.34503372  0.28523604  0.67772549  1  0.064053  0  0.106854  0.161049  0  0.980042  0
H  H60  1  0.23111659  0.28672843  0.15319535  1  0.102391  0  0.111922  0.173446  0  0.96809  0
H  H61  1  0.71327093  0.76888291  0.34680482  1  0.102419  0  0.111879  0.17337  0  0.968043  0
H  H62  1  0.76888156  0.71327144  0.84680477  1  0.102441  0  0.111903  0.173398  0  0.968029  0
H  H63  1  0.28672932  0.23111667  0.65319512  1  0.102411  0  0.111935  0.173474  0  0.968068  0
H  H64  1  0.32501108  0.13510757  0.20218020  1  0.089779  0  0.111142  0.170253  0  0.970491  0
H  H65  1  0.86489102  0.67498821  0.29781955  1  0.089788  0  0.111128  0.170233  0  0.970572  0
H  H66  1  0.67498777  0.86489137  0.79782030  1  0.089788  0  0.11114  0.170254  0  0.970557  0
H  H67  1  0.13510783  0.32501135  0.70217946  1  0.089588  0  0.111144  0.170236  0  0.970523  0
H  H68  1  0.38943200  0.18123074  0.22789371  1  0.066215  0  0.107544  0.161433  0  0.979096  0
H  H69  1  0.81876909  0.61056575  0.27210678  1  0.066121  0  0.107507  0.161351  0  0.97918  0
H  H70  1  0.61056615  0.81876976  0.77210706  1  0.066222  0  0.107493  0.161343  0  0.979133  0
H  H71  1  0.18123047  0.38943225  0.72789303  1  0.066233  0  0.10753  0.1614  0  0.979151  0
H  H72  1  0.45162374  0.07599774  0.19760386  1  0.125494  0  0.116739  0.18391  0  0.975214  0
H  H73  1  0.92400213  0.54837476  0.30239643  1  0.125518  0  0.11675  0.183936  0  0.975201  0
H  H74  1  0.54837511  0.92400246  0.80239651  1  0.125488  0  0.116744  0.183892  0  0.975279  0
H  H75  1  0.07599812  0.45162419  0.69760357  1  0.125496  0  0.116746  0.18389  0  0.975231  0
H  H76  1  0.46813165  0.40340479  0.05469600  1  0.076752  0  0.101476  0.155512  0  0.988873  0
H  H77  1  0.59659674  0.53186811  0.44530350  1  0.076768  0  0.101493  0.155504  0  0.988889  0
H  H78  1  0.53186719  0.59659666  0.94530354  1  0.076768  0  0.10147  0.155495  0  0.988912  0
H  H79  1  0.40340420  0.46813179  0.55469599  1  0.076761  0  0.101453  0.155441  0  0.988926  0
H  H80  1  0.57924218  0.39648277  0.02433282  1  0.060755  0  0.102211  0.155805  0  0.990705  0
H  H81  1  0.60351842  0.42075710  0.47566668  1  0.060788  0  0.102204  0.155793  0  0.990676  0
H  H82  1  0.42075737  0.60351838  0.97566704  1  0.060782  0  0.102199  0.155784  0  0.99069  0
H  H83  1  0.39648183  0.57924248  0.52433254  1  0.060782  0  0.10219  0.155762  0  0.990716  0
H  H84  1  0.57704688  0.31076815  0.07399207  1  0.096034  0  0.111315  0.174641  0  0.990148  0
H  H85  1  0.68923348  0.42295242  0.42600769  1  0.096004  0  0.1113  0.174601  0  0.990182  0
H  H86  1  0.42295266  0.68923300  0.92600779  1  0.096017  0  0.111308  0.174604  0  0.990199  0
H  H87  1  0.31076817  0.57704655  0.57399218  1  0.096032  0  0.111312  0.174602  0  0.990172  0
H  H88  1  0.46802889  0.33392681  0.92931833  1  0.098312  0  0.11694  0.18281  0  0.961448  0
H  H89  1  0.66607316  0.53197161  0.57068136  1  0.098319  0  0.116946  0.182802  0  0.961472  0
H  H90  1  0.53197135  0.66607340  0.07068155  1  0.098316  0  0.11692  0.182767  0  0.961451  0
H  H91  1  0.33392708  0.46802860  0.42931852  1  0.098315  0  0.116937  0.182804  0  0.961461  0
H  H92  1  0.51700785  0.40863112  0.93925200  1  0.066028  0  0.103648  0.156772  0  0.989271  0
H  H93  1  0.59136953  0.48299199  0.56074771  1  0.066037  0  0.103659  0.156781  0  0.98928  0
H  H94  1  0.48299239  0.59136910  0.06074752  1  0.066036  0  0.10366  0.156785  0  0.989257  0
H  H95  1  0.40863072  0.51700696  0.43925230  1  0.066044  0  0.103661  0.156793  0  0.989254  0
H  H96  1  0.40787737  0.41731294  0.97358954  1  0.080085  0  0.104798  0.162946  0  0.981325  0
H  H97  1  0.58268745  0.59212293  0.52641022  1  0.080046  0  0.104805  0.162965  0  0.981409  0
H  H98  1  0.59212287  0.58268728  0.02640998  1  0.080082  0  0.104825  0.162986  0  0.981385  0
H  H99  1  0.41731210  0.40787696  0.47358940  1  0.080056  0  0.104794  0.162949  0  0.981335  0
C  C100  1  0.64035928  0.09222284  0.10588064  1  1.546533  0  0.185211  0.560816  0  4.259758  0
C  C101  1  0.90777751  0.35963936  0.39412019  1  1.546511  0  0.185242  0.560776  0  4.259855  0
C  C102  1  0.35964097  0.90777737  0.89411995  1  1.546441  0  0.185265  0.560769  0  4.259797  0
C  C103  1  0.09222135  0.64035958  0.60588102  1  1.546461  0  0.185153  0.56069  0  4.259706  0
C  C104  1  0.69339005  0.11078134  0.13839107  1  -0.039989  0  -0.012484  -0.0139  0  3.94467  0
C  C105  1  0.88921776  0.30660921  0.36160981  1  -0.039969  0  -0.012487  -0.013898  0  3.944724  0
C  C106  1  0.30661020  0.88921887  0.86160952  1  -0.039907  0  -0.01254  -0.013808  0  3.944777  0
C  C107  1  0.11078179  0.69339006  0.63839059  1  -0.039902  0  -0.01252  -0.013948  0  3.944688  0
C  C108  1  0.67799536  0.09378297  0.18933611  1  -0.008983  0  -0.085489  -0.088982  0  3.98445  0
C  C109  1  0.90621661  0.32200374  0.31066509  1  -0.00754  0  -0.085454  -0.088934  0  3.984455  0
C  C110  1  0.32200489  0.90621725  0.81066448  1  -0.007394  0  -0.085517  -0.089177  0  3.984531  0
C  C111  1  0.09378364  0.67799584  0.68933557  1  -0.008991  0  -0.085413  -0.088841  0  3.984341  0
C  C112  1  0.72189414  0.11678497  0.21991451  1  -0.017674  0  -0.086953  -0.144449  0  3.960616  0
C  C113  1  0.88321532  0.27810509  0.28008624  1  -0.017474  0  -0.086937  -0.144445  0  3.960576  0
C  C114  1  0.27810681  0.88321556  0.78008599  1  -0.017667  0  -0.086907  -0.144261  0  3.960513  0
C  C115  1  0.11678564  0.72189418  0.71991438  1  -0.017648  0  -0.086937  -0.144385  0  3.960508  0
C  C116  1  0.78245376  0.15749937  0.19955909  1  0.347209  0  0.084888  0.169906  0  4.049674  0
C  C117  1  0.84249989  0.21754613  0.30044132  1  0.347195  0  0.084876  0.169956  0  4.049637  0
C  C118  1  0.21754719  0.84250053  0.80044111  1  0.347291  0  0.084833  0.169858  0  4.049664  0
C  C119  1  0.15750106  0.78245377  0.69955888  1  0.347214  0  0.084869  0.169925  0  4.049559  0
C  C120  1  0.80002640  0.17219205  0.14865240  1  -0.119331  0  -0.081989  -0.143574  0  3.967241  0
C  C121  1  0.82780644  0.19997383  0.35134769  1  -0.119234  0  -0.082039  -0.143744  0  3.967303  0
C  C122  1  0.19997525  0.82780692  0.85134782  1  -0.119269  0  -0.082  -0.14362  0  3.967216  0
C  C123  1  0.17219381  0.80002575  0.64865189  1  -0.11959  0  -0.082014  -0.143667  0  3.967235  0
C  C124  1  0.75568051  0.14887967  0.11824635  1  0.060681  0  -0.085617  -0.092216  0  3.978605  0
C  C125  1  0.85111871  0.24431868  0.38175423  1  0.060572  0  -0.085623  -0.092158  0  3.978593  0
C  C126  1  0.24432044  0.85111960  0.88175355  1  0.060472  0  -0.085598  -0.092279  0  3.97859  0
C  C127  1  0.14888154  0.75567965  0.61824620  1  0.0605  0  -0.08565  -0.092262  0  3.978614  0
C  C128  1  0.43035375  0.91486164  0.07975818  1  1.598939  0  0.232453  0.643264  0  4.161247  0
C  C129  1  0.08513848  0.56964666  0.42024140  1  1.598934  0  0.232433  0.643242  0  4.161321  0
C  C130  1  0.56964649  0.08514172  0.92024282  1  1.598924  0  0.23245  0.643045  0  4.161281  0
C  C131  1  0.91485967  0.43035132  0.57975712  1  1.598939  0  0.232523  0.643283  0  4.161095  0
C  C132  1  0.38704067  0.87690522  0.12429421  1  -0.055718  0  -0.010435  -0.022938  0  3.9246  0
C  C133  1  0.12309667  0.61295763  0.37570540  1  -0.055727  0  -0.010491  -0.023026  0  3.924577  0
C  C134  1  0.61295818  0.12309498  0.87570545  1  -0.055722  0  -0.010459  -0.022861  0  3.924488  0
C  C135  1  0.87690498  0.38704008  0.62429423  1  -0.055683  0  -0.010449  -0.022939  0  3.924546  0
C  C136  1  0.32966015  0.83472257  0.11992715  1  -0.039671  0  -0.084642  -0.086924  0  3.981391  0
C  C137  1  0.16527984  0.67033844  0.38007239  1  -0.039667  0  -0.084585  -0.086824  0  3.981345  0
C  C138  1  0.67033939  0.16527984  0.88007258  1  -0.039644  0  -0.08459  -0.086847  0  3.981174  0
C  C139  1  0.83472041  0.32965988  0.61992732  1  -0.039677  0  -0.084602  -0.086905  0  3.981334  0
C  C140  1  0.28969488  0.79996752  0.16118861  1  -0.049397  0  -0.088264  -0.145118  0  3.956137  0
C  C141  1  0.20003549  0.71030254  0.33881063  1  -0.049386  0  -0.088361  -0.145237  0  3.956081  0
C  C142  1  0.71030397  0.20003330  0.83880991  1  -0.049372  0  -0.088419  -0.145374  0  3.956224  0
C  C143  1  0.79996617  0.28969517  0.66118864  1  -0.049408  0  -0.088307  -0.145162  0  3.956287  0
C  C144  1  0.30705349  0.80704363  0.20774322  1  0.352071  0  0.083256  0.170534  0  4.054508  0
C  C145  1  0.19295720  0.69294602  0.29225603  1  0.352063  0  0.083327  0.170508  0  4.054488  0
C  C146  1  0.69294676  0.19295595  0.79225637  1  0.352051  0  0.083371  0.170584  0  4.054518  0
C  C147  1  0.80704304  0.30705293  0.70774326  1  0.352087  0  0.083294  0.170563  0  4.054669  0
C  C148  1  0.36323861  0.85036048  0.21216353  1  -0.04969  0  -0.086424  -0.150283  0  3.984497  0
C  C149  1  0.14963968  0.63676200  0.28783566  1  -0.049695  0  -0.086456  -0.150251  0  3.984444  0
C  C150  1  0.63676234  0.14963690  0.78783620  1  -0.049714  0  -0.086415  -0.150275  0  3.984479  0
C  C151  1  0.85036127  0.36323727  0.71216388  1  -0.049682  0  -0.086443  -0.150319  0  3.984543  0
C  C152  1  0.40307338  0.88495095  0.17067893  1  0.008371  0  -0.083537  -0.087159  0  3.979502  0
C  C153  1  0.11504964  0.59692634  0.32932030  1  0.008416  0  -0.083489  -0.087104  0  3.979458  0
C  C154  1  0.59692687  0.11504864  0.82932101  1  0.008417  0  -0.083525  -0.08716  0  3.979573  0
C  C155  1  0.88495202  0.40307136  0.67067933  1  0.008385  0  -0.08352  -0.08714  0  3.979533  0
C  C156  1  0.66998643  0.87729782  0.01998962  1  1.562859  0  0.220261  0.625315  0  4.170962  0
C  C157  1  0.12270204  0.33001506  0.48001040  1  1.562913  0  0.220236  0.625292  0  4.171206  0
C  C158  1  0.33001522  0.12270304  0.98001148  1  1.562793  0  0.220266  0.625373  0  4.170992  0
C  C159  1  0.87729541  0.66998575  0.51998898  1  1.562765  0  0.220191  0.625239  0  4.171232  0
C  C160  1  0.74641442  0.78112761  0.01368835  1  -0.093072  0  -0.004975  -0.0126  0  3.915101  0
C  C161  1  0.21887128  0.25358867  0.48631186  1  -0.093206  0  -0.004931  -0.012497  0  3.914997  0
C  C162  1  0.25358724  0.21887199  0.98631253  1  -0.093076  0  -0.004894  -0.012415  0  3.914912  0
C  C163  1  0.78112687  0.74641247  0.51368849  1  -0.093535  0  -0.004913  -0.01247  0  3.914932  0
C  C164  1  0.82964585  0.75037992  0.03541194  1  0.022123  0  -0.076994  -0.078279  0  3.962285  0
C  C165  1  0.24962026  0.17035468  0.46458796  1  0.0222  0  -0.076994  -0.078205  0  3.962312  0
C  C166  1  0.17035580  0.24961968  0.96458858  1  0.02213  0  -0.077013  -0.078175  0  3.962375  0
C  C167  1  0.75037788  0.82964646  0.53541203  1  0.022727  0  -0.077039  -0.078297  0  3.962362  0
C  C168  1  0.90239083  0.66201340  0.02942178  1  -0.059263  0  -0.088203  -0.148597  0  3.963751  0
C  C169  1  0.33798801  0.09761196  0.47057838  1  -0.059375  0  -0.088211  -0.148637  0  3.963767  0
C  C170  1  0.09761151  0.33798715  0.97057857  1  -0.059183  0  -0.088263  -0.148778  0  3.963895  0
C  C171  1  0.66201083  0.90239013  0.52942145  1  -0.059511  0  -0.088179  -0.148565  0  3.963797  0
C  C172  1  0.89206196  0.60255969  0.00171132  1  0.363269  0  0.08283  0.169128  0  4.060375  0
C  C173  1  0.39744002  0.10793885  0.49828918  1  0.363296  0  0.082837  0.169153  0  4.060362  0
C  C174  1  0.10793900  0.39743959  0.99828966  1  0.363249  0  0.08288  0.169169  0  4.060344  0
C  C175  1  0.60255812  0.89206292  0.50171111  1  0.363423  0  0.082824  0.169143  0  4.060368  0
C  C176  1  0.80817493  0.63261363  0.98105435  1  -0.051375  0  -0.089746  -0.152264  0  3.984746  0
C  C177  1  0.36738527  0.19182672  0.51894603  1  -0.051715  0  -0.089821  -0.152339  0  3.984569  0
C  C178  1  0.19182602  0.36738502  0.01894705  1  -0.051743  0  -0.089776  -0.152228  0  3.984627  0
C  C179  1  0.63261288  0.80817441  0.48105361  1  -0.051626  0  -0.089801  -0.152358  0  3.984686  0
C  C180  1  0.73591577  0.72163690  0.98660665  1  -0.021191  0  -0.081754  -0.08338  0  3.955822  0
C  C181  1  0.27836187  0.26408783  0.51339330  1  -0.021006  0  -0.081694  -0.08345  0  3.955701  0
C  C182  1  0.26408588  0.27836207  0.01339393  1  -0.021113  0  -0.081725  -0.083501  0  3.95574  0
C  C183  1  0.72163627  0.73591393  0.48660664  1  -0.020894  0  -0.081686  -0.083355  0  3.955688  0
C  C184  1  0.28708913  0.30916897  0.14718430  1  -0.232319  0  -0.227762  -0.498238  0  3.837445  0
C  C185  1  0.69083121  0.71290940  0.35281587  1  -0.232313  0  -0.227718  -0.49818  0  3.83726  0
C  C186  1  0.71290832  0.69083184  0.85281580  1  -0.232301  0  -0.22773  -0.498199  0  3.837283  0
C  C187  1  0.30916834  0.28709048  0.64718376  1  -0.232295  0  -0.227778  -0.498279  0  3.837356  0
C  C188  1  0.38945825  0.14375027  0.19853253  1  -0.235068  0  -0.223523  -0.494991  0  3.818728  0
C  C189  1  0.85624884  0.61054042  0.30146756  1  -0.234994  0  -0.223512  -0.49496  0  3.818898  0
C  C190  1  0.61053990  0.85625024  0.80146753  1  -0.235065  0  -0.223487  -0.494903  0  3.818882  0
C  C191  1  0.14375071  0.38945884  0.69853177  1  -0.234872  0  -0.223526  -0.494925  0  3.818832  0
C  C192  1  0.54108956  0.35659767  0.04286157  1  -0.225284  0  -0.229583  -0.503581  0  3.837981  0
C  C193  1  0.64340431  0.45891002  0.45713818  1  -0.225464  0  -0.229557  -0.503493  0  3.837962  0
C  C194  1  0.45890999  0.64340411  0.95713822  1  -0.225507  0  -0.229561  -0.503496  0  3.838017  0
C  C195  1  0.35659594  0.54108956  0.54286141  1  -0.225509  0  -0.229543  -0.503423  0  3.838034  0
C  C196  1  0.47651399  0.37033621  0.95654247  1  -0.223637  0  -0.227227  -0.502581  0  3.828631  0
C  C197  1  0.62966347  0.52348672  0.54345760  1  -0.223602  0  -0.227241  -0.502596  0  3.828715  0
C  C198  1  0.52348626  0.62966337  0.04345747  1  -0.223639  0  -0.227256  -0.502591  0  3.828649  0
C  C199  1  0.37033608  0.47651380  0.45654232  1  -0.223624  0  -0.227222  -0.502592  0  3.828601  0
S  S200  1  0.39995430  0.20871037  0.14052439  1  1.22337  0  0.295888  0.663164  0  4.081374  0
S  S201  1  0.79129020  0.60004422  0.35947595  1  1.223305  0  0.295937  0.663256  0  4.081248  0
S  S202  1  0.60004455  0.79128983  0.85947598  1  1.223324  0  0.29592  0.663236  0  4.081377  0
S  S203  1  0.20871004  0.39995536  0.64052399  1  1.223318  0  0.295915  0.663222  0  4.081317  0
S  S204  1  0.54256529  0.28039629  0.00178638  1  1.26452  0  0.316622  0.71415  0  4.050915  0
S  S205  1  0.71960435  0.45743482  0.49821304  1  1.264705  0  0.316597  0.71411  0  4.05095  0
S  S206  1  0.45743496  0.71960392  0.99821350  1  1.26476  0  0.316638  0.714138  0  4.050885  0
S  S207  1  0.28039660  0.54256508  0.50178644  1  1.264751  0  0.316638  0.714163  0  4.050873  0
N  N208  1  0.82452407  0.19080673  0.22707145  1  -0.521768  0  -0.152648  -0.141089  0  3.291038  0
N  N209  1  0.80919277  0.17547623  0.27292926  1  -0.459289  0  -0.152652  -0.141111  0  3.291038  0
N  N210  1  0.17547828  0.80919256  0.77292868  1  -0.521744  0  -0.152615  -0.141038  0  3.291059  0
N  N211  1  0.19080888  0.82452399  0.72707084  1  -0.459323  0  -0.152657  -0.141134  0  3.291006  0
N  N212  1  0.27209769  0.77282193  0.25221848  1  -0.519002  0  -0.156222  -0.14624  0  3.302519  0
N  N213  1  0.22717829  0.72790266  0.24778039  1  -0.449657  0  -0.15618  -0.146176  0  3.302526  0
N  N214  1  0.72790397  0.22717641  0.74778145  1  -0.449597  0  -0.156213  -0.146173  0  3.302607  0
N  N215  1  0.77282266  0.27209598  0.75221922  1  -0.51906  0  -0.156216  -0.146241  0  3.302575  0
N  N216  1  0.96086441  0.51182680  0.99239306  1  -0.511498  0  -0.157072  -0.146578  0  3.303951  0
N  N217  1  0.48817216  0.03913767  0.50760708  1  -0.472633  0  -0.157116  -0.146632  0  3.303992  0
N  N218  1  0.03913724  0.48817217  0.00760752  1  -0.472615  0  -0.157101  -0.146625  0  3.303972  0
N  N219  1  0.51182669  0.96086378  0.49239281  1  -0.511477  0  -0.157074  -0.146602  0  3.303914  0
O  O220  1  0.58336170  0.05788623  0.12502540  1  -1.186125  0  -0.383331  -0.650886  0  2.230319  0
O  O221  1  0.94211345  0.41663785  0.37497507  1  -1.186057  0  -0.383324  -0.650833  0  2.23034  0
O  O222  1  0.41663854  0.94211461  0.87497513  1  -1.186004  0  -0.383312  -0.650822  0  2.230189  0
O  O223  1  0.05788330  0.58336327  0.62502578  1  -1.186022  0  -0.383281  -0.650786  0  2.230106  0
O  O224  1  0.65077234  0.11420092  0.06002122  1  -1.162556  0  -0.37431  -0.640163  0  2.239859  0
O  O225  1  0.88579925  0.34922682  0.43997959  1  -1.162596  0  -0.374315  -0.640159  0  2.239922  0
O  O226  1  0.34922791  0.88579930  0.93997937  1  -1.162582  0  -0.374329  -0.64017  0  2.239911  0
O  O227  1  0.11419960  0.65077212  0.56002127  1  -1.162563  0  -0.374289  -0.640135  0  2.239915  0
O  O228  1  0.41770615  0.90196192  0.03832785  1  -1.190692  0  -0.392301  -0.673595  0  2.301112  0
O  O229  1  0.09803729  0.58229591  0.46167166  1  -1.190685  0  -0.392345  -0.673667  0  2.301166  0
O  O230  1  0.58229408  0.09803955  0.96167084  1  -1.190726  0  -0.392284  -0.673473  0  2.301188  0
O  O231  1  0.90196296  0.41770367  0.53832864  1  -1.190746  0  -0.392331  -0.673581  0  2.301085  0
O  O232  1  0.47659208  0.95656744  0.08717368  1  -1.183448  0  -0.394729  -0.65328  0  2.297939  0
O  O233  1  0.04343191  0.52340974  0.41282582  1  -1.18342  0  -0.394703  -0.653227  0  2.297932  0
O  O234  1  0.52340677  0.04343150  0.91282646  1  -1.183389  0  -0.394757  -0.653224  0  2.297818  0
O  O235  1  0.95656973  0.47659112  0.58717385  1  -1.183378  0  -0.39477  -0.653318  0  2.297831  0
O  O236  1  0.59664399  0.90811721  0.99750069  1  -1.223109  0  -0.424018  -0.739865  0  2.40946  0
O  O237  1  0.09188338  0.40335805  0.50249836  1  -1.223142  0  -0.424032  -0.739891  0  2.409603  0
O  O238  1  0.40335625  0.09188363  0.00249841  1  -1.223121  0  -0.424024  -0.739902  0  2.40962  0
O  O239  1  0.90811546  0.59664403  0.49750183  1  -1.223127  0  -0.423995  -0.739825  0  2.409671  0
O  O240  1  0.67895242  0.92675714  0.04761222  1  -1.16153  0  -0.372518  -0.604049  0  2.183567  0
O  O241  1  0.07324559  0.32104709  0.45238739  1  -1.161497  0  -0.372465  -0.604009  0  2.183616  0
O  O242  1  0.32104853  0.07324276  0.95238762  1  -1.161488  0  -0.372526  -0.604114  0  2.183444  0
O  O243  1  0.92675466  0.67895375  0.54761315  1  -1.161456  0  -0.372491  -0.604069  0  2.183513  0
O  O244  1  0.39097524  0.15671607  0.10278249  1  -1.239319  0  -0.388103  -0.610051  0  2.236308  0
O  O245  1  0.84328453  0.60902428  0.39721772  1  -1.239401  0  -0.388129  -0.610118  0  2.23622  0
O  O246  1  0.60902430  0.84328446  0.89721778  1  -1.239393  0  -0.388137  -0.610118  0  2.236288  0
O  O247  1  0.15671501  0.39097624  0.60278220  1  -1.239396  0  -0.388118  -0.610105  0  2.23623  0
O  O248  1  0.47475157  0.24236863  0.02817480  1  -1.250391  0  -0.38963  -0.642999  0  2.269362  0
O  O249  1  0.75763249  0.52524817  0.47182570  1  -1.250392  0  -0.389633  -0.642975  0  2.269409  0
O  O250  1  0.52524868  0.75763221  0.97182573  1  -1.250385  0  -0.38964  -0.642974  0  2.269359  0
O  O251  1  0.24236706  0.47475235  0.52817421  1  -1.250343  0  -0.389635  -0.642988  0  2.2693  0
