# generated using pymatgen
data_ZnH24C34(N3O4)2
_symmetry_space_group_name_H-M   'P 1'
_cell_length_a   11.50240561
_cell_length_b   14.74610561
_cell_length_c   21.93238455
_cell_angle_alpha   89.99954042
_cell_angle_beta   103.85966825
_cell_angle_gamma   90.00057713
_symmetry_Int_Tables_number   1
_chemical_formula_structural   ZnH24C34(N3O4)2
_chemical_formula_sum   'Zn4 H96 C136 N24 O32'
_cell_volume   3611.76774090
_cell_formula_units_Z   4
loop_
 _symmetry_equiv_pos_site_id
 _symmetry_equiv_pos_as_xyz
  1  'x, y, z'
loop_
 _atom_site_type_symbol
 _atom_site_label
 _atom_site_symmetry_multiplicity
 _atom_site_fract_x
 _atom_site_fract_y
 _atom_site_fract_z
 _atom_site_occupancy
 _atom_site_pbe_bader_charge
 _atom_site_pbe_bader_spin_density
 _atom_site_pbe_cm5_charge
 _atom_site_pbe_ddec_charge
 _atom_site_pbe_ddec_spin_density
 _atom_site_pbe_ddec_sum_bond_order
 _atom_site_pbe_magmom
Zn  Zn0  1  0.53327276  0.15221549  0.51443826  1  1.258087  0  0.709013  0.797621  0  2.419138  0
Zn  Zn1  1  0.46672792  0.15221312  0.98556252  1  1.258089  0  0.70903  0.797611  0  2.419121  0
Zn  Zn2  1  0.46672612  0.84778346  0.48555972  1  1.258173  0  0.709018  0.797579  0  2.419213  0
Zn  Zn3  1  0.53327729  0.84778855  0.01443896  1  1.258086  0  0.709011  0.797601  0  2.419091  0
H  H4  1  0.54897426  0.53200508  0.89758089  1  0.63515  0  0.335373  0.377671  0  0.883588  0
H  H5  1  0.45102714  0.53201527  0.60242114  1  0.635093  0  0.335319  0.377758  0  0.883542  0
H  H6  1  0.45102373  0.46799455  0.10241699  1  0.635109  0  0.335366  0.377738  0  0.883504  0
H  H7  1  0.54897898  0.46798572  0.39758091  1  0.635101  0  0.335321  0.377669  0  0.883681  0
H  H8  1  0.02025472  0.77188411  0.41880276  1  0.641869  0  0.347981  0.395852  0  0.841176  0
H  H9  1  0.97975145  0.77188579  0.08119757  1  0.64187  0  0.347926  0.39581  0  0.841224  0
H  H10  1  0.97973877  0.22811552  0.58119367  1  0.642011  0  0.34796  0.395832  0  0.841201  0
H  H11  1  0.02023851  0.22812130  0.91880025  1  0.642178  0  0.347911  0.395821  0  0.841159  0
H  H12  1  0.15535408  0.11188552  0.49456529  1  0.089615  0  0.104902  0.108277  0  1.013497  0
H  H13  1  0.84464561  0.11188704  0.00543689  1  0.089729  0  0.104899  0.108264  0  1.013475  0
H  H14  1  0.84464307  0.88811343  0.50543477  1  0.089649  0  0.104929  0.108334  0  1.013471  0
H  H15  1  0.15535695  0.88811394  0.99456564  1  0.089631  0  0.104911  0.108301  0  1.013495  0
H  H16  1  0.93645209  0.09387389  0.45348585  1  0.091416  0  0.104618  0.108473  0  1.022885  0
H  H17  1  0.06354649  0.09387628  0.04651538  1  0.091483  0  0.104612  0.108485  0  1.02287  0
H  H18  1  0.06354501  0.90612506  0.54651192  1  0.091419  0  0.104596  0.108448  0  1.022885  0
H  H19  1  0.93645516  0.90612674  0.95348613  1  0.091496  0  0.104595  0.108451  0  1.022888  0
H  H20  1  0.75873324  0.22682905  0.32657720  1  0.09438  0  0.122849  0.084123  0  0.980584  0
H  H21  1  0.24126860  0.22682862  0.17342326  1  0.094394  0  0.122833  0.084091  0  0.980673  0
H  H22  1  0.24126573  0.77317126  0.67342445  1  0.094424  0  0.122814  0.084064  0  0.980645  0
H  H23  1  0.75873483  0.77317508  0.82657846  1  0.094318  0  0.122835  0.084083  0  0.980615  0
H  H24  1  0.66672595  0.97226668  0.47185174  1  0.208128  0  0.135632  0.116298  0  1.037787  0
H  H25  1  0.33326912  0.97226665  0.02815028  1  0.207839  0  0.135669  0.116321  0  1.037789  0
H  H26  1  0.33327563  0.02773227  0.52814656  1  0.208105  0  0.13563  0.116297  0  1.03777  0
H  H27  1  0.66673072  0.02773433  0.97185010  1  0.207811  0  0.135656  0.116324  0  1.037786  0
H  H28  1  0.63631915  0.24112070  0.40342812  1  0.249648  0  0.142743  0.129504  0  1.033362  0
H  H29  1  0.36368010  0.24112282  0.09656921  1  0.249591  0  0.14276  0.129534  0  1.033315  0
H  H30  1  0.36367704  0.75887689  0.59656908  1  0.249606  0  0.142764  0.129522  0  1.033317  0
H  H31  1  0.63632234  0.75888156  0.90342784  1  0.249318  0  0.142742  0.129491  0  1.033348  0
H  H32  1  0.93776528  0.02418246  0.30818155  1  0.07611  0  0.100956  0.104747  0  1.022679  0
H  H33  1  0.06223247  0.02418312  0.19181767  1  0.076095  0  0.100951  0.104718  0  1.022672  0
H  H34  1  0.06223097  0.97581514  0.69181839  1  0.076074  0  0.100943  0.104718  0  1.022702  0
H  H35  1  0.93776645  0.97582058  0.80818169  1  0.076111  0  0.100956  0.104752  0  1.022676  0
H  H36  1  0.89003702  0.92657364  0.21194850  1  0.07564  0  0.096479  0.095104  0  1.02047  0
H  H37  1  0.10995836  0.92657082  0.28805062  1  0.07542  0  0.096476  0.095139  0  1.020446  0
H  H38  1  0.10996011  0.07342667  0.78805110  1  0.075485  0  0.096505  0.095209  0  1.020373  0
H  H39  1  0.89003873  0.07342813  0.71194669  1  0.075532  0  0.096487  0.095168  0  1.020414  0
H  H40  1  0.55703199  0.06640596  0.14600656  1  0.106324  0  0.101487  0.10457  0  1.031982  0
H  H41  1  0.44297240  0.06639479  0.35398913  1  0.106104  0  0.101464  0.104502  0  1.032094  0
H  H42  1  0.44297135  0.93360316  0.85399104  1  0.106109  0  0.101459  0.104492  0  1.03205  0
H  H43  1  0.55702731  0.93359806  0.64600576  1  0.106579  0  0.101475  0.10453  0  1.032013  0
H  H44  1  0.60466169  0.16641911  0.24063056  1  0.067704  0  0.099002  0.09809  0  1.014218  0
H  H45  1  0.39534924  0.16641479  0.25936766  1  0.067549  0  0.098988  0.098045  0  1.014158  0
H  H46  1  0.39534702  0.83358594  0.75936769  1  0.067597  0  0.09899  0.098065  0  1.01414  0
H  H47  1  0.60465857  0.83358348  0.74063003  1  0.067708  0  0.099  0.098093  0  1.014153  0
H  H48  1  0.95470351  0.24741039  0.28921861  1  0.066544  0  0.09794  0.098602  0  1.017132  0
H  H49  1  0.04529768  0.24741069  0.21078256  1  0.066201  0  0.097978  0.098694  0  1.017025  0
H  H50  1  0.04529631  0.75259331  0.71078131  1  0.066612  0  0.097979  0.098691  0  1.017055  0
H  H51  1  0.95470483  0.75259436  0.78921768  1  0.066289  0  0.097965  0.098679  0  1.017078  0
H  H52  1  0.17577833  0.26343438  0.33054523  1  0.088902  0  0.098361  0.095651  0  1.038802  0
H  H53  1  0.82422393  0.26343312  0.16945599  1  0.08899  0  0.098358  0.095621  0  1.03885  0
H  H54  1  0.82422066  0.73656999  0.66945778  1  0.088838  0  0.098381  0.095625  0  1.03876  0
H  H55  1  0.17577859  0.73656786  0.83054471  1  0.089023  0  0.098357  0.095634  0  1.038769  0
H  H56  1  0.43161678  0.36821662  0.49945968  1  0.15203  0  0.136285  0.106157  0  1.01847  0
H  H57  1  0.56838223  0.36821537  0.00054286  1  0.152077  0  0.136292  0.10618  0  1.018476  0
H  H58  1  0.56838661  0.63178369  0.50053975  1  0.15201  0  0.13627  0.106178  0  1.018397  0
H  H59  1  0.43162025  0.63178562  0.99945601  1  0.152011  0  0.136303  0.106187  0  1.018392  0
H  H60  1  0.75771501  0.25340939  0.59476785  1  0.253541  0  0.140453  0.123708  0  1.060734  0
H  H61  1  0.24228679  0.25341096  0.90523207  1  0.253574  0  0.140484  0.123554  0  1.060638  0
H  H62  1  0.24228834  0.74658481  0.40523021  1  0.253637  0  0.140497  0.123518  0  1.060698  0
H  H63  1  0.75771396  0.74658867  0.09476979  1  0.253541  0  0.140465  0.123518  0  1.060657  0
H  H64  1  0.86255352  0.39015683  0.63959898  1  0.08053  0  0.128084  0.085509  0  0.958509  0
H  H65  1  0.13744989  0.39016082  0.86040405  1  0.080658  0  0.128094  0.085473  0  0.958535  0
H  H66  1  0.13745167  0.60984009  0.36040113  1  0.080583  0  0.12808  0.08548  0  0.958579  0
H  H67  1  0.86255182  0.60983677  0.13960066  1  0.080677  0  0.12807  0.085449  0  0.95855  0
H  H68  1  0.70934678  0.61698222  0.63970333  1  0.149876  0  0.105418  0.119797  0  1.045987  0
H  H69  1  0.29065470  0.61698809  0.86029916  1  0.149985  0  0.105429  0.119883  0  1.045901  0
H  H70  1  0.29065478  0.38301606  0.36029407  1  0.149625  0  0.105422  0.119807  0  1.04595  0
H  H71  1  0.70933986  0.38301222  0.13970560  1  0.149837  0  0.105411  0.119845  0  1.045935  0
H  H72  1  0.63736311  0.66932742  0.73090753  1  0.106824  0  0.110444  0.113111  0  1.011037  0
H  H73  1  0.36264790  0.66933833  0.76909536  1  0.106568  0  0.1105  0.113107  0  1.01101  0
H  H74  1  0.36264207  0.33066272  0.26909212  1  0.106649  0  0.110473  0.11305  0  1.011004  0
H  H75  1  0.63735105  0.33066063  0.23090536  1  0.106565  0  0.110496  0.113107  0  1.011014  0
H  H76  1  0.71936989  0.40892557  0.82034530  1  0.075538  0  0.112077  0.117368  0  0.988644  0
H  H77  1  0.28064451  0.40892876  0.67966077  1  0.075846  0  0.112093  0.1174  0  0.988688  0
H  H78  1  0.28064161  0.59107134  0.17965785  1  0.07571  0  0.112089  0.117403  0  0.988695  0
H  H79  1  0.71935086  0.59106815  0.32033998  1  0.075508  0  0.112112  0.117433  0  0.988706  0
H  H80  1  0.79793522  0.35659734  0.73032746  1  0.058754  0  0.106115  0.107635  0  0.991208  0
H  H81  1  0.20207412  0.35660021  0.76967828  1  0.058848  0  0.106084  0.107553  0  0.991332  0
H  H82  1  0.20207449  0.64340229  0.26967547  1  0.058858  0  0.106076  0.107521  0  0.9913  0
H  H83  1  0.79792125  0.64340485  0.23032247  1  0.058852  0  0.106096  0.1076  0  0.991224  0
H  H84  1  0.01770467  0.51081376  0.65663620  1  0.045124  0  0.098812  0.099672  0  1.011757  0
H  H85  1  0.98230094  0.51081574  0.84336462  1  0.045084  0  0.098828  0.099685  0  1.011735  0
H  H86  1  0.98230049  0.48918520  0.34336299  1  0.045017  0  0.098789  0.09967  0  1.011778  0
H  H87  1  0.01769889  0.48918864  0.15663530  1  0.045084  0  0.098811  0.099729  0  1.011702  0
H  H88  1  0.12151397  0.61429879  0.59728327  1  0.112151  0  0.10419  0.103532  0  1.011571  0
H  H89  1  0.87848564  0.61429722  0.90271673  1  0.112162  0  0.104189  0.103582  0  1.011556  0
H  H90  1  0.87848939  0.38570424  0.40271525  1  0.112267  0  0.104204  0.103548  0  1.011631  0
H  H91  1  0.12150522  0.38570309  0.09728166  1  0.112316  0  0.104208  0.103545  0  1.011619  0
H  H92  1  0.80444582  0.62597187  0.44648609  1  0.115513  0  0.109461  0.112466  0  0.993032  0
H  H93  1  0.19555335  0.62597657  0.05351372  1  0.115503  0  0.109483  0.112482  0  0.993039  0
H  H94  1  0.19555216  0.37402030  0.55351133  1  0.115484  0  0.10946  0.112493  0  0.993047  0
H  H95  1  0.80443222  0.37402238  0.94648768  1  0.115394  0  0.10948  0.112502  0  0.993007  0
H  H96  1  0.70252612  0.51968137  0.50395837  1  0.119136  0  0.100853  0.095231  0  1.063633  0
H  H97  1  0.29747872  0.51969111  0.99604368  1  0.119002  0  0.100849  0.095201  0  1.063632  0
H  H98  1  0.29748082  0.48030876  0.49604013  1  0.119018  0  0.100844  0.095192  0  1.063602  0
H  H99  1  0.70251225  0.48031055  0.00395974  1  0.118891  0  0.100823  0.095113  0  1.063702  0
C  C100  1  0.31169630  0.20027929  0.43972292  1  1.540815  0  0.199504  0.562801  0  4.230359  0
C  C101  1  0.68830352  0.20027758  0.06028062  1  1.540801  0  0.199546  0.562885  0  4.230155  0
C  C102  1  0.68830265  0.79972034  0.56027826  1  1.540793  0  0.199423  0.562659  0  4.230597  0
C  C103  1  0.31169730  0.79972137  0.93972398  1  1.540741  0  0.199573  0.562801  0  4.230255  0
C  C104  1  0.17925331  0.18946318  0.41525991  1  -0.028229  0  -0.020618  -0.036306  0  3.98066  0
C  C105  1  0.82074546  0.18946154  0.08474220  1  -0.028246  0  -0.020611  -0.036361  0  3.980722  0
C  C106  1  0.82074564  0.81053781  0.58474082  1  -0.028172  0  -0.020603  -0.036239  0  3.980561  0
C  C107  1  0.17925440  0.81053877  0.91525955  1  -0.028017  0  -0.020618  -0.036259  0  3.980634  0
C  C108  1  0.11116912  0.14166365  0.44956413  1  0.071414  0  -0.08381  -0.082998  0  3.966768  0
C  C109  1  0.88882914  0.14166295  0.05043908  1  0.071375  0  -0.083838  -0.083013  0  3.967013  0
C  C110  1  0.88882804  0.85833598  0.55043638  1  0.071449  0  -0.083857  -0.083119  0  3.96685  0
C  C111  1  0.11117252  0.85833872  0.94956334  1  0.071258  0  -0.083806  -0.083028  0  3.966821  0
C  C112  1  0.98787963  0.13224438  0.42661292  1  -0.05528  0  -0.095825  -0.138262  0  3.986449  0
C  C113  1  0.01211850  0.13224605  0.07338896  1  -0.055237  0  -0.095789  -0.138277  0  3.986494  0
C  C114  1  0.01211929  0.86775525  0.57338643  1  -0.055358  0  -0.095786  -0.138212  0  3.986522  0
C  C115  1  0.98788224  0.86775764  0.92661198  1  -0.055303  0  -0.095789  -0.138297  0  3.986501  0
C  C116  1  0.93080664  0.17057733  0.36892508  1  -0.050185  0  -0.006619  0.068494  0  3.963154  0
C  C117  1  0.06919369  0.17057877  0.13107595  1  -0.050208  0  -0.006614  0.068554  0  3.963099  0
C  C118  1  0.06919227  0.82942433  0.63107382  1  -0.050153  0  -0.006623  0.068502  0  3.963227  0
C  C119  1  0.93080883  0.82942425  0.86892475  1  -0.050386  0  -0.00659  0.068652  0  3.963043  0
C  C120  1  0.79826340  0.15934962  0.33933263  1  0.304187  0  0.040481  -0.00301  0  3.870939  0
C  C121  1  0.20173949  0.15935038  0.16066876  1  0.30419  0  0.040482  -0.003064  0  3.871068  0
C  C122  1  0.20173642  0.84065069  0.66066729  1  0.304148  0  0.04051  -0.002968  0  3.870942  0
C  C123  1  0.79826571  0.84065399  0.83933180  1  0.304273  0  0.040475  -0.003093  0  3.87101  0
C  C124  1  0.67724962  0.03299380  0.44551843  1  0.950463  0  0.154638  0.154518  0  3.945428  0
C  C125  1  0.32274467  0.03299473  0.05448170  1  0.95054  0  0.154529  0.154371  0  3.945675  0
C  C126  1  0.32274838  0.96700515  0.55447990  1  0.950369  0  0.154648  0.154557  0  3.945457  0
C  C127  1  0.67725424  0.96700625  0.94551766  1  0.950516  0  0.154522  0.15432  0  3.945787  0
C  C128  1  0.66080896  0.17050278  0.41245011  1  0.967912  0  0.170581  0.10315  0  3.8688  0
C  C129  1  0.33918952  0.17050413  0.08754842  1  0.967712  0  0.170563  0.103027  0  3.86883  0
C  C130  1  0.33918901  0.82949549  0.58754685  1  0.96779  0  0.170587  0.103091  0  3.868819  0
C  C131  1  0.66081118  0.82949957  0.91245070  1  0.96827  0  0.170579  0.103105  0  3.868788  0
C  C132  1  0.77379879  0.10100701  0.28053395  1  -0.035958  0  -0.009987  0.059679  0  3.968819  0
C  C133  1  0.22620427  0.10100523  0.21946458  1  -0.035962  0  -0.010026  0.059605  0  3.968763  0
C  C134  1  0.22620545  0.89899737  0.71946376  1  -0.03597  0  -0.009983  0.059571  0  3.968718  0
C  C135  1  0.77379998  0.89899643  0.78053359  1  -0.035846  0  -0.009996  0.059705  0  3.968502  0
C  C136  1  0.85444969  0.03357397  0.27264672  1  -0.023269  0  -0.090611  -0.125869  0  3.989052  0
C  C137  1  0.14555086  0.03357283  0.22735370  1  -0.023343  0  -0.090631  -0.125865  0  3.989008  0
C  C138  1  0.14555008  0.96642972  0.72735091  1  -0.023218  0  -0.090593  -0.125769  0  3.988865  0
C  C139  1  0.85445250  0.96642951  0.77264482  1  -0.05097  0  -0.090614  -0.125923  0  3.988948  0
C  C140  1  0.82826474  0.97918860  0.21931752  1  -0.032156  0  -0.086859  -0.090783  0  3.989685  0
C  C141  1  0.17173125  0.97918567  0.28068275  1  -0.032144  0  -0.086797  -0.090688  0  3.989759  0
C  C142  1  0.17173596  0.02081510  0.78068159  1  -0.03214  0  -0.086897  -0.090866  0  3.989727  0
C  C143  1  0.82826672  0.02081328  0.71931421  1  -0.004803  0  -0.086883  -0.090766  0  3.989857  0
C  C144  1  0.72077410  0.99031681  0.17383976  1  -0.027969  0  -0.018291  -0.032113  0  3.964446  0
C  C145  1  0.27922292  0.99031419  0.32616058  1  -0.027416  0  -0.018288  -0.032269  0  3.964543  0
C  C146  1  0.27922928  0.00968756  0.82615967  1  -0.027607  0  -0.018234  -0.03218  0  3.964593  0
C  C147  1  0.72077688  0.00968409  0.67383797  1  -0.027808  0  -0.018202  -0.032131  0  3.964487  0
C  C148  1  0.69278812  0.92794056  0.11821006  1  1.54349  0  0.20101  0.578563  0  4.214142  0
C  C149  1  0.30720905  0.92793817  0.38178881  1  1.543168  0  0.201094  0.578699  0  4.213861  0
C  C150  1  0.30721348  0.07206246  0.88178962  1  1.543464  0  0.201081  0.57861  0  4.214078  0
C  C151  1  0.69279160  0.07206146  0.61820848  1  1.542882  0  0.200996  0.578661  0  4.214014  0
C  C152  1  0.64008595  0.05794214  0.18175119  1  -0.015991  0  -0.082453  -0.071138  0  3.954964  0
C  C153  1  0.35991661  0.05793888  0.31824614  1  -0.016476  0  -0.082473  -0.071108  0  3.95503  0
C  C154  1  0.35991648  0.94206223  0.81824539  1  -0.016316  0  -0.082488  -0.071075  0  3.955049  0
C  C155  1  0.64008495  0.94205939  0.68175125  1  -0.016488  0  -0.08247  -0.07106  0  3.954935  0
C  C156  1  0.66726861  0.11342235  0.23457462  1  -0.082786  0  -0.092217  -0.134201  0  3.988164  0
C  C157  1  0.33273545  0.11342018  0.26542260  1  -0.08262  0  -0.092169  -0.134053  0  3.987987  0
C  C158  1  0.33273472  0.88658135  0.76542253  1  -0.082639  0  -0.0922  -0.134116  0  3.988072  0
C  C159  1  0.66726788  0.88658013  0.73457455  1  -0.082477  0  -0.09225  -0.134279  0  3.988099  0
C  C160  1  0.99899852  0.21852741  0.33464473  1  -0.112305  0  -0.095147  -0.140351  0  4.001309  0
C  C161  1  0.00100235  0.21852723  0.16535657  1  -0.11241  0  -0.095219  -0.140509  0  4.001246  0
C  C162  1  0.00099954  0.78147697  0.66535589  1  -0.112314  0  -0.095187  -0.140444  0  4.001223  0
C  C163  1  0.99900016  0.78147579  0.83464368  1  -0.112197  0  -0.095204  -0.140504  0  4.001205  0
C  C164  1  0.12195495  0.22758590  0.35739089  1  -0.039134  0  -0.085929  -0.088354  0  3.994025  0
C  C165  1  0.87804514  0.22758606  0.14261072  1  -0.039269  0  -0.085893  -0.088232  0  3.99374  0
C  C166  1  0.87804313  0.77241576  0.64261110  1  -0.039199  0  -0.085978  -0.088365  0  3.993817  0
C  C167  1  0.12195645  0.77241967  0.85738850  1  -0.039315  0  -0.085949  -0.088362  0  3.993939  0
C  C168  1  0.52153869  0.36272518  0.52904693  1  0.988602  0  0.153227  0.153658  0  3.958445  0
C  C169  1  0.47846083  0.36272781  0.97095577  1  0.988532  0  0.15328  0.15355  0  3.958451  0
C  C170  1  0.47846467  0.63727242  0.47095159  1  0.988387  0  0.153195  0.153508  0  3.958448  0
C  C171  1  0.52154080  0.63727317  0.02904528  1  0.988634  0  0.153255  0.153594  0  3.958386  0
C  C172  1  0.68855297  0.30338988  0.57623545  1  1.010496  0  0.170836  0.103832  0  3.88318  0
C  C173  1  0.31144760  0.30339245  0.92376405  1  1.010144  0  0.170785  0.104052  0  3.882917  0
C  C174  1  0.31144950  0.69660568  0.42376296  1  1.009843  0  0.170813  0.104133  0  3.883154  0
C  C175  1  0.68855312  0.69660785  0.07623644  1  1.010008  0  0.170849  0.104097  0  3.8831  0
C  C176  1  0.79579490  0.44360468  0.62244443  1  0.339681  0  0.042223  -0.000317  0  3.865949  0
C  C177  1  0.20420817  0.44361102  0.87755645  1  0.339696  0  0.042319  -3.8e-05  0  3.865994  0
C  C178  1  0.20421027  0.55639088  0.37755522  1  0.339784  0  0.042232  -0.000278  0  3.866147  0
C  C179  1  0.79579434  0.55638996  0.12244380  1  0.339617  0  0.042275  -0.000145  0  3.866063  0
C  C180  1  0.76025896  0.48320652  0.67946661  1  -0.068904  0  -0.004183  0.068542  0  3.954913  0
C  C181  1  0.23974641  0.48321247  0.82053798  1  -0.068885  0  -0.004372  0.068202  0  3.955097  0
C  C182  1  0.23974086  0.51679040  0.32053331  1  -0.068653  0  -0.004214  0.068408  0  3.954981  0
C  C183  1  0.76026067  0.51678784  0.17946737  1  -0.068868  0  -0.004336  0.068225  0  3.955091  0
C  C184  1  0.71567276  0.57140590  0.67968031  1  -0.066279  0  -0.085708  -0.127769  0  3.94399  0
C  C185  1  0.28433178  0.57141356  0.82032234  1  -0.066384  0  -0.085656  -0.127746  0  3.943787  0
C  C186  1  0.28433238  0.42858966  0.32031797  1  -0.066423  0  -0.085701  -0.127753  0  3.943871  0
C  C187  1  0.71566725  0.42858743  0.17968250  1  -0.066137  0  -0.085661  -0.127702  0  3.943908  0
C  C188  1  0.67454515  0.60135233  0.73104379  1  0.010768  0  -0.074561  -0.071804  0  3.937542  0
C  C189  1  0.32545701  0.60136023  0.76895704  1  0.011193  0  -0.07459  -0.071764  0  3.937459  0
C  C190  1  0.32545644  0.39864052  0.26895498  1  0.011526  0  -0.074563  -0.071612  0  3.937289  0
C  C191  1  0.67453836  0.39864008  0.23104371  1  0.011254  0  -0.074572  -0.071735  0  3.937461  0
C  C192  1  0.67429407  0.54283692  0.78149789  1  -0.059046  0  -0.020037  -0.058767  0  3.999542  0
C  C193  1  0.32571107  0.54284271  0.71850635  1  -0.05914  0  -0.020059  -0.058822  0  3.999686  0
C  C194  1  0.32570215  0.45715932  0.21850068  1  -0.059132  0  -0.02003  -0.05895  0  3.999598  0
C  C195  1  0.67428881  0.45715556  0.28149631  1  -0.05904  0  -0.020001  -0.05883  0  3.999548  0
C  C196  1  0.61985642  0.57534532  0.83239066  1  1.505879  0  0.232703  0.569404  0  4.134449  0
C  C197  1  0.38015094  0.57535079  0.66761641  1  1.505593  0  0.232699  0.569486  0  4.134599  0
C  C198  1  0.38014340  0.42464888  0.16760926  1  1.506189  0  0.232645  0.569432  0  4.134812  0
C  C199  1  0.61985260  0.42464748  0.33239034  1  1.505948  0  0.232706  0.56951  0  4.134617  0
C  C200  1  0.71985459  0.45455819  0.78136514  1  -0.032588  0  -0.077609  -0.074098  0  3.965293  0
C  C201  1  0.28015047  0.45456499  0.71863956  1  -0.032732  0  -0.077634  -0.074229  0  3.965422  0
C  C202  1  0.28014616  0.54543805  0.21863672  1  -0.032484  0  -0.077655  -0.074212  0  3.965404  0
C  C203  1  0.71984851  0.54543600  0.28136253  1  -0.032116  0  -0.077681  -0.07425  0  3.965288  0
C  C204  1  0.76387900  0.42568799  0.73085646  1  -0.003532  0  -0.09161  -0.14297  0  3.999994  0
C  C205  1  0.23612843  0.42569316  0.76914868  1  -0.003932  0  -0.091456  -0.142604  0  3.999962  0
C  C206  1  0.23611996  0.57430960  0.26914472  1  -0.004296  0  -0.091481  -0.142604  0  3.999917  0
C  C207  1  0.76387503  0.57431054  0.23085395  1  -0.004319  0  -0.09149  -0.142722  0  3.999777  0
C  C208  1  0.85221582  0.50899798  0.58441451  1  -0.023583  0  0.000344  0.078844  0  3.937316  0
C  C209  1  0.14778802  0.50899801  0.91558793  1  -0.024109  0  0.000265  0.078612  0  3.937202  0
C  C210  1  0.14778761  0.49100097  0.41558722  1  -0.024055  0  0.000358  0.07877  0  3.937306  0
C  C211  1  0.85220647  0.49100094  0.08441317  1  -0.023933  0  0.000307  0.078762  0  3.937355  0
C  C212  1  0.97069596  0.53580265  0.61044457  1  0.011172  0  -0.090471  -0.136462  0  3.979804  0
C  C213  1  0.02930907  0.53580275  0.88955787  1  0.011298  0  -0.090545  -0.136444  0  3.979847  0
C  C214  1  0.02930651  0.46419562  0.38955384  1  0.011226  0  -0.09049  -0.136463  0  3.9799  0
C  C215  1  0.97068544  0.46419688  0.11044415  1  0.011366  0  -0.090582  -0.136708  0  3.979843  0
C  C216  1  0.02927024  0.59353442  0.57766081  1  -0.019724  0  -0.072481  -0.064708  0  3.9663  0
C  C217  1  0.97073005  0.59353401  0.92234029  1  -0.019756  0  -0.072536  -0.064935  0  3.966356  0
C  C218  1  0.97073133  0.40646386  0.42233749  1  -0.020231  0  -0.072546  -0.06484  0  3.966572  0
C  C219  1  0.02925994  0.40646358  0.07765936  1  -0.020433  0  -0.072518  -0.06474  0  3.966271  0
C  C220  1  0.96993114  0.62686521  0.51846552  1  -0.055167  0  -0.014114  -0.046192  0  3.983891  0
C  C221  1  0.03006953  0.62686421  0.98153546  1  -0.055222  0  -0.014116  -0.046106  0  3.983943  0
C  C222  1  0.03006687  0.37313307  0.48153282  1  -0.054637  0  -0.014102  -0.046109  0  3.983884  0
C  C223  1  0.96992050  0.37313270  0.01846557  1  -0.054948  0  -0.014115  -0.046112  0  3.984145  0
C  C224  1  0.03740578  0.68902868  0.48641965  1  1.478248  0  0.229208  0.56657  0  4.137631  0
C  C225  1  0.96258341  0.68902628  0.01358182  1  1.478303  0  0.229221  0.566547  0  4.138055  0
C  C226  1  0.96258060  0.31097028  0.51357774  1  1.478566  0  0.229156  0.566569  0  4.137862  0
C  C227  1  0.03739497  0.31097539  0.98641781  1  1.478335  0  0.229184  0.566546  0  4.137564  0
C  C228  1  0.85142758  0.60056778  0.49242625  1  -0.053348  0  -0.073675  -0.067533  0  3.941249  0
C  C229  1  0.14857580  0.60057131  0.00757557  1  -0.053026  0  -0.073672  -0.067526  0  3.941506  0
C  C230  1  0.14857402  0.39942710  0.50757343  1  -0.053265  0  -0.073667  -0.067659  0  3.941322  0
C  C231  1  0.85141690  0.39942832  0.99242577  1  -0.053259  0  -0.073703  -0.067712  0  3.941359  0
C  C232  1  0.79363901  0.54134292  0.52502866  1  -0.063552  0  -0.091543  -0.132472  0  3.966248  0
C  C233  1  0.20636700  0.54134813  0.97497478  1  -0.06325  0  -0.091432  -0.13228  0  3.966052  0
C  C234  1  0.20636708  0.45865061  0.47497201  1  -0.06305  0  -0.091512  -0.13228  0  3.966143  0
C  C235  1  0.79362574  0.45865150  0.02502794  1  -0.062985  0  -0.091352  -0.132039  0  3.965775  0
N  N236  1  0.73248857  0.12399129  0.38378089  1  -0.808613  0  -0.127632  0.140578  0  3.712548  0
N  N237  1  0.26750939  0.12399377  0.11621782  1  -0.808584  0  -0.127684  0.140577  0  3.712462  0
N  N238  1  0.26751032  0.87600631  0.61621709  1  -0.808603  0  -0.127657  0.140647  0  3.71235  0
N  N239  1  0.73249488  0.87600993  0.88378126  1  -0.808521  0  -0.127675  0.140609  0  3.71235  0
N  N240  1  0.74401956  0.03605749  0.40408471  1  -0.671327  0  -0.224941  -0.265578  0  3.087178  0
N  N241  1  0.25597656  0.03605944  0.09591563  1  -0.67101  0  -0.224885  -0.265495  0  3.0873  0
N  N242  1  0.25598113  0.96394079  0.59591395  1  -0.671286  0  -0.224985  -0.265659  0  3.087186  0
N  N243  1  0.74402505  0.96394426  0.90408451  1  -0.671103  0  -0.224911  -0.265495  0  3.087239  0
N  N244  1  0.62404761  0.11449575  0.45184612  1  -1.254926  0  -0.353798  -0.319451  0  3.596022  0
N  N245  1  0.37594847  0.11449718  0.04815333  1  -1.254806  0  -0.353721  -0.319284  0  3.596069  0
N  N246  1  0.37594948  0.88550252  0.54815165  1  -1.254714  0  -0.35377  -0.319441  0  3.596125  0
N  N247  1  0.62405221  0.88550517  0.95184533  1  -1.255013  0  -0.353666  -0.319265  0  3.596143  0
N  N248  1  0.58067130  0.28193519  0.54092876  1  -1.241903  0  -0.342881  -0.297439  0  3.53741  0
N  N249  1  0.41932906  0.28193683  0.95907220  1  -1.241651  0  -0.342911  -0.297433  0  3.537266  0
N  N250  1  0.41933026  0.71806037  0.45906909  1  -1.24164  0  -0.342847  -0.297362  0  3.537417  0
N  N251  1  0.58067437  0.71806348  0.04092907  1  -1.241847  0  -0.342927  -0.29748  0  3.537451  0
N  N252  1  0.58672909  0.43287125  0.55574474  1  -0.710651  0  -0.222845  -0.276809  0  3.126366  0
N  N253  1  0.41327032  0.43287437  0.94425803  1  -0.710741  0  -0.222867  -0.276729  0  3.126463  0
N  N254  1  0.41327251  0.56712431  0.44425493  1  -0.710628  0  -0.222732  -0.2766  0  3.126419  0
N  N255  1  0.58672685  0.56712661  0.05574340  1  -0.710687  0  -0.222841  -0.276756  0  3.126367  0
N  N256  1  0.69341773  0.39331190  0.58491414  1  -0.82896  0  -0.129531  0.134414  0  3.715326  0
N  N257  1  0.30658392  0.39331521  0.91508820  1  -0.829042  0  -0.129556  0.134272  0  3.715325  0
N  N258  1  0.30658657  0.60668434  0.41508632  1  -0.828778  0  -0.129656  0.134206  0  3.715509  0
N  N259  1  0.69341507  0.60668510  0.08491435  1  -0.828691  0  -0.129549  0.134378  0  3.71521  0
O  O260  1  0.35913021  0.14758257  0.48684688  1  -1.166414  0  -0.334528  -0.553173  0  2.353214  0
O  O261  1  0.64086902  0.14757969  0.01315688  1  -1.166349  0  -0.334539  -0.553205  0  2.353045  0
O  O262  1  0.64086700  0.85241842  0.51315637  1  -1.16632  0  -0.334472  -0.553085  0  2.353243  0
O  O263  1  0.35913181  0.85241519  0.98684818  1  -1.166466  0  -0.334553  -0.553166  0  2.353146  0
O  O264  1  0.36912792  0.25679016  0.41595776  1  -1.186743  0  -0.328428  -0.559026  0  2.129472  0
O  O265  1  0.63087250  0.25678909  0.08404418  1  -1.186782  0  -0.328464  -0.559054  0  2.129416  0
O  O266  1  0.63087195  0.74320947  0.58404444  1  -1.186804  0  -0.328408  -0.558986  0  2.129662  0
O  O267  1  0.36912915  0.74321258  0.91595778  1  -1.186657  0  -0.328466  -0.559041  0  2.129464  0
O  O268  1  0.58231100  0.93028196  0.08588796  1  -1.162025  0  -0.338254  -0.557244  0  2.317963  0
O  O269  1  0.41768619  0.93027734  0.41411045  1  -1.162003  0  -0.338323  -0.557321  0  2.31784  0
O  O270  1  0.41769064  0.06971970  0.91411355  1  -1.162129  0  -0.338272  -0.557241  0  2.317852  0
O  O271  1  0.58231356  0.06972026  0.58588627  1  -1.162019  0  -0.338287  -0.557283  0  2.317927  0
O  O272  1  0.77323965  0.87756358  0.10689546  1  -1.196654  0  -0.348579  -0.58957  0  2.131969  0
O  O273  1  0.22675786  0.87755839  0.39310372  1  -1.196495  0  -0.348602  -0.589549  0  2.131833  0
O  O274  1  0.22676197  0.12243944  0.89310514  1  -1.19666  0  -0.348611  -0.58957  0  2.132011  0
O  O275  1  0.77324551  0.12243988  0.60689480  1  -1.196219  0  -0.34854  -0.589668  0  2.131976  0
O  O276  1  0.59591905  0.65506997  0.83978893  1  -1.153007  0  -0.275769  -0.483517  0  2.180712  0
O  O277  1  0.40408829  0.65506825  0.66021725  1  -1.153064  0  -0.275697  -0.48345  0  2.18103  0
O  O278  1  0.40408343  0.34493645  0.16020994  1  -1.153191  0  -0.275693  -0.48342  0  2.181264  0
O  O279  1  0.59590803  0.34492799  0.33978590  1  -1.153167  0  -0.275741  -0.483536  0  2.181163  0
O  O280  1  0.59553772  0.50745793  0.86912926  1  -1.131266  0  -0.331588  -0.485099  0  2.279996  0
O  O281  1  0.40447246  0.50745860  0.63087851  1  -1.130819  0  -0.331617  -0.485384  0  2.27968  0
O  O282  1  0.40446573  0.49254644  0.13087338  1  -1.13119  0  -0.331627  -0.485262  0  2.279778  0
O  O283  1  0.59553461  0.49253832  0.36912638  1  -1.131303  0  -0.331585  -0.485205  0  2.279919  0
O  O284  1  0.14420734  0.70627896  0.50560385  1  -1.147033  0  -0.284869  -0.498789  0  2.166408  0
O  O285  1  0.85579785  0.70627273  0.99439997  1  -1.147204  0  -0.284846  -0.498708  0  2.167088  0
O  O286  1  0.85578708  0.29372203  0.49439359  1  -1.147367  0  -0.284838  -0.498792  0  2.166851  0
O  O287  1  0.14419669  0.29371944  0.00560388  1  -1.1469  0  -0.284917  -0.498852  0  2.166195  0
O  O288  1  0.96974459  0.72630485  0.43258156  1  -1.132597  0  -0.336286  -0.489602  0  2.209501  0
O  O289  1  0.03025834  0.72630742  0.06741635  1  -1.132537  0  -0.336262  -0.489629  0  2.209504  0
O  O290  1  0.03024712  0.27369478  0.56741465  1  -1.132786  0  -0.336231  -0.489559  0  2.209385  0
O  O291  1  0.96973339  0.27370035  0.93258078  1  -1.132916  0  -0.336153  -0.489492  0  2.209525  0
