# generated using pymatgen
data_MnH12C16(N5O3)2
_symmetry_space_group_name_H-M   'P 1'
_cell_length_a   7.50761362
_cell_length_b   7.43804769
_cell_length_c   9.60064784
_cell_angle_alpha   82.71943797
_cell_angle_beta   67.91006035
_cell_angle_gamma   79.35018953
_symmetry_Int_Tables_number   1
_chemical_formula_structural   MnH12C16(N5O3)2
_chemical_formula_sum   'Mn1 H12 C16 N10 O6'
_cell_volume   487.24342861
_cell_formula_units_Z   1
loop_
 _symmetry_equiv_pos_site_id
 _symmetry_equiv_pos_as_xyz
  1  'x, y, z'
loop_
 _atom_site_type_symbol
 _atom_site_label
 _atom_site_symmetry_multiplicity
 _atom_site_fract_x
 _atom_site_fract_y
 _atom_site_fract_z
 _atom_site_occupancy
 _atom_site_hle17_ddec_charge
 _atom_site_hle17_ddec_spin_density
 _atom_site_hle17_ddec_sum_bond_order
 _atom_site_hle17_magmom
 _atom_site_hse06_10hf_ddec_charge
 _atom_site_hse06_10hf_ddec_spin_density
 _atom_site_hse06_10hf_ddec_sum_bond_order
 _atom_site_hse06_10hf_magmom
 _atom_site_hse06_ddec_charge
 _atom_site_hse06_ddec_spin_density
 _atom_site_hse06_ddec_sum_bond_order
 _atom_site_hse06_magmom
 _atom_site_pbe_cm5_charge
 _atom_site_pbe_ddec_charge
 _atom_site_pbe_ddec_spin_density
 _atom_site_pbe_ddec_sum_bond_order
 _atom_site_pbe_magmom
Mn  Mn0  1  0.99999291  0.99999741  0.99999413  1  1.183261  -4.72073  2.116975  -4.58  1.07922  -4.55486  2.651838  -4.35  1.106629  -4.670796  2.583464  -4.488  0.708413  1.051664  -4.433554  2.705515  -4.207
H  H1  1  0.86914098  0.14308290  0.67061035  1  0.146318  0.001154  0.948301  0.001  0.160424  0.000897  1.015122  0.0  0.163623  0.001122  1.014146  0.0  0.102122  0.158072  0.000625  1.015944  0.0
H  H2  1  0.13086785  0.85692137  0.32938804  1  0.14636  0.001154  0.948284  0.001  0.160453  0.000896  1.015112  0.0  0.163663  0.001121  1.014124  0.0  0.102118  0.1581  0.000625  1.015937  0.0
H  H3  1  0.88717460  0.23386566  0.48852895  1  0.131987  0.000298  0.937233  0.0  0.148351  -8.2e-05  1.002149  0.0  0.15002  0.000194  1.001632  0.0  0.098853  0.147207  -0.000291  1.00244  0.0
H  H4  1  0.11283230  0.76614134  0.51147180  1  0.132002  0.000298  0.937316  0.0  0.148368  -8.1e-05  1.002212  0.0  0.150037  0.000194  1.001695  0.0  0.098846  0.147225  -0.000291  1.002502  0.0
H  H5  1  0.80096782  0.01884904  0.55571197  1  0.129284  0.000112  0.947063  0.0  0.148749  8.3e-05  1.005493  0.0  0.151217  6.1e-05  1.004251  0.0  0.096853  0.146927  7.6e-05  1.006421  0.0
H  H6  1  0.19904274  0.98115387  0.44428293  1  0.129325  0.000111  0.947008  0.0  0.14878  8.3e-05  1.005457  0.0  0.151246  6.1e-05  1.004222  0.0  0.096851  0.146959  7.6e-05  1.006388  0.0
H  H7  1  0.29082929  0.66050072  0.73579854  1  0.146603  4.4e-05  0.932753  -0.001  0.151117  0.000374  0.995441  0.0  0.155634  0.000424  0.992114  0.0  0.127304  0.147834  0.000302  0.997993  0.0
H  H8  1  0.70916739  0.33949802  0.26420795  1  0.146605  4.5e-05  0.932816  -0.001  0.151088  0.000373  0.995546  0.0  0.155605  0.000424  0.992216  0.0  0.127282  0.14781  0.000302  0.99808  0.0
H  H9  1  0.04178250  0.44774563  0.79875013  1  0.137189  0.001036  0.924024  0.001  0.142693  7.8e-05  0.986143  0.0  0.146835  0.000196  0.982559  0.0  0.139729  0.139653  -6.1e-05  0.988793  0.0
H  H10  1  0.95822084  0.55224765  0.20125396  1  0.137104  0.001039  0.924074  0.001  0.142642  7.8e-05  0.986177  0.0  0.146779  0.000196  0.982592  0.0  0.139713  0.139597  -6.1e-05  0.988827  0.0
H  H11  1  0.47222910  0.99825755  0.67317149  1  0.13342  0.000992  0.956542  0.001  0.139896  -0.000113  1.021642  0.0  0.14375  4.4e-05  1.017574  0.0  0.134522  0.137213  -0.000234  1.024419  0.0
H  H12  1  0.52778083  0.00173987  0.32682723  1  0.133452  0.000993  0.956525  0.001  0.139909  -0.000113  1.021652  0.0  0.143762  4.4e-05  1.017593  0.0  0.134533  0.137229  -0.000234  1.024416  0.0
C  C13  1  0.79880911  0.15588912  0.58722907  1  -0.350567  -0.000365  3.685466  -0.001  -0.430404  -2.3e-05  3.920285  0.0  -0.434574  0.000122  3.927748  0.0  -0.240889  -0.427126  -0.000138  3.91514  0.0
C  C14  1  0.20120326  0.84411105  0.41276871  1  -0.350658  -0.000364  3.685419  -0.001  -0.430498  -2.3e-05  3.920221  0.0  -0.434676  0.000122  3.927669  0.0  -0.240844  -0.427221  -0.000138  3.915082  0.0
C  C15  1  0.59330598  0.25003369  0.64941536  1  0.1284  0.016748  3.711473  0.012  0.143441  0.005053  3.963862  0.004  0.147013  0.011206  3.982952  0.008  0.019905  0.140335  -0.000519  3.951055  0.001
C  C16  1  0.40670821  0.74996373  0.35058425  1  0.128395  0.016747  3.711488  0.012  0.143466  0.005054  3.963802  0.004  0.147038  0.011202  3.982893  0.008  0.019888  0.140359  -0.00052  3.951003  0.001
C  C17  1  0.53379875  0.43938287  0.66992077  1  0.018606  -0.024019  3.668699  -0.021  -0.00299  -0.025373  3.935011  -0.02  -0.005621  -0.023965  3.954945  -0.02  0.082232  -0.000691  -0.0257  3.92204  -0.02
C  C18  1  0.46620110  0.56061452  0.33008183  1  0.018572  -0.024013  3.668822  -0.021  -0.003013  -0.025371  3.935075  -0.02  -0.005646  -0.023964  3.955009  -0.02  0.082212  -0.000714  -0.025699  3.922109  -0.02
C  C19  1  0.33655689  0.51456468  0.72045877  1  -0.107121  0.018151  3.725882  0.013  -0.13692  0.005123  4.000562  0.004  -0.135577  0.011854  4.014856  0.008  -0.067539  -0.138477  -0.000722  3.991414  0.001
C  C20  1  0.66344494  0.48542998  0.27953936  1  -0.107128  0.018145  3.725657  0.013  -0.136874  0.005124  4.00031  0.004  -0.135526  0.011849  4.014596  0.008  -0.067527  -0.138431  -0.000725  3.991166  0.001
C  C21  1  0.19737888  0.40199788  0.75671376  1  0.022249  -0.023169  3.563831  -0.02  -0.025752  -0.018237  3.837207  -0.014  -0.021771  -0.019697  3.847704  -0.016  0.045528  -0.027903  -0.016247  3.830279  -0.012
C  C22  1  0.80262649  0.59800090  0.24328716  1  0.022425  -0.023168  3.563556  -0.02  -0.025661  -0.018237  3.836998  -0.014  -0.021671  -0.019697  3.847486  -0.016  0.045598  -0.027805  -0.016247  3.830068  -0.012
C  C23  1  0.44507355  0.14487879  0.68613336  1  -0.046121  -0.026989  3.524  -0.023  -0.09864  -0.02423  3.788992  -0.018  -0.094748  -0.024345  3.799144  -0.019  0.04224  -0.100313  -0.022945  3.781781  -0.016
C  C24  1  0.55493436  0.85512274  0.31386241  1  -0.046149  -0.026987  3.52403  -0.023  -0.098668  -0.024228  3.788996  -0.018  -0.094781  -0.024343  3.79915  -0.019  0.042235  -0.100338  -0.022942  3.781787  -0.016
C  C25  1  0.57390439  0.23396452  0.03309338  1  0.513026  -0.018018  3.980804  -0.018  0.479457  -0.022306  4.262818  -0.021  0.499821  -0.020507  4.282351  -0.02  0.317226  0.465105  -0.024171  4.248066  -0.023
C  C26  1  0.42607025  0.76603831  0.96691164  1  0.512942  -0.018018  3.980598  -0.018  0.479364  -0.022317  4.26262  -0.021  0.499731  -0.020505  4.28215  -0.02  0.317209  0.465022  -0.024173  4.24787  -0.023
C  C27  1  0.24951515  0.24800912  0.06896279  1  0.501349  -0.026023  3.982628  -0.025  0.469476  -0.030622  4.260301  -0.029  0.490975  -0.02789  4.279103  -0.026  0.314026  0.454341  -0.033906  4.246207  -0.031
C  C28  1  0.75046875  0.75199923  0.93103598  1  0.501457  -0.026043  3.98263  -0.025  0.469575  -0.030646  4.260297  -0.029  0.491078  -0.027894  4.279103  -0.026  0.314012  0.454447  -0.033925  4.246202  -0.031
N  N29  1  0.73387787  0.17305343  0.02481298  1  -0.609634  -0.023252  2.880534  -0.004  -0.571351  -0.027573  3.179061  -0.004  -0.592998  -0.024666  3.182936  -0.001  -0.37504  -0.553238  -0.030705  3.175401  -0.007
N  N30  1  0.26610357  0.82694255  0.97519285  1  -0.609431  -0.023247  2.880766  -0.004  -0.571169  -0.027548  3.179339  -0.004  -0.592817  -0.024665  3.183223  -0.001  -0.374964  -0.553046  -0.030698  3.175647  -0.007
N  N31  1  0.40514428  0.31778791  0.03968915  1  -0.459019  -0.009111  3.357315  -0.008  -0.405206  -0.014404  3.618788  -0.012  -0.433639  -0.011701  3.634322  -0.009  -0.303458  -0.384076  -0.017553  3.606973  -0.014
N  N32  1  0.59485185  0.68220675  0.96030850  1  -0.459034  -0.009117  3.356875  -0.008  -0.405202  -0.014431  3.618341  -0.012  -0.433637  -0.011703  3.633878  -0.009  -0.303432  -0.384075  -0.017558  3.606522  -0.014
N  N33  1  0.09847926  0.20032199  0.09166934  1  -0.605002  -0.014896  2.787863  0.002  -0.566096  -0.026905  3.067939  -0.005  -0.587195  -0.020394  3.072575  0.0  -0.375986  -0.549236  -0.033632  3.064309  -0.011
N  N34  1  0.90151469  0.79968638  0.90832659  1  -0.605189  -0.014891  2.78794  0.002  -0.566281  -0.026884  3.068042  -0.005  -0.587389  -0.020405  3.072678  0.0  -0.376033  -0.549415  -0.033637  3.064414  -0.011
N  N35  1  0.67394163  0.56325782  0.63948972  1  0.506005  -0.004207  3.891955  -0.002  0.527581  -0.009738  4.205741  -0.007  0.551866  -0.003039  4.206914  -0.001  0.04784  0.510508  -0.016918  4.206057  -0.013
N  N36  1  0.32606048  0.43674369  0.36050977  1  0.505976  -0.004208  3.892046  -0.002  0.527532  -0.009741  4.205837  -0.007  0.551819  -0.003039  4.207009  -0.001  0.047822  0.510459  -0.01692  4.206151  -0.013
N  N37  1  0.25344221  0.21811231  0.74021985  1  0.292365  0.008431  3.715294  0.006  0.337671  -0.008228  3.983781  -0.011  0.342759  0.002479  4.007561  0.0  -0.10291  0.333472  -0.015378  3.967447  -0.018
N  N38  1  0.74656368  0.78188374  0.25977805  1  0.292286  0.008423  3.715346  0.006  0.337613  -0.00823  3.98386  -0.011  0.342703  0.002479  4.007638  0.0  -0.102979  0.333413  -0.01538  3.967529  -0.018
O  O39  1  0.12118249  0.10937735  0.77702719  1  -0.499094  0.001367  1.851477  0.013  -0.455355  0.001933  2.109903  0.015  -0.482666  0.001047  2.107145  0.015  -0.20015  -0.435152  -0.00592  2.111426  0.006
O  O40  1  0.87882414  0.89061459  0.22296777  1  -0.49906  0.001373  1.851447  0.013  -0.455327  0.001942  2.109852  0.015  -0.482636  0.001054  2.107092  0.015  -0.200135  -0.435117  -0.005909  2.111355  0.006
O  O41  1  0.62264087  0.72900062  0.60945569  1  -0.38791  -0.007451  1.778705  -0.008  -0.37416  -0.012565  2.002012  -0.014  -0.382091  -0.007048  1.995546  -0.008  -0.143015  -0.370485  -0.01804  2.007766  -0.019
O  O42  1  0.37736027  0.27099816  0.39054329  1  -0.387946  -0.007453  1.778669  -0.008  -0.374189  -0.012567  2.002004  -0.014  -0.38212  -0.007051  1.99554  -0.008  -0.143048  -0.370516  -0.018042  2.007757  -0.019
O  O43  1  0.83584895  0.50053765  0.64626743  1  -0.333978  -0.010459  1.773659  -0.012  -0.321579  -0.015703  1.99627  -0.017  -0.325934  -0.010089  1.988424  -0.011  -0.113594  -0.319812  -0.021134  2.00262  -0.022
O  O44  1  0.16415309  0.49946386  0.35373521  1  -0.333924  -0.01046  1.773713  -0.012  -0.32153  -0.015705  1.996339  -0.017  -0.325887  -0.010089  1.988494  -0.011  -0.113564  -0.319764  -0.021136  2.002688  -0.022
