# generated using pymatgen
data_Ni3H42C60(N3O8)2
_symmetry_space_group_name_H-M   'P 1'
_cell_length_a   11.23214429
_cell_length_b   16.51143890
_cell_length_c   20.18357463
_cell_angle_alpha   65.89106310
_cell_angle_beta   87.50487569
_cell_angle_gamma   83.87045598
_symmetry_Int_Tables_number   1
_chemical_formula_structural   Ni3H42C60(N3O8)2
_chemical_formula_sum   'Ni6 H84 C120 N12 O32'
_cell_volume   3397.17003347
_cell_formula_units_Z   2
loop_
 _symmetry_equiv_pos_site_id
 _symmetry_equiv_pos_as_xyz
  1  'x, y, z'
loop_
 _atom_site_type_symbol
 _atom_site_label
 _atom_site_symmetry_multiplicity
 _atom_site_fract_x
 _atom_site_fract_y
 _atom_site_fract_z
 _atom_site_occupancy
 _atom_site_pbe_bader_charge
 _atom_site_pbe_bader_spin_density
 _atom_site_pbe_cm5_charge
 _atom_site_pbe_ddec_charge
 _atom_site_pbe_ddec_spin_density
 _atom_site_pbe_ddec_sum_bond_order
 _atom_site_pbe_magmom
Ni  Ni0  1  0.08470730  0.22021897  0.95008729  1  1.14766  1.540633  0.642629  0.738899  1.769827  2.508007  1.525
Ni  Ni1  1  0.41517787  0.82971843  0.95005817  1  1.14983  1.54072  0.642563  0.739167  1.7678  2.50663  1.525
Ni  Ni2  1  0.91529037  0.77978191  0.04990957  1  1.147756  1.540634  0.642622  0.738999  1.769833  2.50776  1.525
Ni  Ni3  1  0.58482776  0.17028749  0.04994158  1  1.149941  1.540713  0.64258  0.739109  1.767774  2.506675  1.525
Ni  Ni4  1  0.24996870  0.76179841  0.47627857  1  1.131877  1.528664  0.645974  0.700085  1.755022  2.596102  1.511
Ni  Ni5  1  0.75002542  0.23820056  0.52372019  1  1.1319  1.52866  0.645971  0.700075  1.755022  2.596111  1.511
H  H6  1  0.46989140  0.36171344  0.81665524  1  0.08644  0.000512  0.102265  0.107771  0.000329  1.013899  0.0
H  H7  1  0.50850085  0.44413341  0.68359340  1  0.102777  0.000132  0.106382  0.107749  6.1e-05  0.982752  0.0
H  H8  1  0.71496513  0.42881735  0.63458586  1  0.137502  0.000174  0.113509  0.132892  7.5e-05  0.981032  0.0
H  H9  1  0.02783995  0.34821422  0.59921682  1  0.078611  1.5e-05  0.109058  0.128641  -3.9e-05  0.986998  0.0
H  H10  1  0.14332138  0.47949237  0.52676315  1  0.067499  0.000666  0.104681  0.109794  0.00045  0.998292  0.0
H  H11  1  0.00809829  0.60987579  0.66388661  1  0.102624  0.000666  0.107352  0.113894  0.000466  0.992452  0.0
H  H12  1  0.89597715  0.47775295  0.73829756  1  0.091041  5.6e-05  0.106985  0.123449  2.4e-05  0.995385  0.0
H  H13  1  0.19013442  0.76709293  0.33272441  1  0.102901  0.002151  0.11934  0.086456  0.000684  1.022358  0.001
H  H14  1  0.04601045  0.85286469  0.23368428  1  0.178135  0.000729  0.108317  0.127162  0.000376  1.054306  0.0
H  H15  1  0.87471574  0.96947325  0.37550555  1  0.083061  0.00117  0.110709  0.117564  0.000577  1.000871  0.0
H  H16  1  0.03113056  0.87921382  0.46802537  1  0.13732  0.002148  0.127161  0.104837  0.000761  0.966258  0.002
H  H17  1  0.82959462  0.07807821  0.05385233  1  0.112632  0.002174  0.12166  0.104995  0.000789  1.013337  0.002
H  H18  1  0.97981545  0.98415126  0.14754741  1  0.119866  0.001121  0.117522  0.135371  0.000539  0.987605  0.001
H  H19  1  0.71241460  0.97949227  0.31004637  1  0.103234  0.000968  0.104711  0.10894  0.000478  1.03389  0.0
H  H20  1  0.57385617  0.07309575  0.20951442  1  0.128725  0.00197  0.116096  0.083265  0.000608  1.058686  0.001
H  H21  1  0.31774011  0.28263687  0.95485949  1  0.196268  0.001933  0.124361  0.108771  0.000576  1.022809  0.001
H  H22  1  0.39964691  0.41753213  0.94681118  1  0.094262  0.001074  0.109421  0.117195  0.000521  1.019136  0.0
H  H23  1  0.04283175  0.55501526  0.89191030  1  0.070136  0.001259  0.111938  0.119827  0.00061  0.994843  0.001
H  H24  1  0.97520577  0.41076795  0.90216749  1  0.148066  0.002093  0.121874  0.099589  0.000796  0.993115  0.002
H  H25  1  0.08226032  0.04805595  0.98369635  1  0.605799  0.000649  0.316201  0.392235  0.000497  0.890167  0.0
H  H26  1  0.97256079  0.11132799  0.93315848  1  0.651938  -0.000162  0.282827  0.363624  -0.000106  0.997206  0.0
H  H27  1  0.02988224  0.82165495  0.81650947  1  0.091685  0.000506  0.102109  0.107787  0.00033  1.014295  0.0
H  H28  1  0.99102579  0.87242637  0.68344411  1  0.080871  0.000138  0.106753  0.108184  6.1e-05  0.981904  0.0
H  H29  1  0.78447171  0.93670774  0.63461284  1  0.096108  0.000174  0.11372  0.132972  7.5e-05  0.980897  0.0
H  H30  1  0.47192507  0.05258957  0.59942754  1  0.047632  1.6e-05  0.108757  0.12807  -4e-05  0.987673  0.0
H  H31  1  0.35644353  0.99381283  0.52685334  1  0.107729  0.000639  0.104516  0.108722  0.00045  0.998673  0.0
H  H32  1  0.49154774  0.72641887  0.66382672  1  0.082512  0.000671  0.107514  0.114344  0.000466  0.992082  0.0
H  H33  1  0.60382455  0.78406087  0.73830975  1  0.092682  5.6e-05  0.107121  0.123752  2.5e-05  0.995386  0.0
H  H34  1  0.31025159  0.90003746  0.33287766  1  0.129331  0.002153  0.119198  0.086139  0.000687  1.022592  0.001
H  H35  1  0.45446598  0.91316283  0.23388990  1  0.141093  0.000759  0.108273  0.126897  0.000376  1.054569  0.0
H  H36  1  0.62519705  0.65463495  0.37560531  1  0.097215  0.001157  0.110717  0.11764  0.000577  1.000671  0.0
H  H37  1  0.46873542  0.65254466  0.46805410  1  0.103041  0.002158  0.12697  0.104535  0.00076  0.967081  0.002
H  H38  1  0.67074270  0.86815172  0.05392627  1  0.16544  0.002148  0.121805  0.104943  0.000792  1.012902  0.002
H  H39  1  0.52048165  0.86818714  0.14767940  1  0.08878  0.00113  0.117562  0.135636  0.000537  0.987432  0.001
H  H40  1  0.78756817  0.70962789  0.31011540  1  0.097434  0.000959  0.104101  0.107926  0.000478  1.034203  0.0
H  H41  1  0.92632683  0.71707114  0.20952264  1  0.135065  0.001968  0.11589  0.082962  0.000608  1.058587  0.001
H  H42  1  0.18218666  0.76252446  0.95483904  1  0.173651  0.001943  0.124246  0.107682  0.000575  1.023713  0.001
H  H43  1  0.10039601  0.63553004  0.94698058  1  0.097013  0.001069  0.109344  0.117019  0.000519  1.020085  0.0
H  H44  1  0.45690621  0.55343229  0.89129853  1  0.071775  0.001258  0.111856  0.120091  0.00061  0.994415  0.001
H  H45  1  0.52448849  0.68751708  0.90146953  1  0.108903  0.002116  0.121813  0.099186  0.000796  0.99308  0.002
H  H46  1  0.41787701  0.96794440  0.98402893  1  0.601931  0.000665  0.31629  0.392198  0.000496  0.890714  0.0
H  H47  1  0.52738070  0.95546779  0.93326639  1  0.650515  -0.000151  0.283098  0.364543  -0.000101  0.996088  0.0
H  H48  1  0.53010712  0.63829649  0.18334787  1  0.08637  0.000512  0.102258  0.107752  0.00033  1.013988  0.0
H  H49  1  0.49149174  0.55586861  0.31640765  1  0.102769  0.000132  0.106351  0.10769  6.1e-05  0.982796  0.0
H  H50  1  0.28502630  0.57118269  0.36541186  1  0.13747  0.000174  0.113525  0.132903  7.5e-05  0.98101  0.0
H  H51  1  0.97215212  0.65178056  0.40078872  1  0.078547  1.5e-05  0.109078  0.128705  -3.9e-05  0.987043  0.0
H  H52  1  0.85667895  0.52050137  0.47324138  1  0.067459  0.000665  0.104696  0.109769  0.00045  0.998394  0.0
H  H53  1  0.99191938  0.39011406  0.33612626  1  0.103137  0.000667  0.107286  0.113748  0.000466  0.992617  0.0
H  H54  1  0.10403253  0.52224068  0.26171099  1  0.091087  5.6e-05  0.106929  0.12334  2.4e-05  0.995317  0.0
H  H55  1  0.80986485  0.23291028  0.66727146  1  0.102962  0.002151  0.119332  0.086414  0.000684  1.022347  0.001
H  H56  1  0.95398704  0.14713806  0.76631205  1  0.178497  0.000729  0.108266  0.127073  0.000376  1.054268  0.0
H  H57  1  0.12527343  0.03052216  0.62449345  1  0.083034  0.00117  0.110713  0.117515  0.000577  1.000865  0.0
H  H58  1  0.96886281  0.12078579  0.53197143  1  0.137201  0.002148  0.127125  0.104819  0.000761  0.966245  0.002
H  H59  1  0.17039868  0.92192034  0.94614618  1  0.112679  0.002173  0.121629  0.10493  0.000789  1.013389  0.002
H  H60  1  0.02017818  0.01584453  0.85245118  1  0.1197  0.001121  0.117542  0.135383  0.000539  0.987604  0.001
H  H61  1  0.28758218  0.02050763  0.68995145  1  0.103253  0.000968  0.104743  0.108989  0.000478  1.033739  0.0
H  H62  1  0.42614071  0.92690853  0.79048569  1  0.128778  0.00197  0.116113  0.083347  0.000608  1.058614  0.001
H  H63  1  0.68226712  0.71735925  0.04513672  1  0.196294  0.001933  0.124354  0.108781  0.000577  1.022856  0.001
H  H64  1  0.60036489  0.58246043  0.05318784  1  0.094417  0.001073  0.109404  0.11714  0.000521  1.019114  0.0
H  H65  1  0.95718304  0.44498179  0.10808890  1  0.070161  0.001259  0.111951  0.1199  0.00061  0.994704  0.001
H  H66  1  0.02480526  0.58923357  0.09782865  1  0.14822  0.002093  0.121874  0.099626  0.000796  0.993038  0.002
H  H67  1  0.91773952  0.95195049  0.01629896  1  0.605862  0.00065  0.316158  0.392163  0.000498  0.89011  0.0
H  H68  1  0.02743478  0.88867419  0.06683974  1  0.651957  -0.000162  0.282806  0.36359  -0.000105  0.997272  0.0
H  H69  1  0.97013205  0.17836436  0.18347043  1  0.09143  0.000506  0.102175  0.10772  0.00033  1.014284  0.0
H  H70  1  0.00896707  0.12758844  0.31654101  1  0.080188  0.000138  0.10671  0.108113  6.1e-05  0.981811  0.0
H  H71  1  0.21551928  0.06329850  0.36538207  1  0.09631  0.000174  0.113732  0.132982  7.5e-05  0.980927  0.0
H  H72  1  0.52807645  0.94741295  0.40056503  1  0.04785  1.6e-05  0.108763  0.128052  -4e-05  0.987708  0.0
H  H73  1  0.64355609  0.00618561  0.47314458  1  0.107609  0.000639  0.104509  0.108691  0.00045  0.998712  0.0
H  H74  1  0.50843358  0.27357945  0.33618332  1  0.082567  0.000671  0.107446  0.11437  0.000466  0.991963  0.0
H  H75  1  0.39615658  0.21594183  0.26169729  1  0.092812  5.6e-05  0.107097  0.12364  2.5e-05  0.995553  0.0
H  H76  1  0.68974903  0.09996385  0.66712404  1  0.129355  0.002153  0.119214  0.08614  0.000687  1.02266  0.001
H  H77  1  0.54553490  0.08683565  0.76611259  1  0.141072  0.000759  0.108258  0.126843  0.000377  1.054576  0.0
H  H78  1  0.37480026  0.34536362  0.62439712  1  0.097876  0.001156  0.110719  0.117676  0.000577  1.000655  0.0
H  H79  1  0.53126496  0.34745797  0.53194828  1  0.103074  0.002159  0.126983  0.104564  0.00076  0.967017  0.002
H  H80  1  0.32925078  0.13185077  0.94607430  1  0.165461  0.002148  0.121832  0.104945  0.000792  1.012937  0.002
H  H81  1  0.47951444  0.13181472  0.85232244  1  0.088843  0.00113  0.117572  0.135644  0.000537  0.98742  0.001
H  H82  1  0.21242847  0.29037139  0.68988436  1  0.097411  0.000959  0.104103  0.10796  0.000478  1.034153  0.0
H  H83  1  0.07366802  0.28292919  0.79047610  1  0.135143  0.001969  0.115874  0.082979  0.000608  1.058534  0.001
H  H84  1  0.81782053  0.23746586  0.04517146  1  0.173561  0.001943  0.124295  0.107755  0.000575  1.02361  0.001
H  H85  1  0.89961323  0.36446347  0.05302412  1  0.097235  0.001069  0.109267  0.116998  0.000519  1.020085  0.0
H  H86  1  0.54310798  0.44656404  0.10871458  1  0.071785  0.001258  0.111824  0.11999  0.00061  0.994355  0.001
H  H87  1  0.47552048  0.31248100  0.09854057  1  0.108985  0.002117  0.121829  0.099325  0.000796  0.992993  0.002
H  H88  1  0.58211982  0.03206538  0.01596576  1  0.601969  0.000664  0.316254  0.392055  0.000497  0.890808  0.0
H  H89  1  0.47262223  0.04454071  0.06673085  1  0.650176  -0.000151  0.283098  0.364508  -0.000101  0.996137  0.0
C  C90  1  0.62374293  0.25427206  0.91952716  1  1.529041  -0.003505  0.194232  0.547569  -0.005026  4.186511  -0.006
C  C91  1  0.87243772  0.23913488  0.86052095  1  1.616324  -0.000783  0.216655  0.610776  -0.001353  4.190523  -0.002
C  C92  1  0.65079916  0.30257078  0.84095741  1  -0.009523  0.006406  -0.014726  -0.037412  0.003954  3.967696  0.004
C  C93  1  0.55880162  0.35692973  0.79388147  1  0.032652  0.000169  -0.092433  -0.114865  -0.000195  3.998962  0.0
C  C94  1  0.58071184  0.40272771  0.71997919  1  -0.113429  0.003507  -0.092598  -0.072051  0.001882  4.051663  0.002
C  C95  1  0.69537271  0.39513139  0.69233382  1  -0.061636  -0.001482  -0.092816  -0.185276  -0.00165  3.992468  -0.001
C  C96  1  0.78694663  0.34231573  0.73981413  1  0.361976  0.002874  0.082034  0.21544  0.001548  4.035262  0.002
C  C97  1  0.76721800  0.29490908  0.81397566  1  0.058316  0.004827  -0.008061  -0.123047  0.002671  3.905432  0.004
C  C98  1  0.95716164  0.40654532  0.67231040  1  0.314214  -0.000966  0.084633  0.260026  -0.001061  4.044585  -0.001
C  C99  1  0.02670905  0.40515280  0.61359012  1  -0.032719  0.000666  -0.101883  -0.205037  0.000245  3.998975  0.001
C  C100  1  0.08988382  0.47796854  0.57357821  1  0.058183  0.000511  -0.083004  -0.07789  0.00018  3.996445  0.0
C  C101  1  0.08225526  0.55200353  0.59140107  1  -0.016583  0.00399  -0.026833  -0.049181  0.002592  3.999219  0.003
C  C102  1  0.01209960  0.55188780  0.65068329  1  0.023742  0.000598  -0.081146  -0.067305  0.000211  3.9858  0.001
C  C103  1  0.94979301  0.47922759  0.69161645  1  -0.049453  0.000668  -0.105916  -0.214379  0.000242  4.018458  0.001
C  C104  1  0.14480918  0.63174549  0.54724513  1  1.502728  -0.00405  0.185571  0.544611  -0.005686  4.207211  -0.006
C  C105  1  0.11937981  0.81340020  0.33953052  1  0.427706  -0.007977  0.046278  0.090902  -0.008876  3.95964  -0.005
C  C106  1  0.03759818  0.86156323  0.28445343  1  -0.02796  0.004459  -0.079645  -0.163222  0.00244  3.910194  0.004
C  C107  1  0.94656053  0.91953809  0.29572233  1  -0.033681  -0.010005  0.009024  0.098581  -0.010724  3.986669  -0.006
C  C108  1  0.94256343  0.92491805  0.36359393  1  -0.008253  0.005427  -0.082813  -0.178816  0.002946  3.957843  0.004
C  C109  1  0.02924330  0.87551961  0.41538182  1  0.433942  -0.006154  0.050376  0.096649  -0.006574  3.938199  -0.004
C  C110  1  0.80638724  0.05296475  0.11133427  1  0.481593  -0.003048  0.045235  0.081145  -0.003508  3.939477  -0.002
C  C111  1  0.89022731  0.00071202  0.16417822  1  -0.051534  0.004481  -0.074199  -0.15414  0.0025  3.901747  0.004
C  C112  1  0.85955760  0.97296007  0.23789613  1  0.023873  -0.006796  0.011942  0.101847  -0.007383  3.981681  -0.004
C  C113  1  0.74308429  0.99933271  0.25418786  1  -0.0832  0.003421  -0.083818  -0.169076  0.001868  3.936713  0.003
C  C114  1  0.66434957  0.05131997  0.19838137  1  0.502718  -0.004839  0.044002  0.096731  -0.005574  3.942011  -0.003
C  C115  1  0.25905760  0.34409143  0.94061113  1  0.41968  -0.005616  0.051444  0.09971  -0.006322  3.908713  -0.004
C  C116  1  0.30466030  0.42120993  0.93585769  1  0.018244  0.004408  -0.078943  -0.162971  0.002479  3.920851  0.004
C  C117  1  0.22789084  0.49961688  0.91969510  1  -0.083619  -0.007536  0.009541  0.099365  -0.008127  3.988155  -0.005
C  C118  1  0.10690752  0.49601784  0.90664146  1  -0.040005  0.005099  -0.08377  -0.179152  0.002843  3.950756  0.004
C  C119  1  0.06809436  0.41642040  0.91196135  1  0.492434  -0.004128  0.04881  0.093524  -0.004452  3.943052  -0.003
C  C120  1  0.87622783  0.82633714  0.91951420  1  1.521832  -0.003527  0.195292  0.549211  -0.005031  4.185459  -0.006
C  C121  1  0.62744298  0.90056931  0.86058432  1  1.623458  -0.000742  0.215885  0.610503  -0.001339  4.191537  -0.002
C  C122  1  0.84909416  0.85660742  0.84094866  1  0.044685  0.006384  -0.014529  -0.036487  0.003963  3.967388  0.004
C  C123  1  0.94096837  0.84925630  0.79381591  1  -0.011502  0.000186  -0.092422  -0.115599  -0.000197  3.999757  0.0
C  C124  1  0.91891773  0.87741666  0.71992338  1  -0.101272  0.003516  -0.092384  -0.071649  0.001889  4.051316  0.002
C  C125  1  0.80419858  0.91264294  0.69233854  1  0.006021  -0.001492  -0.09324  -0.185256  -0.001658  3.993605  -0.001
C  C126  1  0.71279802  0.91798278  0.73990037  1  0.338796  0.002886  0.081445  0.213757  0.00155  4.03709  0.002
C  C127  1  0.73266972  0.89127883  0.81405544  1  0.05343  0.004829  -0.007882  -0.122873  0.002669  3.906914  0.004
C  C128  1  0.54246092  0.92121086  0.67248558  1  0.366046  -0.000963  0.085288  0.260043  -0.001057  4.045804  -0.001
C  C129  1  0.47291133  0.98129280  0.61378675  1  0.045413  0.000656  -0.101478  -0.204029  0.000245  3.999103  0.001
C  C130  1  0.40976904  0.94851447  0.57369107  1  -0.07161  0.000548  -0.083351  -0.077009  0.000182  3.995923  0.0
C  C131  1  0.41738802  0.85670833  0.59145281  1  -0.01795  0.004011  -0.02703  -0.049813  0.002592  3.998988  0.003
C  C132  1  0.48753331  0.79756445  0.65071722  1  -0.031384  0.000611  -0.081786  -0.067878  0.000216  3.98797  0.001
C  C133  1  0.54984330  0.82925381  0.69171668  1  -9.6e-05  0.00066  -0.105851  -0.214846  0.000242  4.019565  0.001
C  C134  1  0.35499796  0.82109998  0.54719499  1  1.521083  -0.004105  0.186345  0.546931  -0.005703  4.203686  -0.006
C  C135  1  0.38086731  0.84685174  0.33965863  1  0.411062  -0.007989  0.04713  0.09201  -0.008867  3.959996  -0.005
C  C136  1  0.46271876  0.85367460  0.28460505  1  0.022945  0.004433  -0.079723  -0.162808  0.002443  3.90961  0.004
C  C137  1  0.55359438  0.78435104  0.29582382  1  -0.049091  -0.009981  0.00854  0.097248  -0.010721  3.987722  -0.006
C  C138  1  0.55743342  0.71113923  0.36367116  1  -0.015735  0.005446  -0.083002  -0.179064  0.002946  3.957881  0.004
C  C139  1  0.47071473  0.70883511  0.41543424  1  0.494501  -0.006239  0.050885  0.097779  -0.006568  3.937316  -0.004
C  C140  1  0.69391495  0.83563895  0.11142061  1  0.399333  -0.00301  0.04474  0.081182  -0.003511  3.93907  -0.002
C  C141  1  0.61004205  0.83491630  0.16429535  1  0.001696  0.004454  -0.074024  -0.154175  0.002491  3.901525  0.004
C  C142  1  0.64061091  0.78872442  0.23800272  1  0.063397  -0.006796  0.011928  0.102224  -0.007369  3.98134  -0.004
C  C143  1  0.75699934  0.74591346  0.25426216  1  -0.099859  0.003386  -0.082421  -0.167239  0.001863  3.934685  0.003
C  C144  1  0.83581861  0.74995273  0.19843482  1  0.472172  -0.004827  0.04435  0.097249  -0.005559  3.941343  -0.003
C  C145  1  0.24085397  0.71536504  0.94051027  1  0.443044  -0.005633  0.051772  0.101737  -0.006315  3.908893  -0.004
C  C146  1  0.19530879  0.64292228  0.93587033  1  0.039032  0.004394  -0.078865  -0.163205  0.002474  3.922451  0.004
C  C147  1  0.27203030  0.58072792  0.91959022  1  -0.073742  -0.007495  0.009038  0.098058  -0.008117  3.989476  -0.005
C  C148  1  0.39290238  0.59758787  0.90622188  1  0.019281  0.005038  -0.082774  -0.178281  0.002837  3.950224  0.004
C  C149  1  0.43168118  0.67193296  0.91146449  1  0.473807  -0.004084  0.047983  0.0933  -0.004441  3.942305  -0.003
C  C150  1  0.37626174  0.74574065  0.08047383  1  1.530619  -0.003502  0.194407  0.547858  -0.005025  4.186624  -0.006
C  C151  1  0.12755946  0.76086914  0.13947677  1  1.616246  -0.000783  0.216625  0.610568  -0.001352  4.190815  -0.002
C  C152  1  0.34920468  0.69743669  0.15904082  1  -0.009382  0.006408  -0.014697  -0.037571  0.003955  3.967653  0.004
C  C153  1  0.44119754  0.64307618  0.20612032  1  0.032971  0.000168  -0.092394  -0.11468  -0.000195  3.998884  0.0
C  C154  1  0.41928334  0.59727568  0.28002115  1  -0.113397  0.003508  -0.092681  -0.072178  0.001882  4.051666  0.002
C  C155  1  0.30462117  0.60486840  0.30766611  1  -0.061566  -0.001482  -0.092726  -0.185131  -0.001651  3.992251  -0.001
C  C156  1  0.21304627  0.65768503  0.26018552  1  0.362242  0.002875  0.082038  0.215389  0.001548  4.035106  0.002
C  C157  1  0.23277912  0.70509438  0.18602327  1  0.057693  0.004826  -0.008072  -0.122879  0.00267  3.905216  0.004
C  C158  1  0.04284099  0.59344855  0.32769729  1  0.313803  -0.000966  0.084672  0.259957  -0.001061  4.044302  -0.001
C  C159  1  0.97328723  0.59484368  0.38641570  1  -0.032432  0.000666  -0.10187  -0.205033  0.000245  3.998889  0.001
C  C160  1  0.91011985  0.52202543  0.42642805  1  0.058676  0.00051  -0.082991  -0.07782  0.00018  3.996584  0.0
C  C161  1  0.91774946  0.44798953  0.40860476  1  -0.016588  0.003991  -0.026846  -0.049305  0.002592  3.999275  0.003
C  C162  1  0.98791392  0.44810141  0.34932760  1  0.022774  0.000598  -0.081165  -0.067218  0.000212  3.986019  0.001
C  C163  1  0.05021416  0.52076522  0.30839159  1  -0.049374  0.000668  -0.105845  -0.214126  0.000242  4.018371  0.001
C  C164  1  0.85518974  0.36824810  0.45275626  1  1.502413  -0.004051  0.18551  0.544746  -0.005687  4.207021  -0.006
C  C165  1  0.88061695  0.18660170  0.66046534  1  0.427618  -0.007976  0.046362  0.091055  -0.008876  3.959471  -0.005
C  C166  1  0.96239947  0.13843864  0.71554244  1  -0.027943  0.004458  -0.079691  -0.163181  0.002439  3.910052  0.004
C  C167  1  0.05343383  0.08045906  0.70427624  1  -0.033853  -0.010004  0.00913  0.09854  -0.010724  3.986588  -0.006
C  C168  1  0.05742906  0.07508058  0.63640385  1  -0.008169  0.005427  -0.08287  -0.178687  0.002945  3.957915  0.004
C  C169  1  0.97075097  0.12447898  0.58461599  1  0.433851  -0.006153  0.050391  0.096572  -0.006572  3.93844  -0.004
C  C170  1  0.19360508  0.94703476  0.88866396  1  0.481279  -0.003047  0.045282  0.081399  -0.003506  3.939507  -0.002
C  C171  1  0.10976536  0.99928323  0.83582157  1  -0.051317  0.004481  -0.074118  -0.154083  0.002499  3.90186  0.004
C  C172  1  0.14043595  0.02703616  0.76210269  1  0.024009  -0.006796  0.011819  0.101764  -0.007383  3.981707  -0.004
C  C173  1  0.25690829  0.00066398  0.74581117  1  -0.083195  0.00342  -0.083755  -0.168995  0.001867  3.936429  0.003
C  C174  1  0.33564529  0.94867936  0.80161835  1  0.502607  -0.00484  0.043967  0.096653  -0.005575  3.941873  -0.003
C  C175  1  0.74094948  0.65590407  0.05938701  1  0.418616  -0.005612  0.051439  0.099673  -0.006321  3.909197  -0.004
C  C176  1  0.69534922  0.57878632  0.06414168  1  0.019282  0.004405  -0.078811  -0.162682  0.002479  3.920888  0.004
C  C177  1  0.77212106  0.50037905  0.08030719  1  -0.083426  -0.007536  0.009443  0.09914  -0.008127  3.988413  -0.005
C  C178  1  0.89310102  0.50398037  0.09335663  1  -0.040374  0.005099  -0.083653  -0.179055  0.002843  3.950611  0.004
C  C179  1  0.93191554  0.58358296  0.08803496  1  0.492579  -0.00413  0.048667  0.093383  -0.004455  3.943053  -0.003
C  C180  1  0.12378641  0.17366323  0.08047843  1  1.523509  -0.003522  0.195148  0.5491  -0.005031  4.185438  -0.006
C  C181  1  0.37256778  0.09942847  0.13941815  1  1.623406  -0.000744  0.215873  0.610535  -0.001339  4.191199  -0.002
C  C182  1  0.15092155  0.14339517  0.15904442  1  0.045051  0.006385  -0.014494  -0.036656  0.003964  3.967927  0.004
C  C183  1  0.05903903  0.15075182  0.20617375  1  -0.01154  0.000188  -0.092502  -0.115448  -0.000197  3.999888  0.0
C  C184  1  0.08107887  0.12259418  0.28006432  1  -0.101066  0.003516  -0.092304  -0.071555  0.001889  4.051346  0.002
C  C185  1  0.19579937  0.08735967  0.30765396  1  0.006169  -0.001492  -0.093387  -0.185369  -0.001658  3.993776  -0.001
C  C186  1  0.28719850  0.08202044  0.26009616  1  0.338814  0.002885  0.081546  0.213834  0.00155  4.037154  0.002
C  C187  1  0.26733175  0.10872062  0.18594081  1  0.053215  0.004829  -0.007886  -0.122752  0.002668  3.907083  0.004
C  C188  1  0.45753553  0.07879180  0.32751217  1  0.366172  -0.000963  0.085339  0.260124  -0.001057  4.045927  -0.001
C  C189  1  0.52708567  0.01870878  0.38620743  1  0.045071  0.000656  -0.101533  -0.204042  0.000245  3.999081  0.001
C  C190  1  0.59023050  0.05148492  0.42630658  1  -0.071327  0.000547  -0.083296  -0.076926  0.000181  3.99583  0.0
C  C191  1  0.58260306  0.14328891  0.40855097  1  -0.017983  0.004011  -0.027057  -0.049894  0.002592  3.998931  0.003
C  C192  1  0.51245543  0.20243592  0.34928811  1  -0.031726  0.000611  -0.081729  -0.067933  0.000216  3.987789  0.001
C  C193  1  0.45014421  0.17075085  0.30828707  1  -1.3e-05  0.00066  -0.105793  -0.214659  0.000242  4.019778  0.001
C  C194  1  0.64499698  0.17889741  0.45280599  1  1.521176  -0.004105  0.186454  0.547088  -0.005702  4.203476  -0.006
C  C195  1  0.61913170  0.15314773  0.66034357  1  0.411036  -0.007987  0.047057  0.091928  -0.008865  3.960282  -0.005
C  C196  1  0.53727975  0.14632369  0.71539501  1  0.022848  0.004433  -0.07973  -0.162698  0.002443  3.909593  0.004
C  C197  1  0.44640202  0.21564856  0.70417760  1  -0.048927  -0.009981  0.008592  0.097248  -0.01072  3.987804  -0.006
C  C198  1  0.44256477  0.28885982  0.63633079  1  -0.01654  0.005447  -0.083078  -0.179256  0.002946  3.957925  0.004
C  C199  1  0.52928590  0.29116519  0.58456844  1  0.494528  -0.00624  0.050889  0.097868  -0.006569  3.937256  -0.004
C  C200  1  0.30607796  0.16436130  0.88857953  1  0.399402  -0.003011  0.044746  0.081275  -0.003512  3.93893  -0.002
C  C201  1  0.38995265  0.16508390  0.83570482  1  0.001615  0.004454  -0.074082  -0.154277  0.002491  3.901409  0.004
C  C202  1  0.35938420  0.21127158  0.76199830  1  0.063482  -0.006796  0.011988  0.102324  -0.007369  3.981316  -0.004
C  C203  1  0.24299576  0.25408355  0.74573786  1  -0.100116  0.003386  -0.082399  -0.16725  0.001863  3.934643  0.003
C  C204  1  0.16417535  0.25004661  0.80156488  1  0.472262  -0.004828  0.044309  0.097173  -0.005559  3.941434  -0.003
C  C205  1  0.75915459  0.28462943  0.05949943  1  0.440018  -0.005627  0.051764  0.101903  -0.006313  3.908621  -0.004
C  C206  1  0.80470040  0.35706967  0.06413657  1  0.041738  0.00439  -0.078813  -0.163407  0.002473  3.922519  0.004
C  C207  1  0.72797993  0.41927094  0.08041580  1  -0.073884  -0.007496  0.009034  0.098203  -0.008118  3.989506  -0.005
C  C208  1  0.60711153  0.40240746  0.09378695  1  0.019484  0.005039  -0.082759  -0.178214  0.002837  3.950211  0.004
C  C209  1  0.56832916  0.32806196  0.08854476  1  0.474175  -0.004085  0.047963  0.093128  -0.004444  3.94247  -0.003
N  N210  1  0.11759498  0.82096039  0.40345505  1  -1.192143  0.067238  -0.33365  -0.227739  0.039442  3.632153  0.06
N  N211  1  0.69475749  0.07823398  0.12783478  1  -1.22845  0.07229  -0.334253  -0.248745  0.042165  3.640917  0.065
N  N212  1  0.14253206  0.34104279  0.92961890  1  -1.21052  0.075718  -0.32578  -0.220302  0.044399  3.5949  0.068
N  N213  1  0.38246097  0.77538034  0.40351836  1  -1.221891  0.067384  -0.334003  -0.228939  0.039433  3.633677  0.06
N  N214  1  0.80549070  0.79380770  0.12790268  1  -1.224948  0.072266  -0.334809  -0.249136  0.04214  3.641577  0.065
N  N215  1  0.35732118  0.72951441  0.92934831  1  -1.211511  0.075693  -0.3254  -0.22068  0.044323  3.594599  0.068
N  N216  1  0.88240260  0.17904092  0.59654203  1  -1.192231  0.067236  -0.333665  -0.227787  0.039441  3.632262  0.06
N  N217  1  0.30523833  0.92176588  0.87216375  1  -1.228296  0.072282  -0.334332  -0.249068  0.042162  3.640994  0.065
N  N218  1  0.85747581  0.65895612  0.07037652  1  -1.210835  0.075713  -0.325798  -0.220404  0.044397  3.595124  0.068
N  N219  1  0.61753439  0.22462016  0.59648350  1  -1.221698  0.067388  -0.333938  -0.228928  0.039435  3.633808  0.06
N  N220  1  0.19450172  0.20619037  0.87209630  1  -1.22508  0.072266  -0.334798  -0.249162  0.042141  3.641763  0.065
N  N221  1  0.64268170  0.27048396  0.07066022  1  -1.211815  0.075688  -0.325378  -0.220751  0.044325  3.59449  0.068
O  O222  1  0.70259384  0.19619896  0.96152895  1  -1.125321  0.089129  -0.302953  -0.51123  0.049976  2.249079  0.08
O  O223  1  0.52247973  0.27088856  0.94492905  1  -1.144763  0.076821  -0.307894  -0.529483  0.043287  2.218662  0.069
O  O224  1  0.89557005  0.16021683  0.86523558  1  -1.171728  0.001775  -0.316203  -0.54188  0.000512  2.186878  0.001
O  O225  1  0.93395559  0.27909727  0.88756247  1  -1.152463  0.064998  -0.313862  -0.550431  0.036855  2.320937  0.06
O  O226  1  0.90122070  0.33095478  0.71332425  1  -1.108576  0.000442  -0.152654  -0.229176  0.000182  2.618194  0.0
O  O227  1  0.12325812  0.70271266  0.55845166  1  -1.125705  0.08549  -0.322354  -0.526751  0.048133  2.169073  0.076
O  O228  1  0.21925245  0.62973954  0.49759753  1  -1.133508  0.090999  -0.330942  -0.548175  0.051137  2.171879  0.081
O  O229  1  0.01873852  0.09435108  0.98077424  1  -1.22454  0.063789  -0.564676  -0.73208  0.036406  2.166844  0.055
O  O230  1  0.79741128  0.84239826  0.96156014  1  -1.123213  0.089213  -0.303449  -0.512458  0.049987  2.249131  0.081
O  O231  1  0.97752139  0.78434742  0.94488560  1  -1.142069  0.076901  -0.308295  -0.529985  0.043352  2.218849  0.069
O  O232  1  0.60418097  0.97478283  0.86527804  1  -1.168687  0.001773  -0.315952  -0.54202  0.000506  2.186321  0.001
O  O233  1  0.56597202  0.83357429  0.88757216  1  -1.159523  0.064957  -0.31405  -0.550441  0.036805  2.321198  0.06
O  O234  1  0.59841951  0.95579370  0.71353319  1  -1.112197  0.00045  -0.152587  -0.228507  0.000185  2.618646  0.0
O  O235  1  0.37676307  0.73896229  0.55835177  1  -1.120143  0.085544  -0.322685  -0.527433  0.048181  2.168497  0.076
O  O236  1  0.28050130  0.87264560  0.49754930  1  -1.140931  0.091135  -0.330772  -0.548895  0.051187  2.170679  0.081
O  O237  1  0.48140029  0.92468418  0.98092262  1  -1.220367  0.063765  -0.565008  -0.732986  0.036377  2.166045  0.055
O  O238  1  0.29740765  0.80380532  0.03846980  1  -1.125417  0.089131  -0.302937  -0.511266  0.049978  2.249106  0.081
O  O239  1  0.47753087  0.72913207  0.05507400  1  -1.146149  0.076831  -0.308114  -0.529755  0.043292  2.218802  0.069
O  O240  1  0.10442906  0.83978826  0.13475975  1  -1.171658  0.001776  -0.316159  -0.541771  0.000512  2.186969  0.001
O  O241  1  0.06604434  0.72090723  0.11243410  1  -1.152551  0.064996  -0.313843  -0.550366  0.036852  2.320964  0.06
O  O242  1  0.09877496  0.66904597  0.28667473  1  -1.108534  0.000443  -0.152707  -0.229299  0.000182  2.618129  0.0
O  O243  1  0.87674614  0.29728229  0.44154836  1  -1.125868  0.085495  -0.322316  -0.526758  0.048133  2.169003  0.076
O  O244  1  0.78073596  0.37025851  0.50239755  1  -1.133268  0.090998  -0.330888  -0.548215  0.051137  2.171792  0.081
O  O245  1  0.98125535  0.90565021  0.01922421  1  -1.224614  0.063788  -0.564651  -0.732013  0.036405  2.166701  0.055
O  O246  1  0.20259706  0.15759902  0.03843294  1  -1.12324  0.089209  -0.303409  -0.512327  0.049987  2.24907  0.081
O  O247  1  0.02249068  0.21565519  0.05510813  1  -1.143532  0.076895  -0.308247  -0.529967  0.043351  2.218742  0.069
O  O248  1  0.39583618  0.02521591  0.13472212  1  -1.16872  0.001772  -0.315897  -0.542027  0.000505  2.18622  0.001
O  O249  1  0.43403524  0.16642565  0.11242754  1  -1.159386  0.064958  -0.314055  -0.550485  0.036806  2.321116  0.06
O  O250  1  0.40157883  0.04420598  0.28646683  1  -1.11218  0.00045  -0.152592  -0.228585  0.000185  2.618667  0.0
O  O251  1  0.62323166  0.26103442  0.44165185  1  -1.120093  0.085545  -0.322811  -0.527553  0.048181  2.168437  0.076
O  O252  1  0.71949292  0.12735093  0.50245120  1  -1.141045  0.091131  -0.330769  -0.548914  0.051185  2.170697  0.081
O  O253  1  0.51859987  0.07532683  0.01907282  1  -1.220239  0.06378  -0.564977  -0.732779  0.036377  2.166159  0.055
