# generated using pymatgen
data_AgH5C7SO
_symmetry_space_group_name_H-M   'P 1'
_cell_length_a   5.63869167
_cell_length_b   7.54773226
_cell_length_c   31.91780000
_cell_angle_alpha   90.00000000
_cell_angle_beta   90.00000000
_cell_angle_gamma   90.00000000
_symmetry_Int_Tables_number   1
_chemical_formula_structural   AgH5C7SO
_chemical_formula_sum   'Ag8 H40 C56 S8 O8'
_cell_volume   1358.40034450
_cell_formula_units_Z   8
loop_
 _symmetry_equiv_pos_site_id
 _symmetry_equiv_pos_as_xyz
  1  'x, y, z'
loop_
 _atom_site_type_symbol
 _atom_site_label
 _atom_site_symmetry_multiplicity
 _atom_site_fract_x
 _atom_site_fract_y
 _atom_site_fract_z
 _atom_site_occupancy
 _atom_site_hle17_bader_spin_density
 _atom_site_hle17_ddec_charge
 _atom_site_hle17_ddec_spin_density
 _atom_site_hle17_ddec_sum_bond_order
 _atom_site_hle17_magmom
 _atom_site_hse06_10hf_bader_spin_density
 _atom_site_hse06_10hf_ddec_charge
 _atom_site_hse06_10hf_ddec_spin_density
 _atom_site_hse06_10hf_ddec_sum_bond_order
 _atom_site_hse06_10hf_magmom
 _atom_site_hse06_bader_spin_density
 _atom_site_hse06_ddec_charge
 _atom_site_hse06_ddec_spin_density
 _atom_site_hse06_ddec_sum_bond_order
 _atom_site_hse06_magmom
 _atom_site_pbe_bader_charge
 _atom_site_pbe_bader_spin_density
 _atom_site_pbe_cm5_charge
 _atom_site_pbe_ddec_charge
 _atom_site_pbe_ddec_spin_density
 _atom_site_pbe_ddec_sum_bond_order
 _atom_site_pbe_magmom
Ag  Ag0  1  0.00025893  0.80936761  0.23609679  1  0  0.40648  0  1.932759  0  0  0.31993  0  2.445008  0  0  0.33972  0  2.394612  0  0.424856  0  0.320286  0.306863  0  2.479291  0
Ag  Ag1  1  0.49974181  0.19064004  0.73609929  1  0  0.406391  0  1.932763  0  0  0.319835  0  2.445023  0  0  0.339625  0  2.394626  0  0.424822  0  0.320255  0.306788  0  2.479272  0
Ag  Ag2  1  0.99975674  0.30936047  0.26390478  1  0  0.406436  0  1.932728  0  0  0.319862  0  2.444983  0  0  0.339646  0  2.394592  0  0.424868  0  0.32026  0.306793  0  2.479282  0
Ag  Ag3  1  0.50024902  0.69063658  0.76390384  1  0  0.406514  0  1.932648  0  0  0.319965  0  2.444897  0  0  0.339752  0  2.394503  0  0.424829  0  0.320269  0.306882  0  2.47922  0
Ag  Ag4  1  0.99973900  0.19063474  0.76390478  1  0  0.406347  0  1.932701  0  0  0.319776  0  2.444972  0  0  0.339567  0  2.394572  0  0.424881  0  0.320204  0.306685  0  2.479292  0
Ag  Ag5  1  0.50025257  0.80937026  0.26390102  1  0  0.406422  0  1.932894  0  0  0.319874  0  2.445125  0  0  0.339644  0  2.394758  0  0.424828  0  0.320292  0.306837  0  2.479357  0
Ag  Ag6  1  0.00025360  0.69063923  0.73609616  1  0  0.406398  0  1.932755  0  0  0.319837  0  2.445012  0  0  0.339626  0  2.394615  0  0.424818  0  0.320238  0.306762  0  2.479322  0
Ag  Ag7  1  0.49975955  0.30936312  0.23609647  1  0  0.406481  0  1.932595  0  0  0.319916  0  2.444823  0  0  0.339702  0  2.394432  0  0.42482  0  0.32026  0.306833  0  2.479142  0
H  H8  1  0.29854443  0.66674331  0.14183120  1  0  0.104325  0  0.954342  0  0  0.115755  0  1.013162  0  0  0.117851  0  1.013165  0  0.10508  0  0.098863  0.114205  0  1.013219  0
H  H9  1  0.20146872  0.33324447  0.64183058  1  0  0.104323  0  0.954276  0  0  0.115835  0  1.012967  0  0  0.117933  0  1.012971  0  0.105213  0  0.09892  0.114285  0  1.013023  0
H  H10  1  0.70145172  0.16674810  0.35816942  1  0  0.104355  0  0.954158  0  0  0.115799  0  1.012959  0  0  0.117896  0  1.01296  0  0.10509  0  0.098884  0.114248  0  1.013016  0
H  H11  1  0.79854872  0.83324630  0.85816786  1  0  0.104299  0  0.954305  0  0  0.11578  0  1.013053  0  0  0.117876  0  1.013055  0  0.104976  0  0.098883  0.11423  0  1.013109  0
H  H12  1  0.70145172  0.33324976  0.85816848  1  0  0.104344  0  0.954291  0  0  0.115841  0  1.013022  0  0  0.117938  0  1.013024  0  0.104975  0  0.098906  0.114291  0  1.013078  0
H  H13  1  0.79854162  0.66675789  0.35816974  1  0  0.104338  0  0.954213  0  0  0.115748  0  1.01306  0  0  0.117846  0  1.013058  0  0.105084  0  0.098863  0.114197  0  1.013115  0
H  H14  1  0.29854266  0.83325028  0.64183308  1  0  0.104321  0  0.954181  0  0  0.115809  0  1.012921  0  0  0.117906  0  1.012923  0  0.105101  0  0.098874  0.114259  0  1.012977  0
H  H15  1  0.20143148  0.16676002  0.14183026  1  0  0.104303  0  0.954319  0  0  0.115705  0  1.013185  0  0  0.117792  0  1.013189  0  0.105062  0  0.098851  0.114156  0  1.013238  0
H  H16  1  0.38577034  0.77434649  0.06989235  1  0  0.082197  0  0.991024  0  0  0.091393  0  1.055239  0  0  0.092841  0  1.057547  0  0.083213  0  0.094229  0.090347  0  1.053758  0
H  H17  1  0.11425877  0.22564791  0.56989141  1  0  0.082255  0  0.990997  0  0  0.091366  0  1.055302  0  0  0.092813  0  1.057611  0  0.083194  0  0.094158  0.090321  0  1.05382  0
H  H18  1  0.61424710  0.27434995  0.43010953  1  0  0.08213  0  0.990958  0  0  0.091298  0  1.055228  0  0  0.092748  0  1.057534  0  0.083135  0  0.094166  0.090252  0  1.053746  0
H  H19  1  0.88576221  0.72565505  0.93010765  1  0  0.082124  0  0.991076  0  0  0.091318  0  1.055309  0  0  0.092765  0  1.057616  0  0.083271  0  0.094175  0.090272  0  1.053828  0
H  H20  1  0.61424355  0.22565453  0.93010671  1  0  0.082199  0  0.990926  0  0  0.091331  0  1.055228  0  0  0.092779  0  1.057537  0  0.083037  0  0.094163  0.090285  0  1.053747  0
H  H21  1  0.88574802  0.77435312  0.43010984  1  0  0.082112  0  0.990939  0  0  0.091286  0  1.055202  0  0  0.092732  0  1.057514  0  0.083164  0  0.094147  0.090241  0  1.05372  0
H  H22  1  0.38575083  0.72565107  0.56989360  1  0  0.082212  0  0.991017  0  0  0.091338  0  1.055316  0  0  0.092785  0  1.057626  0  0.083028  0  0.094197  0.090294  0  1.053834  0
H  H23  1  0.11423572  0.27435260  0.06989016  1  0  0.082252  0  0.990901  0  0  0.091408  0  1.055158  0  0  0.092858  0  1.057465  0  0.083197  0  0.094228  0.090361  0  1.053679  0
H  H24  1  0.10177716  0.71430594  0.01179248  1  0  0.077782  0  0.973526  0  0  0.09025  0  1.035122  0  0  0.092601  0  1.034206  0  0.083084  0  0.096004  0.088562  0  1.035809  0
H  H25  1  0.39823422  0.28569773  0.51179060  1  0  0.077794  0  0.97348  0  0  0.090261  0  1.035081  0  0  0.092613  0  1.034162  0  0.083122  0  0.096027  0.088572  0  1.03577  0
H  H26  1  0.89824206  0.21430278  0.48820783  1  0  0.077856  0  0.973511  0  0  0.090318  0  1.035117  0  0  0.092671  0  1.034194  0  0.083088  0  0.096082  0.088631  0  1.035801  0
H  H27  1  0.60177967  0.78568765  0.98820877  1  0  0.077783  0  0.973443  0  0  0.090243  0  1.035067  0  0  0.092595  0  1.034141  0  0.083013  0  0.09601  0.088553  0  1.035757  0
H  H28  1  0.89822787  0.28569641  0.98820752  1  0  0.077843  0  0.973497  0  0  0.090302  0  1.035105  0  0  0.09266  0  1.03417  0  0.0831  0  0.096032  0.088615  0  1.035789  0
H  H29  1  0.60176193  0.71430064  0.48820783  1  0  0.077841  0  0.973479  0  0  0.090304  0  1.035089  0  0  0.09266  0  1.034153  0  0.083108  0  0.096084  0.088616  0  1.035777  0
H  H30  1  0.10177184  0.78569427  0.51179436  1  0  0.077799  0  0.973415  0  0  0.090259  0  1.035038  0  0  0.092616  0  1.0341  0  0.08314  0  0.09599  0.088557  0  1.035739  0
H  H31  1  0.39821649  0.21430808  0.01179029  1  0  0.07778  0  0.973462  0  0  0.090229  0  1.035092  0  0  0.09259  0  1.034155  0  0.083136  0  0.095998  0.08854  0  1.03578  0
H  H32  1  0.72547503  0.55155905  0.02638371  1  0  0.079387  0  0.964869  0  0  0.091816  0  1.025573  0  0  0.094258  0  1.025092  0  0.061521  0  0.096279  0.089994  0  1.026108  0
H  H33  1  0.77453605  0.44845258  0.52637964  1  0  0.07931  0  0.964881  0  0  0.091775  0  1.025559  0  0  0.094188  0  1.025112  0  0.061425  0  0.096277  0.089949  0  1.026097  0
H  H34  1  0.27453886  0.05154263  0.47361723  1  0  0.079366  0  0.964873  0  0  0.091786  0  1.025587  0  0  0.094237  0  1.025096  0  0.06151  0  0.096286  0.089965  0  1.02612  0
H  H35  1  0.22547961  0.94844117  0.97361911  1  0  0.079359  0  0.96488  0  0  0.091779  0  1.025588  0  0  0.094225  0  1.025103  0  0.061601  0  0.096281  0.08996  0  1.026124  0
H  H36  1  0.27452645  0.44845390  0.97361754  1  0  0.079371  0  0.964856  0  0  0.091784  0  1.025576  0  0  0.094238  0  1.025082  0  0.061578  0  0.096309  0.089966  0  1.02611  0
H  H37  1  0.22546720  0.55154182  0.47361880  1  0  0.079463  0  0.964873  0  0  0.091924  0  1.025531  0  0  0.094344  0  1.025074  0  0.061449  0  0.096338  0.0901  0  1.026069  0
H  H38  1  0.72547148  0.94845177  0.52638308  1  0  0.079326  0  0.964889  0  0  0.091741  0  1.025613  0  0  0.094194  0  1.02512  0  0.061535  0  0.096278  0.089924  0  1.026145  0
H  H39  1  0.77451300  0.05155721  0.02638308  1  0  0.07944  0  0.964808  0  0  0.091883  0  1.025503  0  0  0.094308  0  1.025042  0  0.061569  0  0.096306  0.090054  0  1.02604  0
H  H40  1  0.63568292  0.45080295  0.09895137  1  0  0.098762  0  0.976853  0  0  0.106591  0  1.0431  0  0  0.108999  0  1.043017  0  0.099328  0  0.101941  0.104856  0  1.043212  0
H  H41  1  0.86432284  0.54920205  0.59894761  1  0  0.098878  0  0.976956  0  0  0.106644  0  1.043238  0  0  0.109054  0  1.04315  0  0.099406  0  0.101944  0.104911  0  1.043351  0
H  H42  1  0.36431323  0.95079287  0.40104926  1  0  0.098845  0  0.976984  0  0  0.106664  0  1.043237  0  0  0.109074  0  1.043149  0  0.099433  0  0.101967  0.10493  0  1.043347  0
H  H43  1  0.13569105  0.04918431  0.90105114  1  0  0.098844  0  0.976792  0  0  0.106661  0  1.043049  0  0  0.109072  0  1.042961  0  0.099601  0  0.101981  0.104923  0  1.043157  0
H  H44  1  0.36430791  0.54920602  0.90104988  1  0  0.098792  0  0.97684  0  0  0.10666  0  1.04305  0  0  0.109069  0  1.042963  0  0.099497  0  0.10193  0.104921  0  1.043156  0
H  H45  1  0.13568750  0.45079103  0.40104926  1  0  0.098849  0  0.976948  0  0  0.106656  0  1.043216  0  0  0.10907  0  1.04312  0  0.099437  0  0.10196  0.104921  0  1.043326  0
H  H46  1  0.63568115  0.04920816  0.59895043  1  0  0.098814  0  0.977031  0  0  0.10663  0  1.043285  0  0  0.10904  0  1.043197  0  0.099399  0  0.101951  0.104898  0  1.043397  0
H  H47  1  0.86429092  0.95079684  0.09894949  1  0  0.09891  0  0.976732  0  0  0.106765  0  1.042939  0  0  0.109182  0  1.04285  0  0.09964  0  0.101962  0.105023  0  1.043044  0
C  C48  1  0.89711059  0.48388971  0.16704629  1  0  0.429198  0  3.706999  0  0  0.40653  0  3.983538  0  0  0.435106  0  3.984671  0  0.827432  0  0.145623  0.38677  0  3.982522  0
C  C49  1  0.60290582  0.51610999  0.66704409  1  0  0.42939  0  3.706714  0  0  0.406779  0  3.983145  0  0  0.435356  0  3.984273  0  0.827583  0  0.145665  0.387003  0  3.982163  0
C  C50  1  0.10288734  0.98389023  0.33295465  1  0  0.429389  0  3.706717  0  0  0.406722  0  3.983191  0  0  0.4353  0  3.984317  0  0.827419  0  0.145625  0.386933  0  3.982231  0
C  C51  1  0.39710276  0.01610550  0.83295497  1  0  0.429255  0  3.706919  0  0  0.406654  0  3.98337  0  0  0.435235  0  3.984493  0  0.827621  0  0.145602  0.386899  0  3.982351  0
C  C52  1  0.10288380  0.51611131  0.83295277  1  0  0.42934  0  3.706377  0  0  0.406625  0  3.983012  0  0  0.435201  0  3.984141  0  0.827472  0  0.145654  0.386857  0  3.982009  0
C  C53  1  0.39711340  0.48389369  0.33295340  1  0  0.429484  0  3.706626  0  0  0.406842  0  3.983071  0  0  0.435426  0  3.984183  0  0.827429  0  0.145639  0.387049  0  3.982116  0
C  C54  1  0.89708753  0.01610947  0.66704629  1  0  0.429495  0  3.706611  0  0  0.406832  0  3.983067  0  0  0.435411  0  3.98419  0  0.827581  0  0.145723  0.387045  0  3.982109  0
C  C55  1  0.60288985  0.98388360  0.16704409  1  0  0.42901  0  3.706715  0  0  0.406238  0  3.98344  0  0  0.43481  0  3.984577  0  0.827428  0  0.145551  0.386484  0  3.982407  0
C  C56  1  0.96088779  0.55296742  0.12478836  1  0  -0.022843  0  3.742157  0  0  0.002048  0  3.967406  0  0  -0.006242  0  3.990181  0  -0.012396  0  -0.01566  0.007228  0  3.952591  0
C  C57  1  0.53913038  0.44703493  0.62478711  1  0  -0.022877  0  3.742174  0  0  0.001982  0  3.967399  0  0  -0.006302  0  3.990161  0  -0.012436  0  -0.015661  0.007165  0  3.952594  0
C  C58  1  0.03911368  0.05296160  0.37521164  1  0  -0.023027  0  3.742118  0  0  0.00196  0  3.967263  0  0  -0.006328  0  3.990028  0  -0.012638  0  -0.015665  0.007149  0  3.952453  0
C  C59  1  0.46089238  0.94702220  0.87521352  1  0  -0.022767  0  3.742049  0  0  0.002116  0  3.967283  0  0  -0.006171  0  3.990051  0  -0.013421  0  -0.015617  0.007291  0  3.952473  0
C  C60  1  0.03911368  0.44703493  0.87520913  1  0  -0.022689  0  3.741861  0  0  0.002208  0  3.9672  0  0  -0.006071  0  3.989955  0  -0.01239  0  -0.015642  0.007388  0  3.952389  0
C  C61  1  0.46087996  0.55296874  0.37521258  1  0  -0.023149  0  3.742146  0  0  0.001792  0  3.967281  0  0  -0.006544  0  3.990139  0  -0.012351  0  -0.015721  0.006981  0  3.952474  0
C  C62  1  0.96087183  0.94703810  0.62478680  1  0  -0.022992  0  3.742054  0  0  0.00199  0  3.967178  0  0  -0.006307  0  3.989964  0  -0.012436  0  -0.015679  0.007177  0  3.95237  0
C  C63  1  0.53910378  0.05296955  0.12479056  1  0  -0.022615  0  3.742056  0  0  0.002338  0  3.967301  0  0  -0.005924  0  3.990023  0  -0.01296  0  -0.01565  0.007515  0  3.952488  0
C  C64  1  0.17271560  0.64377217  0.11647043  1  0  -0.050758  0  3.681487  0  0  -0.075743  0  3.926782  0  0  -0.074345  0  3.946448  0  -0.034292  0  -0.07618  -0.076553  0  3.913547  0
C  C65  1  0.32730642  0.35622488  0.61646981  1  0  -0.050799  0  3.681675  0  0  -0.07581  0  3.926918  0  0  -0.074415  0  3.946588  0  -0.034466  0  -0.076252  -0.076622  0  3.913686  0
C  C66  1  0.82729297  0.14377166  0.38352957  1  0  -0.050791  0  3.681483  0  0  -0.07583  0  3.926782  0  0  -0.07443  0  3.946442  0  -0.034291  0  -0.076221  -0.076639  0  3.913542  0
C  C67  1  0.67271456  0.85621479  0.88353082  1  0  -0.050855  0  3.681688  0  0  -0.075861  0  3.926973  0  0  -0.074463  0  3.946638  0  -0.033425  0  -0.076233  -0.076669  0  3.913735  0
C  C68  1  0.82729652  0.35622488  0.88352737  1  0  -0.050937  0  3.681638  0  0  -0.075992  0  3.926972  0  0  -0.074595  0  3.946638  0  -0.034384  0  -0.076262  -0.076804  0  3.91374  0
C  C69  1  0.67269860  0.64377747  0.38353051  1  0  -0.050673  0  3.681612  0  0  -0.075633  0  3.926855  0  0  -0.074226  0  3.94651  0  -0.034303  0  -0.076153  -0.076443  0  3.913617  0
C  C70  1  0.17270318  0.85622804  0.61647075  1  0  -0.050869  0  3.681573  0  0  -0.075903  0  3.926822  0  0  -0.074505  0  3.946487  0  -0.034485  0  -0.076249  -0.076713  0  3.913588  0
C  C71  1  0.32727805  0.14377564  0.11647200  1  0  -0.050904  0  3.681533  0  0  -0.075895  0  3.926834  0  0  -0.074487  0  3.946491  0  -0.03397  0  -0.076229  -0.076705  0  3.913596  0
C  C72  1  0.22170036  0.70278195  0.07600336  1  0  -0.079774  0  3.766833  0  0  -0.089036  0  4.013083  0  0  -0.093225  0  4.035995  0  -0.030295  0  -0.092384  -0.08628  0  3.997573  0
C  C73  1  0.27832875  0.29721775  0.57600367  1  0  -0.079883  0  3.767048  0  0  -0.089079  0  4.013281  0  0  -0.093266  0  4.036192  0  -0.029871  0  -0.092302  -0.086322  0  3.997771  0
C  C74  1  0.77832062  0.20277879  0.42399539  1  0  -0.079562  0  3.766718  0  0  -0.088786  0  4.012951  0  0  -0.092971  0  4.035855  0  -0.02989  0  -0.092236  -0.08603  0  3.997441  0
C  C75  1  0.72169224  0.79721031  0.92399507  1  0  -0.079716  0  3.766988  0  0  -0.088974  0  4.013234  0  0  -0.09316  0  4.036141  0  -0.030252  0  -0.092378  -0.086219  0  3.997724  0
C  C76  1  0.77832417  0.29722040  0.92399382  1  0  -0.079674  0  3.766869  0  0  -0.088859  0  4.013095  0  0  -0.093046  0  4.036005  0  -0.029758  0  -0.09227  -0.086103  0  3.997586  0
C  C77  1  0.72166741  0.70278725  0.42399633  1  0  -0.079686  0  3.76685  0  0  -0.088936  0  4.013079  0  0  -0.093119  0  4.035984  0  -0.029919  0  -0.092268  -0.08618  0  3.997569  0
C  C78  1  0.22168440  0.79722224  0.57600618  1  0  -0.079644  0  3.767016  0  0  -0.088842  0  4.013234  0  0  -0.093026  0  4.036142  0  -0.029846  0  -0.092269  -0.086086  0  3.997718  0
C  C79  1  0.27830215  0.20278276  0.07600524  1  0  -0.079836  0  3.766932  0  0  -0.089054  0  4.013161  0  0  -0.093244  0  4.036072  0  -0.030208  0  -0.092392  -0.086298  0  3.997655  0
C  C80  1  0.06156038  0.66977469  0.04350425  1  0  -0.064707  0  3.763906  0  0  -0.079039  0  4.00861  0  0  -0.078859  0  4.029281  0  0.000413  0  -0.088934  -0.078904  0  3.994394  0
C  C81  1  0.43847228  0.33022899  0.54350394  1  0  -0.064721  0  3.764099  0  0  -0.07908  0  4.008798  0  0  -0.078898  0  4.02946  0  0.000396  0  -0.08898  -0.078945  0  3.994581  0
C  C82  1  0.93846238  0.16977152  0.45649481  1  0  -0.06491  0  3.764074  0  0  -0.079266  0  4.008784  0  0  -0.079086  0  4.029455  0  0.000471  0  -0.089084  -0.079133  0  3.994574  0
C  C83  1  0.56156112  0.83021625  0.95649606  1  0  -0.064672  0  3.763828  0  0  -0.079031  0  4.008548  0  0  -0.078848  0  4.029218  0  0.000465  0  -0.088957  -0.078896  0  3.994333  0
C  C84  1  0.93845351  0.33023031  0.95649418  1  0  -0.064858  0  3.764115  0  0  -0.079202  0  4.008798  0  0  -0.079022  0  4.029473  0  0.00046  0  -0.089006  -0.07907  0  3.994588  0
C  C85  1  0.56153274  0.66977336  0.45649481  1  0  -0.064786  0  3.764072  0  0  -0.079144  0  4.008796  0  0  -0.078961  0  4.029461  0  0.000422  0  -0.089054  -0.079009  0  3.994582  0
C  C86  1  0.06154442  0.83023745  0.54350676  1  0  -0.064831  0  3.76396  0  0  -0.079187  0  4.00865  0  0  -0.079007  0  4.029325  0  0.000523  0  -0.088945  -0.07904  0  3.99444  0
C  C87  1  0.43843504  0.16977682  0.04350550  1  0  -0.064617  0  3.764131  0  0  -0.078951  0  4.008813  0  0  -0.07877  0  4.029488  0  0.000355  0  -0.088889  -0.078819  0  3.994597  0
C  C88  1  0.85036038  0.57901630  0.05164078  1  0  -0.094004  0  3.801915  0  0  -0.10557  0  4.054099  0  0  -0.109998  0  4.076042  0  -0.146881  0  -0.096059  -0.102557  0  4.039152  0
C  C89  1  0.64966134  0.42098738  0.55163952  1  0  -0.093821  0  3.801974  0  0  -0.105408  0  4.054084  0  0  -0.109811  0  4.076036  0  -0.147201  0  -0.096047  -0.102388  0  4.039131  0
C  C90  1  0.14965174  0.07901446  0.44835891  1  0  -0.093887  0  3.801845  0  0  -0.105427  0  4.053998  0  0  -0.109863  0  4.075941  0  -0.146992  0  -0.09601  -0.102416  0  4.039053  0
C  C91  1  0.35036319  0.92097861  0.94836142  1  0  -0.093869  0  3.801903  0  0  -0.105395  0  4.054049  0  0  -0.109826  0  4.075994  0  -0.147154  0  -0.095987  -0.102386  0  4.039104  0
C  C92  1  0.14964110  0.42099268  0.94835954  1  0  -0.093875  0  3.801757  0  0  -0.105412  0  4.053924  0  0  -0.109851  0  4.075867  0  -0.147  0  -0.09604  -0.102404  0  4.038982  0
C  C93  1  0.35034368  0.57900835  0.44836079  1  0  -0.094088  0  3.801834  0  0  -0.10568  0  4.053995  0  0  -0.110087  0  4.075935  0  -0.147144  0  -0.09615  -0.102666  0  4.039048  0
C  C94  1  0.85035506  0.92099584  0.55163984  1  0  -0.093785  0  3.801732  0  0  -0.105327  0  4.053885  0  0  -0.109763  0  4.075825  0  -0.147115  0  -0.096053  -0.102319  0  4.038941  0
C  C95  1  0.64962587  0.07901844  0.05164140  1  0  -0.093968  0  3.802068  0  0  -0.105532  0  4.054243  0  0  -0.10995  0  4.076204  0  -0.146851  0  -0.096024  -0.102508  0  4.039283  0
C  C96  1  0.79929002  0.52170505  0.09207182  1  0  -0.065992  0  3.708399  0  0  -0.089023  0  3.950835  0  0  -0.087549  0  3.970843  0  -0.078318  0  -0.080279  -0.089799  0  3.937187  0
C  C97  1  0.70072993  0.47829995  0.59206900  1  0  -0.066142  0  3.708591  0  0  -0.08911  0  3.950982  0  0  -0.087632  0  3.970975  0  -0.078371  0  -0.080273  -0.089891  0  3.937338  0
C  C98  1  0.20072387  0.02169526  0.40792818  1  0  -0.066025  0  3.708356  0  0  -0.089105  0  3.950774  0  0  -0.087628  0  3.97078  0  -0.078448  0  -0.080336  -0.08988  0  3.937126  0
C  C99  1  0.29929461  0.97829119  0.90793100  1  0  -0.066186  0  3.708383  0  0  -0.089236  0  3.950855  0  0  -0.087763  0  3.970862  0  -0.07841  0  -0.080363  -0.090006  0  3.937204  0
C  C100  1  0.20070436  0.47831055  0.90792849  1  0  -0.066121  0  3.708151  0  0  -0.089207  0  3.95061  0  0  -0.087735  0  3.970622  0  -0.078503  0  -0.080294  -0.089976  0  3.936959  0
C  C101  1  0.29927687  0.52169312  0.40793037  1  0  -0.065982  0  3.70823  0  0  -0.089026  0  3.950658  0  0  -0.087544  0  3.970645  0  -0.078519  0  -0.080287  -0.089801  0  3.937008  0
C  C102  1  0.79927938  0.97831372  0.59207026  1  0  -0.066123  0  3.70849  0  0  -0.089186  0  3.950867  0  0  -0.08771  0  3.970875  0  -0.07842  0  -0.080334  -0.089966  0  3.937226  0
C  C103  1  0.70069446  0.02170056  0.09207151  1  0  -0.066222  0  3.70838  0  0  -0.089308  0  3.950816  0  0  -0.087848  0  3.970833  0  -0.078465  0  -0.080314  -0.09007  0  3.937154  0
S  S104  1  0.10633672  0.51651276  0.20816754  1  0  -0.442021  0  2.643948  0  0  -0.386744  0  3.12571  0  0  -0.408889  0  3.100013  0  -0.269797  0  -0.235635  -0.371411  0  3.142817  0
S  S105  1  0.39366756  0.48348297  0.70816598  1  0  -0.442064  0  2.643885  0  0  -0.38682  0  3.125641  0  0  -0.408975  0  3.099957  0  -0.269644  0  -0.235667  -0.371481  0  3.142754  0
S  S106  1  0.89365056  0.01651224  0.29183308  1  0  -0.442072  0  2.64394  0  0  -0.386778  0  3.125659  0  0  -0.408933  0  3.099978  0  -0.269861  0  -0.235658  -0.371439  0  3.142777  0
S  S107  1  0.60632859  0.98349143  0.79183528  1  0  -0.442039  0  2.644199  0  0  -0.386764  0  3.125911  0  0  -0.408921  0  3.100229  0  -0.269658  0  -0.235637  -0.371433  0  3.143015  0
S  S108  1  0.89364879  0.48349224  0.79183152  1  0  -0.442088  0  2.643982  0  0  -0.386762  0  3.125736  0  0  -0.408917  0  3.100054  0  -0.269943  0  -0.235677  -0.371424  0  3.142847  0
S  S109  1  0.60634278  0.51652203  0.29183308  1  0  -0.442049  0  2.64391  0  0  -0.386777  0  3.125611  0  0  -0.408923  0  3.099919  0  -0.269793  0  -0.235611  -0.371435  0  3.142732  0
S  S110  1  0.10631899  0.98348746  0.70816629  1  0  -0.442066  0  2.643938  0  0  -0.386808  0  3.125725  0  0  -0.408956  0  3.100024  0  -0.269664  0  -0.235659  -0.371467  0  3.142848  0
S  S111  1  0.39366756  0.01651224  0.20816660  1  0  -0.442037  0  2.644179  0  0  -0.386686  0  3.125939  0  0  -0.40883  0  3.100237  0  -0.269723  0  -0.23566  -0.371357  0  3.143039  0
O  O112  1  0.70820329  0.40280841  0.17182669  1  0  -0.458046  0  2.093792  0  0  -0.399149  0  2.3402  0  0  -0.422267  0  2.3356  0  -1.11293  0  -0.268092  -0.383305  0  2.343008  0
O  O113  1  0.79182021  0.59718732  0.67182638  1  0  -0.458038  0  2.093447  0  0  -0.399176  0  2.339844  0  0  -0.422292  0  2.335238  0  -1.113126  0  -0.268032  -0.383323  0  2.342654  0
O  O114  1  0.29180173  0.90281289  0.32817080  1  0  -0.458104  0  2.093609  0  0  -0.399227  0  2.340031  0  0  -0.422337  0  2.33542  0  -1.112883  0  -0.268049  -0.383382  0  2.342866  0
O  O115  1  0.20818127  0.09717753  0.82817675  1  0  -0.457995  0  2.093505  0  0  -0.399161  0  2.339912  0  0  -0.422281  0  2.335311  0  -1.113133  0  -0.268015  -0.383306  0  2.342685  0
O  O116  1  0.29180528  0.59719129  0.82816861  1  0  -0.458075  0  2.09347  0  0  -0.399177  0  2.339947  0  0  -0.422294  0  2.335338  0  -1.112987  0  -0.268044  -0.383336  0  2.342777  0
O  O117  1  0.20820078  0.40281503  0.32817174  1  0  -0.458146  0  2.093599  0  0  -0.399253  0  2.339989  0  0  -0.422363  0  2.335375  0  -1.112874  0  -0.268066  -0.383407  0  2.342832  0
O  O118  1  0.70817492  0.09718018  0.67182575  1  0  -0.458053  0  2.093481  0  0  -0.399193  0  2.339899  0  0  -0.422308  0  2.335295  0  -1.113201  0  -0.268063  -0.383339  0  2.342713  0
O  O119  1  0.79181311  0.90279699  0.17182857  1  0  -0.457912  0  2.093183  0  0  -0.399025  0  2.339711  0  0  -0.422142  0  2.335108  0  -1.113042  0  -0.268031  -0.383203  0  2.342558  0
