# generated using pymatgen
data_CdH7C9S2N3O
_symmetry_space_group_name_H-M   'P 1'
_cell_length_a   7.58728905
_cell_length_b   12.25668325
_cell_length_c   12.38358598
_cell_angle_alpha   97.14889568
_cell_angle_beta   90.00004161
_cell_angle_gamma   89.99998900
_symmetry_Int_Tables_number   1
_chemical_formula_structural   CdH7C9S2N3O
_chemical_formula_sum   'Cd4 H28 C36 S8 N12 O4'
_cell_volume   1142.65904353
_cell_formula_units_Z   4
loop_
 _symmetry_equiv_pos_site_id
 _symmetry_equiv_pos_as_xyz
  1  'x, y, z'
loop_
 _atom_site_type_symbol
 _atom_site_label
 _atom_site_symmetry_multiplicity
 _atom_site_fract_x
 _atom_site_fract_y
 _atom_site_fract_z
 _atom_site_occupancy
 _atom_site_hle17_bader_spin_density
 _atom_site_hle17_ddec_charge
 _atom_site_hle17_ddec_spin_density
 _atom_site_hle17_ddec_sum_bond_order
 _atom_site_hle17_magmom
 _atom_site_hse06_10hf_bader_spin_density
 _atom_site_hse06_10hf_ddec_charge
 _atom_site_hse06_10hf_ddec_spin_density
 _atom_site_hse06_10hf_ddec_sum_bond_order
 _atom_site_hse06_10hf_magmom
 _atom_site_hse06_bader_spin_density
 _atom_site_hse06_ddec_charge
 _atom_site_hse06_ddec_spin_density
 _atom_site_hse06_ddec_sum_bond_order
 _atom_site_hse06_magmom
 _atom_site_pbe_bader_spin_density
 _atom_site_pbe_cm5_charge
 _atom_site_pbe_ddec_charge
 _atom_site_pbe_ddec_spin_density
 _atom_site_pbe_ddec_sum_bond_order
 _atom_site_pbe_magmom
Cd  Cd0  1  0.09218208  0.94193065  0.71369460  1  0  0.965724  0  1.985856  0  0  0.788038  0  2.460123  0  0  0.834941  0  2.418682  0  0  0.711463  0.755316  0  2.488049  0
Cd  Cd1  1  0.59218158  0.55806956  0.78630476  1  0  0.965736  0  1.985823  0  0  0.78805  0  2.460092  0  0  0.834952  0  2.418651  0  0  0.711459  0.75533  0  2.488022  0
Cd  Cd2  1  0.90781848  0.05806920  0.28630398  1  0  0.965732  0  1.985821  0  0  0.78805  0  2.460087  0  0  0.834953  0  2.418646  0  0  0.711465  0.755328  0  2.488017  0
Cd  Cd3  1  0.40781766  0.44193028  0.21369463  1  0  0.96571  0  1.985853  0  0  0.788026  0  2.460122  0  0  0.834926  0  2.418683  0  0  0.711452  0.755302  0  2.488049  0
H  H4  1  0.48298575  0.90967560  0.80304152  1  0  0.085478  0  0.940608  0  0  0.09163  0  1.007116  0  0  0.09357  0  1.006149  0  0  0.112848  0.090146  0  1.007943  0
H  H5  1  0.98298514  0.59032376  0.69695709  1  0  0.085469  0  0.940595  0  0  0.091615  0  1.0071  0  0  0.093557  0  1.006127  0  0  0.112821  0.090131  0  1.007928  0
H  H6  1  0.51701481  0.09032342  0.19695696  1  0  0.085474  0  0.940604  0  0  0.091631  0  1.007102  0  0  0.093575  0  1.006123  0  0  0.112842  0.090146  0  1.00793  0
H  H7  1  0.01701410  0.40967609  0.30304229  1  0  0.085491  0  0.940603  0  0  0.09164  0  1.007106  0  0  0.09358  0  1.006137  0  0  0.112842  0.090156  0  1.007933  0
H  H8  1  0.72764251  0.01507838  0.90476683  1  0  0.097255  0  0.990531  0  0  0.100944  0  1.063126  0  0  0.10405  0  1.062612  0  0  0.092628  0.098662  0  1.063717  0
H  H9  1  0.22764153  0.48492140  0.59523215  1  0  0.097284  0  0.99055  0  0  0.100958  0  1.063139  0  0  0.104063  0  1.062626  0  0  0.092624  0.098676  0  1.063729  0
H  H10  1  0.27235937  0.98492146  0.09523094  1  0  0.09725  0  0.990551  0  0  0.100941  0  1.063143  0  0  0.104047  0  1.062627  0  0  0.092623  0.09866  0  1.063732  0
H  H11  1  0.77235771  0.51507927  0.40476814  1  0  0.097278  0  0.990535  0  0  0.10095  0  1.063127  0  0  0.104056  0  1.062613  0  0  0.092624  0.098667  0  1.063717  0
H  H12  1  0.67466180  0.21277563  0.97945244  1  0  0.092039  0  0.980841  0  0  0.096295  0  1.05234  0  0  0.099033  0  1.051194  0  0  0.095919  0.094264  0  1.053238  0
H  H13  1  0.17466212  0.28722334  0.52054885  1  0  0.092025  0  0.980855  0  0  0.096275  0  1.052369  0  0  0.099014  0  1.051222  0  0  0.095901  0.094244  0  1.05327  0
H  H14  1  0.32533875  0.78722339  0.02054604  1  0  0.092019  0  0.980871  0  0  0.096289  0  1.052338  0  0  0.099023  0  1.051208  0  0  0.09591  0.094258  0  1.053244  0
H  H15  1  0.82533976  0.71277570  0.47945447  1  0  0.092049  0  0.980886  0  0  0.096311  0  1.052343  0  0  0.099045  0  1.051212  0  0  0.095923  0.094278  0  1.053252  0
H  H16  1  0.38332978  0.29736385  0.94629746  1  0  0.114348  0  0.951633  0  0  0.12326  0  1.013549  0  0  0.125323  0  1.014175  0  0  0.111696  0.121751  0  1.01327  0
H  H17  1  0.88333161  0.20263511  0.55370553  1  0  0.11433  0  0.951598  0  0  0.12318  0  1.013598  0  0  0.125244  0  1.014224  0  0  0.111676  0.121672  0  1.013316  0
H  H18  1  0.61666814  0.70263518  0.05370425  1  0  0.114297  0  0.951632  0  0  0.123206  0  1.013565  0  0  0.125271  0  1.014185  0  0  0.111663  0.121696  0  1.013286  0
H  H19  1  0.11667027  0.79736392  0.44629779  1  0  0.114325  0  0.951643  0  0  0.12324  0  1.013556  0  0  0.125304  0  1.014183  0  0  0.111684  0.121732  0  1.013277  0
H  H20  1  0.15077497  0.36354615  0.83171012  1  0  0.144192  0  0.943494  0  0  0.161723  0  1.00962  0  0  0.163465  0  1.009793  0  0  0.101029  0.160415  0  1.009591  0
H  H21  1  0.65077431  0.13645446  0.66829055  1  0  0.144267  0  0.943463  0  0  0.161799  0  1.00956  0  0  0.16354  0  1.009733  0  0  0.101073  0.160492  0  1.009529  0
H  H22  1  0.84922559  0.63645370  0.16829007  1  0  0.144231  0  0.943493  0  0  0.161763  0  1.009604  0  0  0.163504  0  1.009778  0  0  0.101048  0.160455  0  1.009573  0
H  H23  1  0.34922493  0.86354621  0.33170975  1  0  0.144228  0  0.943497  0  0  0.161762  0  1.009607  0  0  0.163503  0  1.00978  0  0  0.101044  0.160455  0  1.009577  0
H  H24  1  0.08876476  0.32950409  0.96066214  1  0  0.145189  0  0.949572  0  0  0.163495  0  1.011792  0  0  0.164478  0  1.012925  0  0  0.101054  0.162705  0  1.011098  0
H  H25  1  0.58876526  0.17049570  0.53933921  1  0  0.145196  0  0.949556  0  0  0.163513  0  1.011748  0  0  0.164497  0  1.01288  0  0  0.101054  0.162724  0  1.011057  0
H  H26  1  0.91123580  0.67049493  0.03933796  1  0  0.145209  0  0.949544  0  0  0.163516  0  1.011756  0  0  0.1645  0  1.012889  0  0  0.101068  0.162727  0  1.011061  0
H  H27  1  0.41123530  0.82950414  0.46066098  1  0  0.145193  0  0.949618  0  0  0.16351  0  1.011816  0  0  0.164494  0  1.012948  0  0  0.101059  0.162721  0  1.011122  0
H  H28  1  0.92616393  0.32871529  0.85580700  1  0  0.144263  0  0.945269  0  0  0.162532  0  1.003489  0  0  0.164556  0  1.003675  0  0  0.097294  0.161032  0  1.003451  0
H  H29  1  0.42616311  0.17128449  0.64419369  1  0  0.144285  0  0.945259  0  0  0.162545  0  1.003477  0  0  0.164569  0  1.003665  0  0  0.097304  0.161046  0  1.003438  0
H  H30  1  0.07383663  0.67128456  0.14419319  1  0  0.144284  0  0.945249  0  0  0.162551  0  1.003466  0  0  0.164575  0  1.003651  0  0  0.0973  0.161053  0  1.003427  0
H  H31  1  0.57383745  0.82871618  0.35580660  1  0  0.144292  0  0.945223  0  0  0.162548  0  1.003451  0  0  0.164571  0  1.003639  0  0  0.097315  0.161051  0  1.003412  0
C  C32  1  0.46641858  0.99580370  0.83615246  1  0  0.136098  0  3.689059  0  0  0.105048  0  3.942727  0  0  0.110941  0  3.961009  0  0  0.054266  0.101232  0  3.930297  0
C  C33  1  0.96641664  0.50419731  0.66384796  1  0  0.136191  0  3.689022  0  0  0.105153  0  3.942657  0  0  0.111048  0  3.960942  0  0  0.054347  0.101337  0  3.930226  0
C  C34  1  0.53358330  0.00419697  0.16384622  1  0  0.136122  0  3.688942  0  0  0.105078  0  3.94261  0  0  0.110974  0  3.960894  0  0  0.054275  0.101264  0  3.930177  0
C  C35  1  0.03358260  0.49580336  0.33615233  1  0  0.136124  0  3.689062  0  0  0.105079  0  3.942696  0  0  0.110972  0  3.960981  0  0  0.054336  0.101265  0  3.930261  0
C  C36  1  0.60196256  0.05514512  0.89302870  1  0  -0.084098  0  3.689568  0  0  -0.09802  0  3.938846  0  0  -0.103135  0  3.959285  0  0  -0.073046  -0.094746  0  3.925233  0
C  C37  1  0.10196293  0.44485550  0.60697195  1  0  -0.084244  0  3.689698  0  0  -0.098111  0  3.938906  0  0  -0.103229  0  3.959346  0  0  -0.073082  -0.094837  0  3.925291  0
C  C38  1  0.39803800  0.94485637  0.10697088  1  0  -0.084125  0  3.689535  0  0  -0.098046  0  3.938826  0  0  -0.103162  0  3.959262  0  0  -0.073042  -0.094771  0  3.92521  0
C  C39  1  0.89803763  0.55514436  0.39302986  1  0  -0.084203  0  3.689621  0  0  -0.098064  0  3.938833  0  0  -0.103178  0  3.95927  0  0  -0.073068  -0.094786  0  3.925215  0
C  C40  1  0.57271101  0.16463329  0.93335273  1  0  -0.00284  0  3.676475  0  0  -0.017844  0  3.921106  0  0  -0.01655  0  3.939904  0  0  -0.064006  -0.018491  0  3.908429  0
C  C41  1  0.07271136  0.33536651  0.56664861  1  0  -0.002829  0  3.676448  0  0  -0.017844  0  3.921057  0  0  -0.016549  0  3.939855  0  0  -0.063975  -0.018492  0  3.908381  0
C  C42  1  0.42728955  0.83536655  0.06664666  1  0  -0.00286  0  3.676405  0  0  -0.01787  0  3.921056  0  0  -0.016577  0  3.939848  0  0  -0.064011  -0.018517  0  3.90838  0
C  C43  1  0.92728919  0.66463335  0.43335400  1  0  -0.00283  0  3.67643  0  0  -0.017856  0  3.921087  0  0  -0.016562  0  3.93988  0  0  -0.064015  -0.018504  0  3.908409  0
C  C44  1  0.40941420  0.21184391  0.91563825  1  0  -0.085014  0  3.660434  0  0  -0.106036  0  3.904221  0  0  -0.110636  0  3.926881  0  0  -0.064703  -0.103143  0  3.88912  0
C  C45  1  0.90941339  0.28815504  0.58436395  1  0  -0.084843  0  3.660291  0  0  -0.105829  0  3.904112  0  0  -0.110425  0  3.926762  0  0  -0.064626  -0.102934  0  3.889013  0
C  C46  1  0.59058768  0.78815511  0.08436265  1  0  -0.084881  0  3.660368  0  0  -0.105891  0  3.904182  0  0  -0.110487  0  3.926834  0  0  -0.064606  -0.102997  0  3.889083  0
C  C47  1  0.09058717  0.71184399  0.41563776  1  0  -0.084932  0  3.660446  0  0  -0.105951  0  3.904266  0  0  -0.110547  0  3.926911  0  0  -0.064625  -0.103058  0  3.889171  0
C  C48  1  0.28046034  0.14743849  0.85777355  1  0  0.090501  0  3.74575  0  0  0.092393  0  3.985073  0  0  0.092993  0  4.006595  0  0  0.103742  0.092067  0  3.970657  0
C  C49  1  0.78046090  0.35256047  0.64222617  1  0  0.090528  0  3.745814  0  0  0.09243  0  3.985163  0  0  0.093028  0  4.006683  0  0  0.103747  0.092102  0  3.970749  0
C  C50  1  0.71954022  0.85256053  0.14222573  1  0  0.090565  0  3.745783  0  0  0.092424  0  3.985183  0  0  0.093017  0  4.006701  0  0  0.103763  0.092097  0  3.97077  0
C  C51  1  0.21953834  0.64743938  0.35777403  1  0  0.090506  0  3.745937  0  0  0.092378  0  3.985313  0  0  0.092982  0  4.006836  0  0  0.103695  0.092051  0  3.9709  0
C  C52  1  0.10280002  0.19250530  0.83362057  1  0  0.479197  0  3.654542  0  0  0.461904  0  3.922402  0  0  0.484656  0  3.92369  0  0  0.169599  0.446015  0  3.921762  0
C  C53  1  0.60280063  0.30749449  0.66637998  1  0  0.479244  0  3.654533  0  0  0.461926  0  3.922416  0  0  0.484693  0  3.923681  0  0  0.169652  0.446039  0  3.921775  0
C  C54  1  0.89719922  0.80749372  0.16637952  1  0  0.479215  0  3.654596  0  0  0.461921  0  3.922472  0  0  0.484707  0  3.923708  0  0  0.169657  0.446034  0  3.921832  0
C  C55  1  0.39719861  0.69250536  0.33362022  1  0  0.479204  0  3.654526  0  0  0.461916  0  3.922393  0  0  0.484668  0  3.923681  0  0  0.169642  0.446027  0  3.921753  0
C  C56  1  0.06333139  0.31004747  0.87305350  1  0  -0.430219  0  3.662592  0  0  -0.508714  0  3.891439  0  0  -0.514812  0  3.896803  0  0  -0.246642  -0.50416  0  3.887826  0
C  C57  1  0.56333066  0.18995233  0.62694784  1  0  -0.430346  0  3.662607  0  0  -0.508823  0  3.891451  0  0  -0.514924  0  3.896809  0  0  -0.246699  -0.504271  0  3.887838  0
C  C58  1  0.93666785  0.68995238  0.12694670  1  0  -0.430313  0  3.662591  0  0  -0.508807  0  3.891451  0  0  -0.514914  0  3.896805  0  0  -0.246689  -0.504252  0  3.887836  0
C  C59  1  0.43666726  0.81004752  0.37305316  1  0  -0.430304  0  3.662619  0  0  -0.508801  0  3.891476  0  0  -0.514897  0  3.89684  0  0  -0.246688  -0.504243  0  3.887861  0
C  C60  1  0.79605392  0.95004606  0.52208475  1  0  0.306032  0  3.980224  0  0  0.289103  0  4.274197  0  0  0.310762  0  4.288525  0  0  0.155929  0.274367  0  4.26407  0
C  C61  1  0.29605617  0.54995332  0.97791459  1  0  0.306008  0  3.980219  0  0  0.289079  0  4.274189  0  0  0.310735  0  4.28852  0  0  0.155929  0.274341  0  4.264059  0
C  C62  1  0.20394532  0.04995297  0.47791373  1  0  0.306034  0  3.980237  0  0  0.28911  0  4.274196  0  0  0.310768  0  4.288526  0  0  0.155924  0.274372  0  4.264069  0
C  C63  1  0.70394307  0.45004571  0.02208550  1  0  0.305975  0  3.980315  0  0  0.289046  0  4.274282  0  0  0.310702  0  4.288616  0  0  0.155904  0.274309  0  4.264153  0
C  C64  1  0.85860614  0.78159247  0.86293068  1  0  0.296913  0  4.014819  0  0  0.277818  0  4.315659  0  0  0.299678  0  4.330109  0  0  0.145688  0.262928  0  4.305474  0
C  C65  1  0.35860793  0.71840772  0.63706879  1  0  0.296996  0  4.014754  0  0  0.277904  0  4.315591  0  0  0.299764  0  4.33004  0  0  0.14573  0.263014  0  4.305407  0
C  C66  1  0.14139179  0.21840902  0.13706971  1  0  0.297045  0  4.014741  0  0  0.277952  0  4.315576  0  0  0.299811  0  4.330026  0  0  0.145756  0.263063  0  4.305391  0
C  C67  1  0.64139395  0.28159130  0.36292969  1  0  0.296856  0  4.014809  0  0  0.277757  0  4.315653  0  0  0.299615  0  4.330109  0  0  0.145689  0.262868  0  4.305465  0
S  S68  1  0.77571603  0.89241420  0.63359284  1  0  -0.318339  0  2.221751  0  0  -0.276858  0  2.552476  0  0  -0.296578  0  2.547415  0  0  -0.11736  -0.262867  0  2.55542  0
S  S69  1  0.27571549  0.60758599  0.86640578  1  0  -0.318343  0  2.221651  0  0  -0.276867  0  2.552392  0  0  -0.296584  0  2.547325  0  0  -0.117371  -0.262876  0  2.555334  0
S  S70  1  0.22428452  0.10758647  0.36640664  1  0  -0.318369  0  2.221713  0  0  -0.276885  0  2.552446  0  0  -0.296611  0  2.547386  0  0  -0.11738  -0.262894  0  2.555391  0
S  S71  1  0.72428243  0.39241468  0.13359451  1  0  -0.318324  0  2.221749  0  0  -0.276845  0  2.552497  0  0  -0.296559  0  2.547422  0  0  -0.117381  -0.262859  0  2.555439  0
S  S72  1  0.99478522  0.87792390  0.91228374  1  0  -0.32598  0  2.209487  0  0  -0.293343  0  2.546146  0  0  -0.311659  0  2.541632  0  0  -0.131563  -0.28026  0  2.548892  0
S  S73  1  0.49478303  0.62207627  0.58771337  1  0  -0.326019  0  2.209462  0  0  -0.293388  0  2.546123  0  0  -0.311704  0  2.541608  0  0  -0.131592  -0.280304  0  2.548872  0
S  S74  1  0.00521533  0.12207676  0.08771413  1  0  -0.326044  0  2.209451  0  0  -0.293412  0  2.546119  0  0  -0.31173  0  2.541604  0  0  -0.131587  -0.280331  0  2.548865  0
S  S75  1  0.50521489  0.37792357  0.41228521  1  0  -0.325969  0  2.209422  0  0  -0.293331  0  2.546091  0  0  -0.311648  0  2.541577  0  0  -0.131579  -0.280248  0  2.548837  0
N  N76  1  0.31051059  0.04109873  0.81888016  1  0  -0.327213  0  3.281696  0  0  -0.256569  0  3.536244  0  0  -0.273833  0  3.556315  0  0  -0.323238  -0.244738  0  3.522354  0
N  N77  1  0.81050985  0.45890023  0.68111957  1  0  -0.327382  0  3.281786  0  0  -0.256761  0  3.536351  0  0  -0.274027  0  3.556421  0  0  -0.323352  -0.244928  0  3.522461  0
N  N78  1  0.68948997  0.95890029  0.18111912  1  0  -0.327331  0  3.281678  0  0  -0.256687  0  3.536259  0  0  -0.273954  0  3.556332  0  0  -0.323325  -0.244855  0  3.522369  0
N  N79  1  0.18948939  0.54109962  0.31887982  1  0  -0.327277  0  3.281773  0  0  -0.256635  0  3.536319  0  0  -0.273901  0  3.55639  0  0  -0.323304  -0.244803  0  3.522428  0
N  N80  1  0.80523106  0.98992788  0.44023294  1  0  -0.517319  0  2.86263  0  0  -0.461807  0  3.133104  0  0  -0.482527  0  3.139871  0  0  -0.386193  -0.447559  0  3.128269  0
N  N81  1  0.30523019  0.51007367  0.05976706  1  0  -0.517288  0  2.862697  0  0  -0.46177  0  3.13316  0  0  -0.482489  0  3.13993  0  0  -0.386184  -0.447521  0  3.128322  0
N  N82  1  0.19476950  0.01007279  0.55976655  1  0  -0.517296  0  2.862649  0  0  -0.461782  0  3.133117  0  0  -0.482502  0  3.139883  0  0  -0.386175  -0.447533  0  3.128281  0
N  N83  1  0.69476905  0.48992618  0.94023233  1  0  -0.517268  0  2.862697  0  0  -0.461748  0  3.133156  0  0  -0.482467  0  3.139926  0  0  -0.386156  -0.447502  0  3.128322  0
N  N84  1  0.75707447  0.71284196  0.82818867  1  0  -0.529572  0  2.890275  0  0  -0.472458  0  3.172246  0  0  -0.494129  0  3.178349  0  0  -0.391689  -0.457494  0  3.16779  0
N  N85  1  0.25707497  0.78715660  0.67181217  1  0  -0.529633  0  2.890253  0  0  -0.47253  0  3.172235  0  0  -0.494195  0  3.178324  0  0  -0.391704  -0.457564  0  3.167778  0
N  N86  1  0.24292345  0.28715707  0.17181223  1  0  -0.529642  0  2.890245  0  0  -0.472532  0  3.17223  0  0  -0.494197  0  3.178322  0  0  -0.391725  -0.457567  0  3.167774  0
N  N87  1  0.74292559  0.21284325  0.32818641  1  0  -0.529524  0  2.890284  0  0  -0.472411  0  3.172262  0  0  -0.494078  0  3.178363  0  0  -0.391679  -0.457445  0  3.167801  0
O  O88  1  0.99366497  0.13358896  0.77913419  1  0  -0.476623  0  2.006434  0  0  -0.42252  0  2.236873  0  0  -0.444579  0  2.233986  0  0  -0.254712  -0.407432  0  2.238875  0
O  O89  1  0.49366417  0.36641081  0.72086572  1  0  -0.476649  0  2.006451  0  0  -0.422537  0  2.236899  0  0  -0.444601  0  2.234003  0  0  -0.25474  -0.407449  0  2.238899  0
O  O90  1  0.00633427  0.86641007  0.22086590  1  0  -0.476609  0  2.006472  0  0  -0.422515  0  2.236924  0  0  -0.444587  0  2.234017  0  0  -0.254739  -0.407428  0  2.238926  0
O  O91  1  0.50633507  0.63358903  0.27913367  1  0  -0.476601  0  2.006405  0  0  -0.422512  0  2.236854  0  0  -0.444573  0  2.233965  0  0  -0.254723  -0.407423  0  2.238853  0
