# generated using pymatgen
data_ZnH11C14(N3O2)2
_symmetry_space_group_name_H-M   'P 1'
_cell_length_a   9.73503792
_cell_length_b   9.73497866
_cell_length_c   20.50130384
_cell_angle_alpha   79.89972169
_cell_angle_beta   79.89875794
_cell_angle_gamma   86.20471139
_symmetry_Int_Tables_number   1
_chemical_formula_structural   ZnH11C14(N3O2)2
_chemical_formula_sum   'Zn4 H44 C56 N24 O16'
_cell_volume   1881.89728060
_cell_formula_units_Z   4
loop_
 _symmetry_equiv_pos_site_id
 _symmetry_equiv_pos_as_xyz
  1  'x, y, z'
loop_
 _atom_site_type_symbol
 _atom_site_label
 _atom_site_symmetry_multiplicity
 _atom_site_fract_x
 _atom_site_fract_y
 _atom_site_fract_z
 _atom_site_occupancy
 _atom_site_hle17_bader_spin_density
 _atom_site_hle17_ddec_charge
 _atom_site_hle17_ddec_spin_density
 _atom_site_hle17_ddec_sum_bond_order
 _atom_site_hle17_magmom
 _atom_site_hse06_10hf_bader_spin_density
 _atom_site_hse06_10hf_ddec_charge
 _atom_site_hse06_10hf_ddec_spin_density
 _atom_site_hse06_10hf_ddec_sum_bond_order
 _atom_site_hse06_10hf_magmom
 _atom_site_hse06_bader_spin_density
 _atom_site_hse06_ddec_charge
 _atom_site_hse06_ddec_spin_density
 _atom_site_hse06_ddec_sum_bond_order
 _atom_site_hse06_magmom
 _atom_site_pbe_bader_spin_density
 _atom_site_pbe_cm5_charge
 _atom_site_pbe_ddec_charge
 _atom_site_pbe_ddec_spin_density
 _atom_site_pbe_ddec_sum_bond_order
 _atom_site_pbe_magmom
Zn  Zn0  1  0.83005350  0.77471589  0.95226669  1  0  0.991031  0  1.903449  0  0  0.801344  0  2.381624  0  0  0.847799  0  2.328082  0  0  0.690487  0.768941  0  2.417931  0
Zn  Zn1  1  0.22528431  0.16995237  0.54773418  1  0  0.991013  0  1.903558  0  0  0.801314  0  2.381729  0  0  0.847782  0  2.328176  0  0  0.690476  0.768913  0  2.418041  0
Zn  Zn2  1  0.16994634  0.22528556  0.04773410  1  0  0.991106  0  1.903392  0  0  0.801387  0  2.381551  0  0  0.847847  0  2.328002  0  0  0.690515  0.768987  0  2.417865  0
Zn  Zn3  1  0.77472295  0.83004484  0.45226686  1  0  0.991021  0  1.903508  0  0  0.801334  0  2.381672  0  0  0.847797  0  2.328126  0  0  0.690515  0.768935  0  2.417979  0
H  H4  1  0.84516013  0.82832488  0.20274044  1  0  0.112195  0  0.942606  0  0  0.117456  0  1.009391  0  0  0.122468  0  1.004439  0  0  0.104286  0.113695  0  1.013207  0
H  H5  1  0.17168326  0.15482767  0.29725953  1  0  0.112121  0  0.942628  0  0  0.117431  0  1.009378  0  0  0.122444  0  1.004425  0  0  0.10426  0.113669  0  1.013195  0
H  H6  1  0.15483983  0.17167456  0.79725806  1  0  0.112149  0  0.942617  0  0  0.117407  0  1.009425  0  0  0.12242  0  1.004472  0  0  0.104286  0.113646  0  1.013241  0
H  H7  1  0.82831775  0.84516853  0.70274255  1  0  0.112109  0  0.94256  0  0  0.117384  0  1.009364  0  0  0.122396  0  1.00441  0  0  0.10424  0.113621  0  1.013183  0
H  H8  1  0.53323426  0.59423938  0.34516088  1  0  0.092192  0  0.970064  0  0  0.098787  0  1.042445  0  0  0.102826  0  1.038331  0  0  0.098216  0.095884  0  1.045451  0
H  H9  1  0.40575990  0.46676853  0.15484285  1  0  0.092242  0  0.970133  0  0  0.098845  0  1.042507  0  0  0.10288  0  1.0384  0  0  0.098232  0.095944  0  1.045507  0
H  H10  1  0.46675478  0.40577577  0.65483774  1  0  0.09218  0  0.970205  0  0  0.098763  0  1.042598  0  0  0.102801  0  1.038486  0  0  0.098197  0.095862  0  1.0456  0
H  H11  1  0.59422929  0.53324031  0.84515770  1  0  0.092104  0  0.970241  0  0  0.098744  0  1.042576  0  0  0.102776  0  1.038473  0  0  0.098213  0.095845  0  1.04557  0
H  H12  1  0.59594180  0.55146476  0.13604380  1  0  0.090416  0  0.984118  0  0  0.094133  0  1.062734  0  0  0.098189  0  1.058338  0  0  0.096531  0.0912  0  1.065966  0
H  H13  1  0.44853310  0.40405420  0.36396012  1  0  0.090504  0  0.983926  0  0  0.094132  0  1.062677  0  0  0.098189  0  1.058278  0  0  0.096547  0.091198  0  1.065909  0
H  H14  1  0.40405926  0.44852934  0.86395893  1  0  0.090413  0  0.984117  0  0  0.094124  0  1.062739  0  0  0.098182  0  1.058342  0  0  0.096541  0.091191  0  1.065971  0
H  H15  1  0.55146778  0.59594832  0.63603954  1  0  0.090394  0  0.984063  0  0  0.094075  0  1.062752  0  0  0.098133  0  1.058353  0  0  0.096518  0.091142  0  1.065985  0
H  H16  1  0.07208146  0.65195213  0.03906413  1  0  0.127133  0  0.914449  0  0  0.13805  0  0.971758  0  0  0.140637  0  0.968896  0  0  0.152719  0.135976  0  0.974016  0
H  H17  1  0.34804245  0.92792104  0.46093678  1  0  0.127038  0  0.914494  0  0  0.137962  0  0.971796  0  0  0.140561  0  0.968927  0  0  0.152661  0.13588  0  0.974058  0
H  H18  1  0.92791944  0.34804935  0.96093561  1  0  0.127115  0  0.914486  0  0  0.138017  0  0.971812  0  0  0.140604  0  0.968951  0  0  0.15268  0.135938  0  0.974068  0
H  H19  1  0.65196170  0.07207729  0.53906246  1  0  0.127142  0  0.914414  0  0  0.138017  0  0.971779  0  0  0.140609  0  0.968909  0  0  0.152671  0.135937  0  0.974039  0
H  H20  1  0.09743664  0.77375120  0.83014048  1  0  0.119358  0  0.917607  0  0  0.130856  0  0.969107  0  0  0.133153  0  0.966804  0  0  0.146933  0.129016  0  0.971011  0
H  H21  1  0.22624362  0.90256562  0.66986121  1  0  0.119276  0  0.91776  0  0  0.130836  0  0.969191  0  0  0.133083  0  0.966951  0  0  0.146925  0.128996  0  0.971094  0
H  H22  1  0.90255887  0.22625550  0.16986024  1  0  0.119352  0  0.917659  0  0  0.13079  0  0.96923  0  0  0.133106  0  0.966903  0  0  0.146948  0.128951  0  0.971131  0
H  H23  1  0.77376078  0.09742330  0.33013971  1  0  0.119233  0  0.917699  0  0  0.130814  0  0.96911  0  0  0.133104  0  0.966815  0  0  0.146926  0.128973  0  0.971014  0
H  H24  1  0.42942943  0.54275615  0.95726477  1  0  0.100226  0  0.919992  0  0  0.118684  0  0.979785  0  0  0.119009  0  0.979664  0  0  0.126331  0.118307  0  0.980097  0
H  H25  1  0.45723793  0.57057154  0.54273473  1  0  0.100205  0  0.92002  0  0  0.118679  0  0.979764  0  0  0.119  0  0.97964  0  0  0.126356  0.118303  0  0.980075  0
H  H26  1  0.57056643  0.45724123  0.04273421  1  0  0.100261  0  0.920016  0  0  0.118701  0  0.979811  0  0  0.119025  0  0.97969  0  0  0.126341  0.118324  0  0.980123  0
H  H27  1  0.54275805  0.42942273  0.45726350  1  0  0.100173  0  0.919971  0  0  0.118644  0  0.979717  0  0  0.118971  0  0.979587  0  0  0.126315  0.118267  0  0.980029  0
H  H28  1  0.32685547  0.55060520  0.03767891  1  0  0.110689  0  0.922472  0  0  0.121804  0  0.989173  0  0  0.123619  0  0.98748  0  0  0.124287  0.120281  0  0.990715  0
H  H29  1  0.44939348  0.67314801  0.46232256  1  0  0.110689  0  0.922534  0  0  0.121822  0  0.989164  0  0  0.123633  0  0.987466  0  0  0.124298  0.1203  0  0.9907  0
H  H30  1  0.67314137  0.44939318  0.96232089  1  0  0.110695  0  0.922488  0  0  0.121801  0  0.989184  0  0  0.123615  0  0.987492  0  0  0.124289  0.120275  0  0.990732  0
H  H31  1  0.55060751  0.32685140  0.53767635  1  0  0.110627  0  0.922573  0  0  0.121749  0  0.989216  0  0  0.123564  0  0.987516  0  0  0.12429  0.120225  0  0.990761  0
H  H32  1  0.53479445  0.70377538  0.01717056  1  0  0.111346  0  0.947528  0  0  0.124257  0  1.012741  0  0  0.12579  0  1.01069  0  0  0.120546  0.122655  0  1.014076  0
H  H33  1  0.29623247  0.46520373  0.48282697  1  0  0.111375  0  0.947391  0  0  0.124211  0  1.01266  0  0  0.125746  0  1.0106  0  0  0.120536  0.122608  0  1.014002  0
H  H34  1  0.46520665  0.29622091  0.98282810  1  0  0.111295  0  0.947549  0  0  0.124216  0  1.012774  0  0  0.125752  0  1.010714  0  0  0.120552  0.122616  0  1.014111  0
H  H35  1  0.70376974  0.53479369  0.51716809  1  0  0.111348  0  0.947442  0  0  0.124252  0  1.012697  0  0  0.125788  0  1.010634  0  0  0.120579  0.122652  0  1.014033  0
H  H36  1  0.48517522  0.79064034  0.94048171  1  0  0.102484  0  0.908833  0  0  0.116161  0  0.970633  0  0  0.117236  0  0.96934  0  0  0.124091  0.115214  0  0.97108  0
H  H37  1  0.20935881  0.51482311  0.55951547  1  0  0.10252  0  0.908853  0  0  0.116154  0  0.970656  0  0  0.117231  0  0.969354  0  0  0.124129  0.115208  0  0.971104  0
H  H38  1  0.51482588  0.20935487  0.05951849  1  0  0.102473  0  0.908801  0  0  0.116166  0  0.970603  0  0  0.117247  0  0.969295  0  0  0.12409  0.115222  0  0.971044  0
H  H39  1  0.79063928  0.48517226  0.44048007  1  0  0.102444  0  0.908918  0  0  0.116134  0  0.970729  0  0  0.117206  0  0.96943  0  0  0.124086  0.115186  0  0.971178  0
H  H40  1  0.17505538  0.92955096  0.15622672  1  0  0.12058  0  0.905315  0  0  0.132958  0  0.95517  0  0  0.134882  0  0.95306  0  0  0.150833  0.131286  0  0.957099  0
H  H41  1  0.07044923  0.82495118  0.34377271  1  0  0.120631  0  0.905257  0  0  0.133021  0  0.955102  0  0  0.134947  0  0.952992  0  0  0.150866  0.131345  0  0.95703  0
H  H42  1  0.82494479  0.07044116  0.84377282  1  0  0.120609  0  0.905344  0  0  0.132989  0  0.955187  0  0  0.134913  0  0.95308  0  0  0.150864  0.131318  0  0.957116  0
H  H43  1  0.92955037  0.17505864  0.65622697  1  0  0.120611  0  0.905295  0  0  0.132988  0  0.955155  0  0  0.134913  0  0.953048  0  0  0.150868  0.131317  0  0.957083  0
H  H44  1  0.34715634  0.01901023  0.95106016  1  0  0.119604  0  0.911068  0  0  0.132233  0  0.966862  0  0  0.134227  0  0.96401  0  0  0.152962  0.130491  0  0.968611  0
H  H45  1  0.98099434  0.65282882  0.54893497  1  0  0.119579  0  0.911176  0  0  0.132221  0  0.966939  0  0  0.134218  0  0.964087  0  0  0.152987  0.130479  0  0.968692  0
H  H46  1  0.65285603  0.98099115  0.04893918  1  0  0.119541  0  0.911114  0  0  0.132177  0  0.96691  0  0  0.134162  0  0.964058  0  0  0.152949  0.130437  0  0.968659  0
H  H47  1  0.01901014  0.34716233  0.45106040  1  0  0.119621  0  0.911104  0  0  0.132254  0  0.966877  0  0  0.134253  0  0.964026  0  0  0.15297  0.130512  0  0.968627  0
C  C48  1  0.72378485  0.69610725  0.16213027  1  0  -0.079385  0  3.799822  0  0  -0.053238  0  4.034054  0  0  -0.063339  0  4.059165  0  0  -0.028943  -0.046889  0  4.017177  0
C  C49  1  0.30389871  0.27620294  0.33786934  1  0  -0.079333  0  3.799556  0  0  -0.053315  0  4.034008  0  0  -0.063439  0  4.059157  0  0  -0.028906  -0.046964  0  4.01713  0
C  C50  1  0.27621076  0.30389848  0.83786808  1  0  -0.079083  0  3.799683  0  0  -0.053096  0  4.034176  0  0  -0.06321  0  4.059308  0  0  -0.028924  -0.046746  0  4.017298  0
C  C51  1  0.69609727  0.72379026  0.66212994  1  0  -0.079207  0  3.799578  0  0  -0.053183  0  4.034036  0  0  -0.063294  0  4.059162  0  0  -0.028854  -0.046828  0  4.01716  0
C  C52  1  0.76214079  0.75388363  0.21382118  1  0  -0.062107  0  3.694096  0  0  -0.097495  0  3.935649  0  0  -0.094785  0  3.954877  0  0  -0.075406  -0.098891  0  3.922621  0
C  C53  1  0.24612026  0.23784993  0.28617991  1  0  -0.061973  0  3.693845  0  0  -0.097386  0  3.935523  0  0  -0.094669  0  3.954755  0  0  -0.075358  -0.098782  0  3.922495  0
C  C54  1  0.23785584  0.24611885  0.78618125  1  0  -0.061986  0  3.694023  0  0  -0.097351  0  3.935713  0  0  -0.094636  0  3.954943  0  0  -0.075357  -0.098747  0  3.922684  0
C  C55  1  0.75387774  0.76214641  0.71381800  1  0  -0.061929  0  3.693593  0  0  -0.097319  0  3.935289  0  0  -0.094603  0  3.954515  0  0  -0.075363  -0.098713  0  3.92226  0
C  C56  1  0.69345971  0.71506816  0.27985084  1  0  -0.069385  0  3.787686  0  0  -0.042121  0  4.017523  0  0  -0.052405  0  4.042634  0  0  -0.025023  -0.035709  0  4.000641  0
C  C57  1  0.28493766  0.30653604  0.22015033  1  0  -0.069282  0  3.787416  0  0  -0.042038  0  4.017346  0  0  -0.052323  0  4.042456  0  0  -0.024932  -0.035628  0  4.000465  0
C  C58  1  0.30652738  0.28493960  0.72015192  1  0  -0.069325  0  3.787587  0  0  -0.042065  0  4.017466  0  0  -0.052352  0  4.042577  0  0  -0.024921  -0.035656  0  4.000584  0
C  C59  1  0.71505999  0.69346748  0.77985194  1  0  -0.069444  0  3.787738  0  0  -0.042217  0  4.017681  0  0  -0.052506  0  4.042794  0  0  -0.025016  -0.035806  0  4.000798  0
C  C60  1  0.58687686  0.61941801  0.29358586  1  0  -0.084564  0  3.678852  0  0  -0.121253  0  3.926845  0  0  -0.118921  0  3.944465  0  0  -0.076824  -0.122321  0  3.914816  0
C  C61  1  0.38058256  0.41312209  0.20641697  1  0  -0.084772  0  3.678885  0  0  -0.121485  0  3.926911  0  0  -0.119152  0  3.94453  0  0  -0.076966  -0.122554  0  3.914887  0
C  C62  1  0.41311018  0.38059617  0.70641104  1  0  -0.084751  0  3.678961  0  0  -0.121425  0  3.926988  0  0  -0.119085  0  3.944596  0  0  -0.076931  -0.122491  0  3.914959  0
C  C63  1  0.61942116  0.58688658  0.79358540  1  0  -0.084651  0  3.679055  0  0  -0.12136  0  3.927074  0  0  -0.119023  0  3.944692  0  0  -0.076966  -0.122431  0  3.915055  0
C  C64  1  0.54899953  0.55804420  0.24260754  1  0  0.049182  0  3.779689  0  0  0.069616  0  4.006329  0  0  0.067023  0  4.031399  0  0  -0.006534  0.071169  0  3.989145  0
C  C65  1  0.44195880  0.45099942  0.25739647  1  0  0.04926  0  3.77953  0  0  0.069767  0  4.006091  0  0  0.067177  0  4.031157  0  0  -0.00646  0.071319  0  3.988907  0
C  C66  1  0.45098861  0.44196572  0.75739204  1  0  0.049277  0  3.77972  0  0  0.069719  0  4.006389  0  0  0.067128  0  4.031458  0  0  -0.006492  0.071271  0  3.989206  0
C  C67  1  0.55803977  0.54900397  0.74261012  1  0  0.049322  0  3.779434  0  0  0.069784  0  4.006085  0  0  0.06719  0  4.031155  0  0  -0.006418  0.071336  0  3.988903  0
C  C68  1  0.61916188  0.59849062  0.17694054  1  0  -0.085744  0  3.700023  0  0  -0.125178  0  3.954028  0  0  -0.122872  0  3.972256  0  0  -0.080886  -0.126307  0  3.941548  0
C  C69  1  0.40149996  0.38083894  0.32306465  1  0  -0.085989  0  3.699736  0  0  -0.125347  0  3.953813  0  0  -0.123037  0  3.972046  0  0  -0.081011  -0.126476  0  3.941335  0
C  C70  1  0.38084853  0.40150554  0.82306034  1  0  -0.085968  0  3.700005  0  0  -0.125367  0  3.95411  0  0  -0.123063  0  3.972347  0  0  -0.080954  -0.126494  0  3.941627  0
C  C71  1  0.59848729  0.61916254  0.67693955  1  0  -0.085829  0  3.699873  0  0  -0.125214  0  3.953937  0  0  -0.122909  0  3.972177  0  0  -0.080903  -0.126341  0  3.941454  0
C  C72  1  0.79516333  0.73893242  0.09108519  1  0  0.615829  0  3.947071  0  0  0.571451  0  4.236534  0  0  0.604272  0  4.23067  0  0  0.186268  0.549248  0  4.239569  0
C  C73  1  0.26107246  0.20482689  0.40891420  1  0  0.6158  0  3.947185  0  0  0.571445  0  4.23671  0  0  0.604273  0  4.230847  0  0  0.186225  0.549241  0  4.239747  0
C  C74  1  0.20483734  0.26108172  0.90890871  1  0  0.615455  0  3.947116  0  0  0.57112  0  4.236625  0  0  0.603941  0  4.23077  0  0  0.186072  0.548917  0  4.239657  0
C  C75  1  0.73892752  0.79516934  0.59108747  1  0  0.615692  0  3.947026  0  0  0.571322  0  4.236564  0  0  0.604149  0  4.230696  0  0  0.186133  0.549108  0  4.239617  0
C  C76  1  0.73730828  0.77436934  0.33523260  1  0  0.628527  0  3.927101  0  0  0.58536  0  4.208582  0  0  0.619141  0  4.202745  0  0  0.193735  0.562589  0  4.211608  0
C  C77  1  0.22562410  0.26269256  0.16476821  1  0  0.628573  0  3.927022  0  0  0.585413  0  4.208522  0  0  0.619196  0  4.202681  0  0  0.193723  0.562643  0  4.211547  0
C  C78  1  0.26269585  0.22562792  0.66476818  1  0  0.628681  0  3.927066  0  0  0.585528  0  4.208548  0  0  0.619312  0  4.202698  0  0  0.193805  0.562758  0  4.211575  0
C  C79  1  0.77438232  0.73730273  0.83522767  1  0  0.628533  0  3.927353  0  0  0.585404  0  4.208803  0  0  0.619188  0  4.202959  0  0  0.193805  0.562634  0  4.211827  0
C  C80  1  0.10965324  0.67161682  0.98537452  1  0  0.185326  0  3.610698  0  0  0.101631  0  3.875944  0  0  0.116986  0  3.886521  0  0  0.172979  0.092278  0  3.868242  0
C  C81  1  0.32837699  0.89034935  0.51462869  1  0  0.185323  0  3.610605  0  0  0.101648  0  3.875837  0  0  0.116989  0  3.886433  0  0  0.172988  0.092297  0  3.868131  0
C  C82  1  0.89034540  0.32838879  0.01462702  1  0  0.185274  0  3.610744  0  0  0.10159  0  3.875984  0  0  0.116936  0  3.886562  0  0  0.172994  0.092243  0  3.868275  0
C  C83  1  0.67162297  0.10964793  0.48537241  1  0  0.185206  0  3.610693  0  0  0.101576  0  3.875956  0  0  0.116929  0  3.886535  0  0  0.172935  0.092227  0  3.868249  0
C  C84  1  0.12794092  0.73498841  0.87868141  1  0  0.20784  0  3.682706  0  0  0.157455  0  3.959116  0  0  0.168497  0  3.972846  0  0  0.156909  0.150259  0  3.94975  0
C  C85  1  0.26500585  0.87206122  0.62132247  1  0  0.208096  0  3.682939  0  0  0.157658  0  3.959336  0  0  0.168742  0  3.973079  0  0  0.156969  0.150458  0  3.949971  0
C  C86  1  0.87205665  0.26501826  0.12132013  1  0  0.208089  0  3.682793  0  0  0.157736  0  3.959188  0  0  0.168759  0  3.972914  0  0  0.15701  0.150538  0  3.949824  0
C  C87  1  0.73499212  0.12793080  0.37868114  1  0  0.208266  0  3.682844  0  0  0.157814  0  3.959249  0  0  0.168867  0  3.972976  0  0  0.157072  0.150617  0  3.949884  0
C  C88  1  0.36308188  0.61094586  0.98778781  1  0  -0.032811  0  3.612968  0  0  -0.112294  0  3.876749  0  0  -0.108297  0  3.884175  0  0  -0.038624  -0.11448  0  3.870223  0
C  C89  1  0.38905632  0.63692593  0.51221353  1  0  -0.032864  0  3.613301  0  0  -0.112258  0  3.876808  0  0  -0.108312  0  3.88435  0  0  -0.038607  -0.114441  0  3.870286  0
C  C90  1  0.63691692  0.38905562  0.01221257  1  0  -0.032934  0  3.613066  0  0  -0.112361  0  3.876779  0  0  -0.108371  0  3.884215  0  0  -0.038669  -0.11454  0  3.870236  0
C  C91  1  0.61094567  0.36307450  0.48778571  1  0  -0.032701  0  3.612808  0  0  -0.112031  0  3.876384  0  0  -0.108055  0  3.88385  0  0  -0.038569  -0.114215  0  3.869855  0
C  C92  1  0.44532271  0.73695440  0.99126723  1  0  -0.051544  0  3.623027  0  0  -0.133476  0  3.893882  0  0  -0.121206  0  3.906525  0  0  -0.048288  -0.134972  0  3.887129  0
C  C93  1  0.26306033  0.55467683  0.50873299  1  0  -0.051577  0  3.622974  0  0  -0.133364  0  3.893706  0  0  -0.121112  0  3.906288  0  0  -0.048304  -0.134865  0  3.886956  0
C  C94  1  0.55467811  0.26304806  0.00873438  1  0  -0.051458  0  3.623035  0  0  -0.133467  0  3.893927  0  0  -0.121183  0  3.906585  0  0  -0.048296  -0.134957  0  3.887164  0
C  C95  1  0.73695019  0.44531836  0.49126502  1  0  -0.051443  0  3.622887  0  0  -0.133495  0  3.893823  0  0  -0.1212  0  3.906424  0  0  -0.048329  -0.134996  0  3.887084  0
C  C96  1  0.23272160  0.91768025  0.10711142  1  0  0.223603  0  3.66524  0  0  0.171676  0  3.945088  0  0  0.183969  0  3.954649  0  0  0.163394  0.163836  0  3.936809  0
C  C97  1  0.08232180  0.76727837  0.39289003  1  0  0.223472  0  3.665032  0  0  0.171541  0  3.944894  0  0  0.18383  0  3.954466  0  0  0.16332  0.163706  0  3.936615  0
C  C98  1  0.76728152  0.08231703  0.89288846  1  0  0.223619  0  3.665091  0  0  0.171698  0  3.944943  0  0  0.183989  0  3.954501  0  0  0.163355  0.163857  0  3.936665  0
C  C99  1  0.91767601  0.23272209  0.60711002  1  0  0.22362  0  3.664847  0  0  0.171685  0  3.944746  0  0  0.183979  0  3.954303  0  0  0.163343  0.163848  0  3.936466  0
C  C100  1  0.31918232  0.96811423  0.00277473  1  0  0.170838  0  3.638368  0  0  0.088897  0  3.90427  0  0  0.113531  0  3.919837  0  0  0.167192  0.079521  0  3.895763  0
C  C101  1  0.03188723  0.68080659  0.49722357  1  0  0.170685  0  3.638187  0  0  0.088791  0  3.904116  0  0  0.113385  0  3.919665  0  0  0.167114  0.079407  0  3.895617  0
C  C102  1  0.68082907  0.03188399  0.99722640  1  0  0.171013  0  3.638069  0  0  0.089056  0  3.904011  0  0  0.11372  0  3.919562  0  0  0.16725  0.079677  0  3.895505  0
C  C103  1  0.96811620  0.31918348  0.50277343  1  0  0.170824  0  3.638193  0  0  0.088897  0  3.904072  0  0  0.113524  0  3.919648  0  0  0.167189  0.079519  0  3.895568  0
N  N104  1  0.03414734  0.72277309  0.93743869  1  0  -0.400309  0  3.278247  0  0  -0.318768  0  3.587902  0  0  -0.340782  0  3.596109  0  0  -0.347101  -0.304209  0  3.581841  0
N  N105  1  0.27721517  0.96585204  0.56256572  1  0  -0.4004  0  3.27843  0  0  -0.318849  0  3.588075  0  0  -0.340862  0  3.596272  0  0  -0.347177  -0.304283  0  3.582007  0
N  N106  1  0.96585035  0.27722940  0.06256316  1  0  -0.400457  0  3.278308  0  0  -0.318863  0  3.587903  0  0  -0.340862  0  3.596102  0  0  -0.347183  -0.304307  0  3.581846  0
N  N107  1  0.72278695  0.03414100  0.43743750  1  0  -0.400446  0  3.278397  0  0  -0.318896  0  3.588044  0  0  -0.340911  0  3.596248  0  0  -0.347157  -0.304335  0  3.58198  0
N  N108  1  0.24219720  0.65383972  0.95592827  1  0  0.048696  0  3.586795  0  0  0.16659  0  3.77997  0  0  0.155857  0  3.804873  0  0  -0.134025  0.172293  0  3.765442  0
N  N109  1  0.34614976  0.75780304  0.54407531  1  0  0.048932  0  3.586428  0  0  0.166718  0  3.779699  0  0  0.15601  0  3.804541  0  0  -0.13399  0.172418  0  3.765175  0
N  N110  1  0.75780052  0.34616173  0.04407366  1  0  0.048798  0  3.586711  0  0  0.166654  0  3.779893  0  0  0.155938  0  3.804766  0  0  -0.134013  0.172358  0  3.765365  0
N  N111  1  0.65384614  0.24219116  0.45592536  1  0  0.048738  0  3.586528  0  0  0.166485  0  3.779773  0  0  0.155743  0  3.80468  0  0  -0.134016  0.172189  0  3.765246  0
N  N112  1  0.25667030  0.69474346  0.88804261  1  0  -0.261394  0  2.827343  0  0  -0.262321  0  3.088616  0  0  -0.271276  0  3.103277  0  0  -0.217303  -0.256314  0  3.079042  0
N  N113  1  0.30525382  0.74333058  0.61196142  1  0  -0.261518  0  2.82718  0  0  -0.262436  0  3.088498  0  0  -0.27139  0  3.103141  0  0  -0.217267  -0.256431  0  3.078931  0
N  N114  1  0.74332731  0.30526218  0.11195852  1  0  -0.26146  0  2.827234  0  0  -0.262379  0  3.088502  0  0  -0.271341  0  3.103173  0  0  -0.217275  -0.256374  0  3.078932  0
N  N115  1  0.69474429  0.25665942  0.38803990  1  0  -0.261507  0  2.827363  0  0  -0.262405  0  3.088693  0  0  -0.271355  0  3.103348  0  0  -0.217346  -0.256399  0  3.079121  0
N  N116  1  0.35832372  0.83685879  0.02676291  1  0  0.035768  0  3.598185  0  0  0.152275  0  3.796268  0  0  0.112624  0  3.858001  0  0  -0.133811  0.159291  0  3.77899  0
N  N117  1  0.16314703  0.64166984  0.47323594  1  0  0.035741  0  3.597916  0  0  0.152149  0  3.796045  0  0  0.112605  0  3.857652  0  0  -0.133873  0.159197  0  3.778715  0
N  N118  1  0.64167830  0.16313952  0.97323796  1  0  0.035698  0  3.597921  0  0  0.152226  0  3.796025  0  0  0.11253  0  3.857791  0  0  -0.133827  0.15924  0  3.778757  0
N  N119  1  0.83685734  0.35832443  0.52675969  1  0  0.035662  0  3.598124  0  0  0.152207  0  3.796198  0  0  0.112542  0  3.857934  0  0  -0.133804  0.159228  0  3.778912  0
N  N120  1  0.30344545  0.80223699  0.09320190  1  0  -0.267807  0  2.811218  0  0  -0.266977  0  3.067861  0  0  -0.266704  0  3.087635  0  0  -0.221923  -0.261029  0  3.058471  0
N  N121  1  0.19776158  0.69655773  0.40679977  1  0  -0.267749  0  2.811204  0  0  -0.266882  0  3.067857  0  0  -0.266644  0  3.087616  0  0  -0.221891  -0.260945  0  3.058466  0
N  N122  1  0.69655357  0.19775718  0.90679902  1  0  -0.267856  0  2.811291  0  0  -0.267028  0  3.067931  0  0  -0.26674  0  3.087714  0  0  -0.221954  -0.261083  0  3.058542  0
N  N123  1  0.80223608  0.30344903  0.59319834  1  0  -0.267846  0  2.811225  0  0  -0.267007  0  3.067851  0  0  -0.26673  0  3.087628  0  0  -0.221936  -0.261062  0  3.058461  0
N  N124  1  0.24046377  0.02301676  0.05281689  1  0  -0.390999  0  3.251851  0  0  -0.310289  0  3.556765  0  0  -0.331625  0  3.562391  0  0  -0.340977  -0.295792  0  3.55039  0
N  N125  1  0.97698255  0.75952627  0.44718374  1  0  -0.390806  0  3.251657  0  0  -0.310171  0  3.556642  0  0  -0.331504  0  3.562277  0  0  -0.340941  -0.295675  0  3.550269  0
N  N126  1  0.75954143  0.97698050  0.94718333  1  0  -0.391052  0  3.251787  0  0  -0.310349  0  3.556727  0  0  -0.331683  0  3.56234  0  0  -0.340976  -0.295847  0  3.550347  0
N  N127  1  0.02301725  0.24047623  0.55281698  1  0  -0.390919  0  3.251765  0  0  -0.310249  0  3.556737  0  0  -0.33158  0  3.56236  0  0  -0.340945  -0.295753  0  3.550364  0
O  O128  1  0.74425064  0.68899528  0.04521505  1  0  -0.671312  0  2.036696  0  0  -0.59961  0  2.309892  0  0  -0.627541  0  2.29547  0  0  -0.347964  -0.579519  0  2.318987  0
O  O129  1  0.31100447  0.25573397  0.45478663  1  0  -0.671291  0  2.036847  0  0  -0.599542  0  2.310013  0  0  -0.627468  0  2.295581  0  0  -0.347927  -0.579452  0  2.31911  0
O  O130  1  0.25573495  0.31099804  0.95478308  1  0  -0.671095  0  2.036857  0  0  -0.599366  0  2.31002  0  0  -0.62729  0  2.295595  0  0  -0.347901  -0.579279  0  2.319116  0
O  O131  1  0.68899626  0.74426949  0.54521686  1  0  -0.671139  0  2.036763  0  0  -0.599386  0  2.309902  0  0  -0.627311  0  2.295476  0  0  -0.347857  -0.579294  0  2.319  0
O  O132  1  0.89494722  0.81926250  0.07785564  1  0  -0.615382  0  1.888806  0  0  -0.575901  0  2.100247  0  0  -0.597205  0  2.092154  0  0  -0.335766  -0.560786  0  2.105404  0
O  O133  1  0.18074126  0.10503978  0.42214400  1  0  -0.615424  0  1.888879  0  0  -0.57595  0  2.100347  0  0  -0.59726  0  2.092252  0  0  -0.335801  -0.560834  0  2.105504  0
O  O134  1  0.10505419  0.18072227  0.92214534  1  0  -0.615457  0  1.888432  0  0  -0.575956  0  2.099839  0  0  -0.597267  0  2.091749  0  0  -0.335769  -0.560837  0  2.104992  0
O  O135  1  0.81927654  0.89495317  0.57785704  1  0  -0.615553  0  1.888605  0  0  -0.576052  0  2.100045  0  0  -0.597365  0  2.091952  0  0  -0.335819  -0.560929  0  2.105206  0
O  O136  1  0.83157154  0.86207542  0.32234502  1  0  -0.625323  0  1.915261  0  0  -0.579169  0  2.132732  0  0  -0.602542  0  2.122576  0  0  -0.325595  -0.562655  0  2.139044  0
O  O137  1  0.13791670  0.16842819  0.17765986  1  0  -0.625384  0  1.915231  0  0  -0.579201  0  2.132682  0  0  -0.602578  0  2.12253  0  0  -0.32563  -0.562687  0  2.138992  0
O  O138  1  0.16843779  0.13792284  0.67765529  1  0  -0.625369  0  1.915431  0  0  -0.579211  0  2.132888  0  0  -0.602574  0  2.122721  0  0  -0.325609  -0.562699  0  2.139204  0
O  O139  1  0.86207061  0.83157657  0.82233823  1  0  -0.625336  0  1.915293  0  0  -0.579163  0  2.132736  0  0  -0.602536  0  2.122579  0  0  -0.325655  -0.562649  0  2.139049  0
O  O140  1  0.67591776  0.72965364  0.39653654  1  0  -0.664742  0  2.004478  0  0  -0.593543  0  2.266406  0  0  -0.622193  0  2.252933  0  0  -0.343665  -0.573521  0  2.274651  0
O  O141  1  0.27034959  0.32408677  0.10346574  1  0  -0.66479  0  2.004436  0  0  -0.59357  0  2.266332  0  0  -0.622232  0  2.252871  0  0  -0.343625  -0.573549  0  2.274577  0
O  O142  1  0.32408402  0.27035411  0.60346215  1  0  -0.664851  0  2.004444  0  0  -0.593643  0  2.266339  0  0  -0.622314  0  2.252902  0  0  -0.34371  -0.573622  0  2.274585  0
O  O143  1  0.72965799  0.67593446  0.89653342  1  0  -0.664706  0  2.004627  0  0  -0.593524  0  2.266551  0  0  -0.622176  0  2.253076  0  0  -0.343675  -0.573512  0  2.274821  0
