# generated using pymatgen
data_ZnH17C25N3O4
_symmetry_space_group_name_H-M   'P 1'
_cell_length_a   9.73539131
_cell_length_b   14.42600907
_cell_length_c   19.69007844
_cell_angle_alpha   90.00008111
_cell_angle_beta   89.99983032
_cell_angle_gamma   89.99986263
_symmetry_Int_Tables_number   1
_chemical_formula_structural   ZnH17C25N3O4
_chemical_formula_sum   'Zn4 H68 C100 N12 O16'
_cell_volume   2765.33060136
_cell_formula_units_Z   4
loop_
 _symmetry_equiv_pos_site_id
 _symmetry_equiv_pos_as_xyz
  1  'x, y, z'
loop_
 _atom_site_type_symbol
 _atom_site_label
 _atom_site_symmetry_multiplicity
 _atom_site_fract_x
 _atom_site_fract_y
 _atom_site_fract_z
 _atom_site_occupancy
 _atom_site_pbe_bader_charge
 _atom_site_pbe_bader_spin_density
 _atom_site_pbe_cm5_charge
 _atom_site_pbe_ddec_charge
 _atom_site_pbe_ddec_spin_density
 _atom_site_pbe_ddec_sum_bond_order
 _atom_site_pbe_magmom
Zn  Zn0  1  0.79963405  0.65323989  0.28636987  1  1.250021  0  0.688417  0.759666  0  2.407471  0
Zn  Zn1  1  0.70036641  0.34675929  0.78637033  1  1.250081  0  0.68841  0.759587  0  2.407531  0
Zn  Zn2  1  0.20036802  0.15324062  0.21363088  1  1.249998  0  0.688415  0.759685  0  2.407485  0
Zn  Zn3  1  0.29963300  0.84675785  0.71363070  1  1.249993  0  0.688436  0.759695  0  2.407471  0
H  H4  1  0.91811700  0.25950333  0.59109208  1  0.109039  0  0.097929  0.109707  0  1.042938  0
H  H5  1  0.58188565  0.74049825  0.09109305  1  0.108984  0  0.09792  0.109721  0  1.042957  0
H  H6  1  0.08188786  0.75950261  0.90890835  1  0.109009  0  0.097923  0.109719  0  1.042934  0
H  H7  1  0.41811508  0.24049553  0.40890931  1  0.109033  0  0.097919  0.109684  0  1.042998  0
H  H8  1  0.07216165  0.20503079  0.50016363  1  0.083029  0  0.095305  0.092074  0  1.041535  0
H  H9  1  0.42783758  0.79497004  0.00016618  1  0.082985  0  0.095302  0.092055  0  1.041533  0
H  H10  1  0.92784135  0.70503234  0.99983624  1  0.083062  0  0.095306  0.092085  0  1.041564  0
H  H11  1  0.57216091  0.29496725  0.49983675  1  0.083077  0  0.095286  0.092062  0  1.041543  0
H  H12  1  0.06674965  0.27911147  0.38568216  1  0.116495  0  0.093123  0.099559  0  1.050237  0
H  H13  1  0.43324932  0.72089080  0.88568419  1  0.116532  0  0.093115  0.09951  0  1.05017  0
H  H14  1  0.93325095  0.77911366  0.11431720  1  0.116512  0  0.093103  0.099509  0  1.050223  0
H  H15  1  0.56674848  0.22088658  0.61431772  1  0.1165  0  0.093124  0.099547  0  1.050255  0
H  H16  1  0.90538244  0.40817141  0.36331806  1  0.057289  0  0.090873  0.089174  0  1.060388  0
H  H17  1  0.59461653  0.59183208  0.86331843  1  0.05643  0  0.090863  0.089175  0  1.060327  0
H  H18  1  0.09461770  0.90817361  0.13668193  1  0.057306  0  0.090869  0.089134  0  1.060389  0
H  H19  1  0.40538379  0.09182609  0.63668284  1  0.057273  0  0.090876  0.089161  0  1.060328  0
H  H20  1  0.56260665  0.56772252  0.49092734  1  0.071587  0  0.103048  0.109861  0  0.995238  0
H  H21  1  0.93739259  0.43227844  0.99092551  1  0.071585  0  0.103021  0.109833  0  0.995294  0
H  H22  1  0.43739470  0.06772317  0.00907434  1  0.071547  0  0.103034  0.109844  0  0.995222  0
H  H23  1  0.06260653  0.93227699  0.50907409  1  0.071539  0  0.10303  0.109832  0  0.995345  0
H  H24  1  0.57781279  0.50148115  0.60761398  1  0.086831  0  0.10027  0.10324  0  1.015279  0
H  H25  1  0.92218669  0.49851908  0.10761317  1  0.086855  0  0.100308  0.103302  0  1.015244  0
H  H26  1  0.42218991  0.00148186  0.89238720  1  0.086829  0  0.100256  0.103231  0  1.01525  0
H  H27  1  0.07781211  0.99851903  0.39238742  1  0.086847  0  0.100309  0.103317  0  1.015227  0
H  H28  1  0.55920608  0.77895879  0.22294934  1  0.157975  0  0.147851  0.126837  0  0.987657  0
H  H29  1  0.94079270  0.22104027  0.72294728  1  0.158132  0  0.14788  0.12685  0  0.987599  0
H  H30  1  0.44079452  0.27895925  0.27705103  1  0.157978  0  0.147848  0.126874  0  0.987629  0
H  H31  1  0.05920511  0.72104003  0.77705158  1  0.157956  0  0.147872  0.126874  0  0.987625  0
H  H32  1  0.37313254  0.91910463  0.44073487  1  0.10997  0  0.100262  0.10707  0  1.058025  0
H  H33  1  0.12686610  0.08089427  0.94073312  1  0.109981  0  0.100255  0.107064  0  1.058034  0
H  H34  1  0.62686756  0.41910507  0.05926565  1  0.109961  0  0.100277  0.107084  0  1.058023  0
H  H35  1  0.87313426  0.58089507  0.55926559  1  0.110066  0  0.100258  0.107062  0  1.058072  0
H  H36  1  0.49644421  0.88719907  0.54844688  1  0.109119  0  0.097846  0.103848  0  1.040694  0
H  H37  1  0.00355370  0.11279978  0.04844527  1  0.109175  0  0.097825  0.10381  0  1.040553  0
H  H38  1  0.50355711  0.38720045  0.95155318  1  0.10912  0  0.097854  0.10385  0  1.040675  0
H  H39  1  0.99644646  0.61279905  0.45155290  1  0.109135  0  0.097827  0.103825  0  1.040613  0
H  H40  1  0.70392860  0.78635188  0.55046088  1  0.046651  0  0.092127  0.087602  0  1.034704  0
H  H41  1  0.79606917  0.21364893  0.05045997  1  0.046475  0  0.092131  0.087599  0  1.034654  0
H  H42  1  0.29607206  0.28635222  0.94953907  1  0.046648  0  0.092107  0.087581  0  1.034741  0
H  H43  1  0.20393064  0.71364740  0.44953982  1  0.046439  0  0.092114  0.08754  0  1.034691  0
H  H44  1  0.79428802  0.71449746  0.44452570  1  0.11289  0  0.102677  0.11379  0  1.041024  0
H  H45  1  0.70571252  0.28550272  0.94452406  1  0.112886  0  0.102702  0.11377  0  1.041126  0
H  H46  1  0.20571383  0.21449857  0.05547409  1  0.112928  0  0.102683  0.113778  0  1.041045  0
H  H47  1  0.29428814  0.78550029  0.55547538  1  0.112911  0  0.102686  0.11376  0  1.041154  0
H  H48  1  0.37719053  0.90922367  0.23546701  1  0.131658  0  0.127002  0.137361  0  0.967973  0
H  H49  1  0.12280831  0.09077415  0.73546478  1  0.131594  0  0.127014  0.137451  0  0.967859  0
H  H50  1  0.62281063  0.40922520  0.26453299  1  0.131655  0  0.126987  0.137367  0  0.967993  0
H  H51  1  0.87718996  0.59077395  0.76453344  1  0.131633  0  0.127012  0.137419  0  0.967948  0
H  H52  1  0.33841828  0.95087771  0.31643728  1  0.160319  0  0.124181  0.127202  0  0.988046  0
H  H53  1  0.16158522  0.04912304  0.81643596  1  0.160366  0  0.124194  0.127228  0  0.988026  0
H  H54  1  0.66158274  0.45087833  0.18356225  1  0.16031  0  0.12417  0.12719  0  0.988062  0
H  H55  1  0.83841833  0.54912066  0.68356221  1  0.160297  0  0.124166  0.12718  0  0.988052  0
H  H56  1  0.32129255  0.69679913  0.31682873  1  0.09059  0  0.115858  0.127213  0  0.996391  0
H  H57  1  0.17870580  0.30320230  0.81682359  1  0.090576  0  0.11583  0.127098  0  0.996456  0
H  H58  1  0.67870731  0.19679972  0.18317105  1  0.0906  0  0.115867  0.127222  0  0.996362  0
H  H59  1  0.82129377  0.80319996  0.68317231  1  0.090592  0  0.115876  0.127193  0  0.996366  0
H  H60  1  0.09863294  0.61140425  0.31548350  1  0.110483  0  0.128854  0.101698  0  0.959645  0
H  H61  1  0.40136543  0.38859580  0.81548066  1  0.110495  0  0.128848  0.101671  0  0.959675  0
H  H62  1  0.90136723  0.11140309  0.18451720  1  0.11047  0  0.128834  0.101664  0  0.959669  0
H  H63  1  0.59863384  0.88859590  0.68451736  1  0.11048  0  0.128851  0.101692  0  0.959649  0
H  H64  1  0.88181023  0.84734685  0.26284080  1  0.083357  0  0.123999  0.094431  0  0.979958  0
H  H65  1  0.61819242  0.15265298  0.76284067  1  0.083337  0  0.123984  0.094391  0  0.979977  0
H  H66  1  0.11818909  0.34734637  0.23715964  1  0.083377  0  0.123992  0.094413  0  0.979929  0
H  H67  1  0.38181179  0.65265284  0.73715863  1  0.08335  0  0.123986  0.094416  0  0.979964  0
H  H68  1  0.09622992  0.94486372  0.26466163  1  0.124493  0  0.115784  0.137545  0  1.014066  0
H  H69  1  0.40376977  0.05513485  0.76465997  1  0.124481  0  0.115772  0.137521  0  1.01407  0
H  H70  1  0.90377009  0.44486404  0.23533891  1  0.124502  0  0.115783  0.137522  0  1.014074  0
H  H71  1  0.59623068  0.55513505  0.73533771  1  0.124481  0  0.115771  0.137541  0  1.014066  0
C  C72  1  0.73226175  0.36447714  0.65342112  1  1.551226  0  0.202217  0.566099  0  4.195331  0
C  C73  1  0.76773951  0.63552387  0.15342019  1  1.551255  0  0.202233  0.566155  0  4.195244  0
C  C74  1  0.26773966  0.86447808  0.84657992  1  1.551203  0  0.202191  0.566101  0  4.195373  0
C  C75  1  0.23226160  0.13552342  0.34658054  1  1.551274  0  0.20218  0.566157  0  4.195259  0
C  C76  1  0.73483703  0.40334644  0.58293234  1  -0.057403  0  -0.019764  -0.094042  0  3.955995  0
C  C77  1  0.76516568  0.59665512  0.08293137  1  -0.057394  0  -0.01978  -0.094068  0  3.956054  0
C  C78  1  0.26516527  0.90334614  0.91706722  1  -0.057339  0  -0.019777  -0.094012  0  3.95596  0
C  C79  1  0.23483249  0.09665411  0.41706983  1  -0.057374  0  -0.01973  -0.093981  0  3.955968  0
C  C80  1  0.82334319  0.36728853  0.53097564  1  0.002209  0  -0.001707  0.058313  0  3.955627  0
C  C81  1  0.67665982  0.63271501  0.03097584  1  0.002156  0  -0.00171  0.058319  0  3.95575  0
C  C82  1  0.17666026  0.86728847  0.96902592  1  0.002186  0  -0.001765  0.058278  0  3.955619  0
C  C83  1  0.32334027  0.13271257  0.46902691  1  0.002148  0  -0.001756  0.058297  0  3.955701  0
C  C84  1  0.91691529  0.29306350  0.54173374  1  -0.062193  0  -0.09721  -0.139079  0  3.976834  0
C  C85  1  0.58308766  0.70693798  0.04173568  1  -0.062107  0  -0.097201  -0.139103  0  3.976865  0
C  C86  1  0.08308843  0.79306357  0.95826723  1  -0.062139  0  -0.097155  -0.139013  0  3.976853  0
C  C87  1  0.41691216  0.20693606  0.45826766  1  -0.062138  0  -0.097186  -0.139049  0  3.976917  0
C  C88  1  0.00161177  0.26212147  0.49044663  1  -0.092738  0  -0.091058  -0.06474  0  4.009422  0
C  C89  1  0.49838863  0.73788099  0.99044757  1  -0.092773  0  -0.090993  -0.06462  0  4.009427  0
C  C90  1  0.99839095  0.76212197  0.00955321  1  -0.092718  0  -0.091079  -0.064854  0  4.009472  0
C  C91  1  0.50161014  0.23787738  0.50955486  1  -0.092723  0  -0.091055  -0.064753  0  4.009487  0
C  C92  1  0.99768279  0.30344527  0.42543755  1  -0.013188  0  -0.097028  -0.080229  0  4.01451  0
C  C93  1  0.50231786  0.69655765  0.92543968  1  -0.013208  0  -0.097134  -0.080334  0  4.014575  0
C  C94  1  0.00231875  0.80344751  0.07456234  1  -0.013148  0  -0.097036  -0.080163  0  4.014478  0
C  C95  1  0.49768106  0.19655278  0.57456322  1  -0.013167  0  -0.097071  -0.08028  0  4.014469  0
C  C96  1  0.90823175  0.37538623  0.41309946  1  -0.046864  0  -0.100583  -0.138496  0  4.002338  0
C  C97  1  0.59177103  0.62461597  0.91309986  1  -0.04611  0  -0.100497  -0.138329  0  4.002168  0
C  C98  1  0.09177056  0.87538834  0.08689999  1  -0.047078  0  -0.100506  -0.13834  0  4.00239  0
C  C99  1  0.40823020  0.12461127  0.58690195  1  -0.046935  0  -0.10056  -0.138408  0  4.002176  0
C  C100  1  0.81929006  0.40924117  0.46463768  1  -0.01316  0  -0.00586  0.045679  0  3.968274  0
C  C101  1  0.68071138  0.59076251  0.96463690  1  -0.012993  0  -0.005855  0.045578  0  3.968145  0
C  C102  1  0.18071110  0.90924166  0.03536282  1  -0.013051  0  -0.005907  0.045545  0  3.968349  0
C  C103  1  0.31928792  0.09075924  0.53536335  1  -0.013164  0  -0.005884  0.045594  0  3.968265  0
C  C104  1  0.72394301  0.48207150  0.45130011  1  -0.072092  0  -0.005379  -0.048268  0  3.929258  0
C  C105  1  0.77605851  0.51792939  0.95129962  1  -0.072064  0  -0.005409  -0.048317  0  3.929114  0
C  C106  1  0.27605892  0.98207185  0.04869946  1  -0.072119  0  -0.005351  -0.04819  0  3.929071  0
C  C107  1  0.22394207  0.01792699  0.54870106  1  -0.072359  0  -0.005321  -0.048153  0  3.92899  0
C  C108  1  0.63639727  0.51286808  0.50193584  1  -0.015621  0  -0.09282  -0.120472  0  4.015437  0
C  C109  1  0.86360592  0.48713195  0.00193410  1  -0.015819  0  -0.092793  -0.120399  0  4.015415  0
C  C110  1  0.36360538  0.01286909  0.99806585  1  -0.015831  0  -0.092818  -0.120468  0  4.015426  0
C  C111  1  0.13639292  0.98712993  0.49806598  1  -0.015748  0  -0.092856  -0.120499  0  4.015498  0
C  C112  1  0.64467005  0.47511341  0.56766537  1  -0.071737  0  -0.090792  -0.104353  0  4.023658  0
C  C113  1  0.85533274  0.52488744  0.06766469  1  -0.071541  0  -0.090791  -0.104396  0  4.023537  0
C  C114  1  0.35533404  0.97511506  0.93233579  1  -0.071533  0  -0.090775  -0.104389  0  4.023522  0
C  C115  1  0.14466670  0.02488729  0.43233541  1  -0.071514  0  -0.090807  -0.104461  0  4.023603  0
C  C116  1  0.71909690  0.52784293  0.38269604  1  1.55139  0  0.200072  0.576574  0  4.220689  0
C  C117  1  0.78090401  0.47215783  0.88269601  1  1.551427  0  0.200047  0.576538  0  4.220642  0
C  C118  1  0.28090253  0.02784473  0.11730406  1  1.551631  0  0.200107  0.57662  0  4.220528  0
C  C119  1  0.21909496  0.97215355  0.61730414  1  1.551489  0  0.200079  0.57658  0  4.220628  0
C  C120  1  0.56462531  0.78684667  0.27770788  1  1.023099  0  0.167053  0.126218  0  3.909134  0
C  C121  1  0.93537623  0.21315180  0.77770633  1  1.022938  0  0.167021  0.12625  0  3.909132  0
C  C122  1  0.43537629  0.28684773  0.22229148  1  1.023206  0  0.166965  0.126037  0  3.909348  0
C  C123  1  0.06462469  0.71315145  0.72229252  1  1.022974  0  0.166968  0.126078  0  3.909154  0
C  C124  1  0.51599101  0.83415026  0.38229970  1  0.252566  0  0.090393  0.082037  0  4.004798  0
C  C125  1  0.98400887  0.16584980  0.88229804  1  0.252544  0  0.090329  0.081945  0  4.004787  0
C  C126  1  0.48400939  0.33415104  0.11770022  1  0.252552  0  0.090366  0.082056  0  4.004751  0
C  C127  1  0.01599222  0.66584724  0.61770077  1  0.25251  0  0.090353  0.081993  0  4.004687  0
C  C128  1  0.46377612  0.87482966  0.44125331  1  -0.060188  0  -0.095012  -0.157416  0  3.985507  0
C  C129  1  0.03622149  0.12516993  0.94125175  1  -0.060229  0  -0.095002  -0.157412  0  3.985587  0
C  C130  1  0.53622414  0.37483025  0.05874665  1  -0.060207  0  -0.095037  -0.157497  0  3.985589  0
C  C131  1  0.96377871  0.62516850  0.55874702  1  -0.060292  0  -0.094996  -0.157401  0  3.985608  0
C  C132  1  0.53419841  0.85631935  0.50141807  1  0.01476  0  -0.09438  -0.080773  0  3.998999  0
C  C133  1  0.96580170  0.14368068  0.00141480  1  0.014777  0  -0.094311  -0.08066  0  3.999039  0
C  C134  1  0.46580405  0.35632089  0.99858246  1  0.014751  0  -0.094329  -0.08065  0  3.998997  0
C  C135  1  0.03419938  0.64367813  0.49858390  1  0.014799  0  -0.09439  -0.080802  0  3.99895  0
C  C136  1  0.65175105  0.79912741  0.50236462  1  0.001969  0  -0.099663  -0.089928  0  4.027361  0
C  C137  1  0.84825008  0.20087261  0.00236311  1  0.002308  0  -0.099684  -0.089959  0  4.027398  0
C  C138  1  0.34824956  0.29912776  0.99763483  1  0.002068  0  -0.099701  -0.090023  0  4.027386  0
C  C139  1  0.15175490  0.70087126  0.49763565  1  0.0022  0  -0.099624  -0.089783  0  4.027179  0
C  C140  1  0.70345749  0.75849584  0.44357150  1  -0.053783  0  -0.093446  -0.155778  0  3.979676  0
C  C141  1  0.79654100  0.24150641  0.94357070  1  -0.053898  0  -0.093431  -0.155745  0  3.979543  0
C  C142  1  0.29654421  0.25849612  0.05642834  1  -0.053857  0  -0.093411  -0.15566  0  3.979699  0
C  C143  1  0.20346085  0.74150344  0.55642870  1  -0.053815  0  -0.093443  -0.155788  0  3.979694  0
C  C144  1  0.63363610  0.77651261  0.38288719  1  0.378866  0  0.08516  0.142444  0  4.044051  0
C  C145  1  0.86636583  0.22348607  0.88288627  1  0.378882  0  0.085105  0.142476  0  4.044028  0
C  C146  1  0.36636553  0.27651357  0.11711216  1  0.378855  0  0.085137  0.142379  0  4.044045  0
C  C147  1  0.13363710  0.72348471  0.61711362  1  0.378895  0  0.085122  0.142455  0  4.044059  0
C  C148  1  0.35559087  0.88648772  0.28786650  1  0.274603  0  -0.03844  -0.122513  0  3.867911  0
C  C149  1  0.14441074  0.11351297  0.78786426  1  0.274036  0  -0.038481  -0.122631  0  3.867958  0
C  C150  1  0.64440934  0.38648772  0.21213347  1  0.274717  0  -0.038447  -0.122565  0  3.867978  0
C  C151  1  0.85559156  0.61351132  0.71213398  1  0.27435  0  -0.038454  -0.122573  0  3.867934  0
C  C152  1  0.22671890  0.82839067  0.28956641  1  -0.0296  0  0.021891  0.155433  0  3.926424  0
C  C153  1  0.27327859  0.17161071  0.78956353  1  -0.029526  0  0.021857  0.155388  0  3.926573  0
C  C154  1  0.77328152  0.32839047  0.21043351  1  -0.02964  0  0.021859  0.155388  0  3.926569  0
C  C155  1  0.72672042  0.67160857  0.71043427  1  -0.029252  0  0.0219  0.155454  0  3.926451  0
C  C156  1  0.22673546  0.73358276  0.30439057  1  0.005662  0  -0.082042  -0.194159  0  3.957377  0
C  C157  1  0.27326194  0.26641727  0.80438729  1  0.005647  0  -0.08194  -0.193929  0  3.957387  0
C  C158  1  0.77326427  0.23358391  0.19560924  1  0.00565  0  -0.082033  -0.194135  0  3.957406  0
C  C159  1  0.72673673  0.76641648  0.69561010  1  0.005656  0  -0.082056  -0.194144  0  3.957276  0
C  C160  1  0.10305691  0.68519456  0.30347495  1  0.445939  0  0.05883  0.108742  0  3.939633  0
C  C161  1  0.39694153  0.31480546  0.80347255  1  0.445958  0  0.058803  0.108656  0  3.939548  0
C  C162  1  0.89694197  0.18519483  0.19652583  1  0.445966  0  0.058847  0.108774  0  3.939591  0
C  C163  1  0.60305903  0.81480557  0.69652591  1  0.445964  0  0.058809  0.108731  0  3.939514  0
C  C164  1  0.98197674  0.81747573  0.27453290  1  0.491257  0  0.056112  0.10585  0  3.941847  0
C  C165  1  0.51802379  0.18252551  0.77453294  1  0.491439  0  0.056057  0.105772  0  3.942028  0
C  C166  1  0.01802269  0.31747609  0.22546751  1  0.491376  0  0.056125  0.105887  0  3.941856  0
C  C167  1  0.48197724  0.68252310  0.72546690  1  0.491554  0  0.056164  0.105925  0  3.941755  0
C  C168  1  0.10051850  0.87067758  0.27478852  1  -0.007389  0  -0.076519  -0.176281  0  3.921922  0
C  C169  1  0.39948113  0.12932309  0.77478745  1  -0.007453  0  -0.076507  -0.176278  0  3.921889  0
C  C170  1  0.89948074  0.37067720  0.22521093  1  -0.007518  0  -0.076502  -0.176231  0  3.921984  0
C  C171  1  0.60051905  0.62932187  0.72521081  1  -0.007525  0  -0.076533  -0.176333  0  3.921972  0
N  N172  1  0.66035433  0.74802231  0.31649687  1  -1.240595  0  -0.35376  -0.339151  0  3.576846  0
N  N173  1  0.83964594  0.25197693  0.81649550  1  -1.240629  0  -0.353703  -0.339146  0  3.576854  0
N  N174  1  0.33964637  0.24802276  0.18350296  1  -1.240636  0  -0.353753  -0.33911  0  3.576853  0
N  N175  1  0.16035483  0.75197565  0.68350339  1  -1.240461  0  -0.353738  -0.339111  0  3.576865  0
N  N176  1  0.47568672  0.83928471  0.31448589  1  -1.22482  0  -0.237899  -0.010294  0  3.749868  0
N  N177  1  0.02431371  0.16071465  0.81448387  1  -1.224283  0  -0.237904  -0.010349  0  3.749916  0
N  N178  1  0.52431469  0.33928624  0.18551404  1  -1.225005  0  -0.237774  -0.010158  0  3.749862  0
N  N179  1  0.97568739  0.66071344  0.68551493  1  -1.224945  0  -0.237787  -0.010196  0  3.749765  0
N  N180  1  0.98271746  0.72605961  0.28856326  1  -1.245552  0  -0.328713  -0.233509  0  3.576046  0
N  N181  1  0.51728196  0.27394027  0.78856239  1  -1.245728  0  -0.32862  -0.23326  0  3.57605  0
N  N182  1  0.01728230  0.22605924  0.21143756  1  -1.245523  0  -0.328703  -0.233516  0  3.576048  0
N  N183  1  0.48271874  0.77394061  0.71143754  1  -1.245664  0  -0.328707  -0.2335  0  3.575919  0
O  O184  1  0.83174874  0.57105089  0.36575192  1  -1.166762  0  -0.338421  -0.570035  0  2.308397  0
O  O185  1  0.66825124  0.42895260  0.86575098  1  -1.166779  0  -0.338392  -0.569996  0  2.308337  0
O  O186  1  0.16825054  0.07105429  0.13424722  1  -1.166684  0  -0.338454  -0.570092  0  2.308267  0
O  O187  1  0.33174583  0.92894402  0.63424657  1  -1.166646  0  -0.338447  -0.570067  0  2.308196  0
O  O188  1  0.61300061  0.52497316  0.34722952  1  -1.169495  0  -0.337745  -0.55888  0  2.065111  0
O  O189  1  0.88700462  0.47502128  0.84723137  1  -1.169542  0  -0.337774  -0.558889  0  2.065045  0
O  O190  1  0.38699781  0.02497556  0.15277109  1  -1.169813  0  -0.337735  -0.558872  0  2.065143  0
O  O191  1  0.11300050  0.97502557  0.65277182  1  -1.169552  0  -0.33774  -0.558884  0  2.065261  0
O  O192  1  0.69866552  0.42212032  0.70172876  1  -1.179233  0  -0.333738  -0.564944  0  2.332814  0
O  O193  1  0.80133544  0.57788009  0.20172771  1  -1.179199  0  -0.333744  -0.56496  0  2.332723  0
O  O194  1  0.30133774  0.92211972  0.79827184  1  -1.179208  0  -0.333686  -0.564953  0  2.332775  0
O  O195  1  0.19866381  0.07788029  0.29827296  1  -1.179204  0  -0.333721  -0.565011  0  2.332727  0
O  O196  1  0.75873537  0.28089822  0.66576484  1  -1.182977  0  -0.315155  -0.551905  0  2.183303  0
O  O197  1  0.74126478  0.71910212  0.16576504  1  -1.182995  0  -0.315171  -0.551958  0  2.183309  0
O  O198  1  0.24126325  0.78089918  0.83423561  1  -1.182915  0  -0.315154  -0.5519  0  2.183265  0
O  O199  1  0.25873911  0.21910159  0.33423628  1  -1.182958  0  -0.315124  -0.551908  0  2.183316  0
