# generated using pymatgen
data_CdH20C24(N2Cl)2
_symmetry_space_group_name_H-M   'P 1'
_cell_length_a   9.11937733
_cell_length_b   15.38184778
_cell_length_c   17.52038066
_cell_angle_alpha   89.99998346
_cell_angle_beta   90.00001303
_cell_angle_gamma   90.00000660
_symmetry_Int_Tables_number   1
_chemical_formula_structural   CdH20C24(N2Cl)2
_chemical_formula_sum   'Cd4 H80 C96 N16 Cl8'
_cell_volume   2457.63414541
_cell_formula_units_Z   4
loop_
 _symmetry_equiv_pos_site_id
 _symmetry_equiv_pos_as_xyz
  1  'x, y, z'
loop_
 _atom_site_type_symbol
 _atom_site_label
 _atom_site_symmetry_multiplicity
 _atom_site_fract_x
 _atom_site_fract_y
 _atom_site_fract_z
 _atom_site_occupancy
 _atom_site_pbe_bader_charge
 _atom_site_pbe_bader_spin_density
 _atom_site_pbe_cm5_charge
 _atom_site_pbe_ddec_charge
 _atom_site_pbe_ddec_spin_density
 _atom_site_pbe_ddec_sum_bond_order
 _atom_site_pbe_magmom
Cd  Cd0  1  0.99999945  0.95977212  0.75000077  1  1.167223  0  0.685744  0.697299  0  2.42863  0
Cd  Cd1  1  0.99999930  0.54022768  0.24999970  1  1.167224  0  0.685767  0.697318  0  2.428649  0
Cd  Cd2  1  0.99999925  0.04022793  0.24999976  1  1.167212  0  0.685776  0.697341  0  2.428621  0
Cd  Cd3  1  0.00000021  0.45977299  0.74999906  1  1.167224  0  0.685755  0.69731  0  2.428667  0
H  H4  1  0.02427920  0.02566457  0.57832077  1  0.099343  0  0.102178  0.084536  0  1.02759  0
H  H5  1  0.97572362  0.02566585  0.92167809  1  0.099375  0  0.1022  0.084572  0  1.027579  0
H  H6  1  0.02428030  0.47433566  0.42167914  1  0.099332  0  0.102185  0.084545  0  1.02758  0
H  H7  1  0.97572019  0.47433575  0.07832021  1  0.099342  0  0.10218  0.084531  0  1.027584  0
H  H8  1  0.97572141  0.97433544  0.42167856  1  0.099339  0  0.102186  0.084556  0  1.027576  0
H  H9  1  0.02427808  0.97433547  0.07832067  1  0.099337  0  0.102176  0.084522  0  1.027597  0
H  H10  1  0.97572140  0.52566435  0.57832133  1  0.099349  0  0.102183  0.084552  0  1.027575  0
H  H11  1  0.02427932  0.52566426  0.92167911  1  0.099339  0  0.102182  0.08455  0  1.027583  0
H  H12  1  0.16559037  0.12657704  0.49412339  1  0.094023  0  0.094427  0.117775  0  1.050859  0
H  H13  1  0.83441005  0.12657715  0.00587662  1  0.09404  0  0.094431  0.117782  0  1.050814  0
H  H14  1  0.16559150  0.37342255  0.50587710  1  0.094019  0  0.094435  0.117777  0  1.05089  0
H  H15  1  0.83441029  0.37342314  0.99412281  1  0.094023  0  0.094429  0.117782  0  1.050848  0
H  H16  1  0.83440914  0.87342232  0.50587651  1  0.094035  0  0.094447  0.117806  0  1.050855  0
H  H17  1  0.16558946  0.87342287  0.99412271  1  0.09402  0  0.094434  0.117779  0  1.050855  0
H  H18  1  0.83441021  0.62657681  0.49412280  1  0.094016  0  0.094426  0.117767  0  1.050864  0
H  H19  1  0.16559141  0.62657687  0.00587709  1  0.09403  0  0.094442  0.117789  0  1.050892  0
H  H20  1  0.34810947  0.24019406  0.69976447  1  0.08772  0  0.103699  0.115061  0  1.014397  0
H  H21  1  0.65189120  0.24019470  0.80023605  1  0.087697  0  0.103698  0.11505  0  1.014382  0
H  H22  1  0.34810829  0.25980555  0.30023662  1  0.08759  0  0.103702  0.115063  0  1.014387  0
H  H23  1  0.65189216  0.25980493  0.19976393  1  0.087593  0  0.103708  0.115067  0  1.014399  0
H  H24  1  0.65189114  0.75980531  0.30023600  1  0.087579  0  0.103689  0.11505  0  1.014387  0
H  H25  1  0.34810941  0.75980531  0.19976328  1  0.087592  0  0.103714  0.115072  0  1.014388  0
H  H26  1  0.65189122  0.74019511  0.69976328  1  0.08758  0  0.103708  0.11507  0  1.014403  0
H  H27  1  0.34810954  0.74019444  0.80023654  1  0.087592  0  0.103705  0.115059  0  1.014386  0
H  H28  1  0.20757685  0.12850850  0.77412587  1  0.07042  0  0.105429  0.075606  0  1.032736  0
H  H29  1  0.79242160  0.12850983  0.72587410  1  0.070388  0  0.105418  0.075598  0  1.032806  0
H  H30  1  0.20757785  0.37149045  0.22587519  1  0.070423  0  0.105378  0.075568  0  1.032782  0
H  H31  1  0.79242372  0.37149046  0.27412532  1  0.070421  0  0.105399  0.075597  0  1.032723  0
H  H32  1  0.79242375  0.87149087  0.22587403  1  0.070404  0  0.105421  0.07561  0  1.032775  0
H  H33  1  0.20757791  0.87149084  0.27412523  1  0.070415  0  0.105412  0.075574  0  1.032802  0
H  H34  1  0.79242275  0.62851021  0.77412527  1  0.070424  0  0.105398  0.075604  0  1.032735  0
H  H35  1  0.20757689  0.62850890  0.72587457  1  0.070418  0  0.105389  0.075585  0  1.032746  0
H  H36  1  0.34463991  0.31969493  0.56322690  1  0.065105  0  0.09973  0.094264  0  1.016329  0
H  H37  1  0.65536077  0.31969553  0.93677360  1  0.065095  0  0.099736  0.09426  0  1.016297  0
H  H38  1  0.34463877  0.18030403  0.43677361  1  0.065089  0  0.099735  0.094254  0  1.016318  0
H  H39  1  0.65536057  0.18030475  0.06322695  1  0.065094  0  0.099725  0.094249  0  1.016336  0
H  H40  1  0.65536070  0.68030443  0.43677243  1  0.065063  0  0.09974  0.09426  0  1.016304  0
H  H41  1  0.34463874  0.68030448  0.06322630  1  0.065089  0  0.099733  0.094253  0  1.016287  0
H  H42  1  0.65536183  0.81969599  0.56322685  1  0.065079  0  0.099722  0.094213  0  1.01629  0
H  H43  1  0.34463895  0.81969592  0.93677294  1  0.065066  0  0.099739  0.094251  0  1.016287  0
H  H44  1  0.54937975  0.16249471  0.54179817  1  0.029769  0  0.109544  0.098026  0  0.949906  0
H  H45  1  0.45061871  0.16249399  0.95820236  1  0.029781  0  0.109543  0.098008  0  0.94984  0
H  H46  1  0.54938084  0.33750491  0.45820293  1  0.029807  0  0.109554  0.098004  0  0.949858  0
H  H47  1  0.45061962  0.33750497  0.04179759  1  0.029798  0  0.109529  0.097987  0  0.949888  0
H  H48  1  0.45061976  0.83750595  0.45820287  1  0.029776  0  0.109545  0.098004  0  0.949853  0
H  H49  1  0.54938080  0.83750537  0.04179754  1  0.029797  0  0.109545  0.09798  0  0.949886  0
H  H50  1  0.45062086  0.66249511  0.54179696  1  0.029807  0  0.109562  0.098  0  0.949877  0
H  H51  1  0.54937879  0.66249374  0.95820287  1  0.029791  0  0.109548  0.097961  0  0.949866  0
H  H52  1  0.48151660  0.37436066  0.63964818  1  0.087446  0  0.09795  0.117135  0  1.048359  0
H  H53  1  0.51848189  0.37436192  0.86035115  1  0.086118  0  0.097951  0.117143  0  1.048347  0
H  H54  1  0.48151652  0.12563701  0.36035177  1  0.086086  0  0.097937  0.117139  0  1.048361  0
H  H55  1  0.51848281  0.12563835  0.13964824  1  0.086099  0  0.09794  0.117148  0  1.048353  0
H  H56  1  0.51848400  0.62563741  0.36035171  1  0.086092  0  0.09794  0.117133  0  1.048364  0
H  H57  1  0.48151652  0.62563744  0.13964817  1  0.086087  0  0.097937  0.11714  0  1.048354  0
H  H58  1  0.51848409  0.87436301  0.63964812  1  0.086075  0  0.097931  0.117126  0  1.048364  0
H  H59  1  0.48151451  0.87436102  0.86035109  1  0.087412  0  0.097954  0.117165  0  1.048316  0
H  H60  1  0.67154276  0.44593398  0.71963503  1  0.114985  0  0.106975  0.085712  0  1.015744  0
H  H61  1  0.32845685  0.44593265  0.78036486  1  0.11501  0  0.107024  0.085799  0  1.015717  0
H  H62  1  0.67154263  0.05406630  0.28036495  1  0.114971  0  0.107014  0.085789  0  1.015726  0
H  H63  1  0.32845669  0.05406630  0.21963565  1  0.114965  0  0.107006  0.08579  0  1.015732  0
H  H64  1  0.32845675  0.55406734  0.28036486  1  0.114981  0  0.10702  0.085806  0  1.015726  0
H  H65  1  0.67154266  0.55406606  0.21963504  1  0.114971  0  0.107009  0.085775  0  1.015719  0
H  H66  1  0.32845798  0.94593436  0.71963495  1  0.114958  0  0.107009  0.085775  0  1.015727  0
H  H67  1  0.67154173  0.94593371  0.78036539  1  0.115008  0  0.107023  0.085813  0  1.015721  0
H  H68  1  0.99672611  0.27888775  0.64517151  1  0.083863  0  0.109653  0.079415  0  1.023737  0
H  H69  1  0.00327017  0.27888833  0.85483014  1  0.083822  0  0.109638  0.079427  0  1.02369  0
H  H70  1  0.99672495  0.22111320  0.35482794  1  0.083872  0  0.109647  0.079411  0  1.023771  0
H  H71  1  0.00327550  0.22111320  0.14517148  1  0.083882  0  0.10965  0.079415  0  1.023731  0
H  H72  1  0.00327559  0.72111357  0.35482839  1  0.083868  0  0.109635  0.079419  0  1.02377  0
H  H73  1  0.99672386  0.72111298  0.14517090  1  0.08388  0  0.109642  0.079405  0  1.023773  0
H  H74  1  0.00327566  0.77888746  0.64517196  1  0.083889  0  0.109651  0.07944  0  1.023743  0
H  H75  1  0.99672402  0.77888681  0.85482956  1  0.08388  0  0.109646  0.079416  0  1.023741  0
H  H76  1  0.81726208  0.19173178  0.56815263  1  0.076665  0  0.107457  0.117243  0  1.006626  0
H  H77  1  0.18274077  0.19173169  0.93184618  1  0.076682  0  0.107463  0.117249  0  1.006633  0
H  H78  1  0.81725768  0.30826851  0.43184679  1  0.076611  0  0.107466  0.117271  0  1.006623  0
H  H79  1  0.18274059  0.30826790  0.06815374  1  0.07662  0  0.107473  0.117266  0  1.006623  0
H  H80  1  0.18273962  0.80826824  0.43184612  1  0.076614  0  0.107443  0.117223  0  1.006653  0
H  H81  1  0.81725874  0.80826832  0.06815258  1  0.076686  0  0.10746  0.11726  0  1.00663  0
H  H82  1  0.18274293  0.69173215  0.56815368  1  0.076621  0  0.107472  0.117282  0  1.006617  0
H  H83  1  0.81726002  0.69173211  0.93184672  1  0.076682  0  0.107459  0.117251  0  1.006636  0
C  C84  1  0.09980849  0.07368351  0.60214102  1  0.512907  0  0.040767  0.096585  0  3.958475  0
C  C85  1  0.90019215  0.07368544  0.89785782  1  0.512929  0  0.040718  0.096479  0  3.958507  0
C  C86  1  0.09980957  0.42631673  0.39785889  1  0.512923  0  0.040747  0.096559  0  3.958515  0
C  C87  1  0.90019091  0.42631681  0.10214105  1  0.512894  0  0.04076  0.096595  0  3.958468  0
C  C88  1  0.90018993  0.92631650  0.39785887  1  0.512922  0  0.04073  0.09653  0  3.958503  0
C  C89  1  0.09980956  0.92631718  0.10214093  1  0.512909  0  0.04075  0.096563  0  3.958488  0
C  C90  1  0.90019103  0.57368393  0.60214101  1  0.512915  0  0.040763  0.096542  0  3.958498  0
C  C91  1  0.09980970  0.57368321  0.89785828  1  0.512929  0  0.040746  0.096539  0  3.95862  0
C  C92  1  0.17693546  0.13139505  0.55604956  1  -0.093742  0  -0.090006  -0.18369  0  3.926134  0
C  C93  1  0.82306628  0.13139696  0.94394927  1  -0.09372  0  -0.090044  -0.183763  0  3.926184  0
C  C94  1  0.17693436  0.36860389  0.44395036  1  -0.09373  0  -0.090058  -0.183767  0  3.926186  0
C  C95  1  0.82306611  0.36860463  0.05605015  1  -0.093719  0  -0.09002  -0.18371  0  3.926099  0
C  C96  1  0.82306515  0.86860496  0.44394977  1  -0.093745  0  -0.090026  -0.183747  0  3.926165  0
C  C97  1  0.17693433  0.86860435  0.05605005  1  -0.093721  0  -0.090004  -0.183699  0  3.926196  0
C  C98  1  0.82306625  0.63139612  0.55604953  1  -0.093739  0  -0.090019  -0.183714  0  3.926203  0
C  C99  1  0.17693559  0.63139538  0.94394974  1  -0.093713  0  -0.090023  -0.183729  0  3.926207  0
C  C100  1  0.27046269  0.19213223  0.59018352  1  0.003925  0  0.011325  0.143198  0  3.947041  0
C  C101  1  0.72953796  0.19213349  0.90981644  1  0.00403  0  0.011352  0.143285  0  3.947045  0
C  C102  1  0.27046266  0.30786738  0.40981642  1  0.004053  0  0.011343  0.143248  0  3.946992  0
C  C103  1  0.72953670  0.30786679  0.09018355  1  0.004064  0  0.011324  0.143167  0  3.947005  0
C  C104  1  0.72953792  0.80786714  0.40981581  1  0.004056  0  0.011321  0.143208  0  3.947004  0
C  C105  1  0.27046264  0.80786718  0.09018346  1  0.004044  0  0.01129  0.143187  0  3.947084  0
C  C106  1  0.72953794  0.69213264  0.59018348  1  0.004032  0  0.0113  0.143198  0  3.947021  0
C  C107  1  0.27046281  0.69213322  0.90981635  1  0.004036  0  0.011326  0.143185  0  3.947086  0
C  C108  1  0.27960039  0.19283174  0.67023201  1  -0.065107  0  -0.088026  -0.179809  0  3.937864  0
C  C109  1  0.72039917  0.19283368  0.82976681  1  -0.065137  0  -0.088034  -0.179782  0  3.937744  0
C  C110  1  0.27960143  0.30716786  0.32976736  1  -0.065025  0  -0.088046  -0.179851  0  3.937922  0
C  C111  1  0.72040013  0.30716790  0.17023261  1  -0.064992  0  -0.088057  -0.179849  0  3.937912  0
C  C112  1  0.72039912  0.80716763  0.32976675  1  -0.065012  0  -0.08806  -0.179848  0  3.937885  0
C  C113  1  0.27960035  0.80716829  0.17023252  1  -0.064997  0  -0.08805  -0.179844  0  3.937939  0
C  C114  1  0.72040028  0.69283280  0.67023197  1  -0.064978  0  -0.088047  -0.179881  0  3.937879  0
C  C115  1  0.27960048  0.69283211  0.82976729  1  -0.065  0  -0.08805  -0.179835  0  3.937936  0
C  C116  1  0.20054566  0.13198598  0.71197596  1  0.512767  0  0.038193  0.083277  0  3.981967  0
C  C117  1  0.79945389  0.13198664  0.78802286  1  0.512818  0  0.038139  0.083145  0  3.982002  0
C  C118  1  0.20054778  0.36801361  0.28802396  1  0.512766  0  0.038249  0.083363  0  3.982007  0
C  C119  1  0.79945379  0.36801365  0.21197599  1  0.512751  0  0.038231  0.083327  0  3.981977  0
C  C120  1  0.79945385  0.86801403  0.28802336  1  0.512768  0  0.038191  0.083265  0  3.981996  0
C  C121  1  0.20054672  0.86801402  0.21197646  1  0.512759  0  0.038188  0.083277  0  3.982071  0
C  C122  1  0.79945392  0.63198640  0.71197594  1  0.512767  0  0.038219  0.083298  0  3.981967  0
C  C123  1  0.20054682  0.63198637  0.78802391  1  0.512751  0  0.038238  0.083323  0  3.981987  0
C  C124  1  0.36311704  0.25235907  0.54405952  1  0.050398  0  -0.079461  -0.090368  0  3.829766  0
C  C125  1  0.63688582  0.25235966  0.95594157  1  0.050382  0  -0.079427  -0.090356  0  3.82961  0
C  C126  1  0.36311483  0.24763989  0.45594214  1  -0.029898  0  -0.079426  -0.090355  0  3.829656  0
C  C127  1  0.63688562  0.24763996  0.04405784  1  -0.029928  0  -0.079419  -0.090313  0  3.829673  0
C  C128  1  0.63688686  0.74764094  0.45594152  1  0.050428  0  -0.079438  -0.090343  0  3.829603  0
C  C129  1  0.36311259  0.74764100  0.04405833  1  0.050369  0  -0.079424  -0.090347  0  3.829603  0
C  C130  1  0.63688797  0.75235948  0.54405833  1  -0.029934  0  -0.079397  -0.090201  0  3.829428  0
C  C131  1  0.36311279  0.75235875  0.95594149  1  -0.029908  0  -0.079443  -0.09033  0  3.829556  0
C  C132  1  0.53048044  0.23316437  0.54245226  1  0.044064  0  -0.068413  -0.069361  0  3.79759  0
C  C133  1  0.46951913  0.23316625  0.95754826  1  0.043915  0  -0.068447  -0.069298  0  3.797531  0
C  C134  1  0.53048042  0.26683394  0.45754771  1  0.022803  0  -0.068467  -0.069307  0  3.79755  0
C  C135  1  0.46952003  0.26683336  0.04245113  1  0.022808  0  -0.068419  -0.069298  0  3.797589  0
C  C136  1  0.46952017  0.76683434  0.45754878  1  0.044008  0  -0.068457  -0.06936  0  3.797542  0
C  C137  1  0.53047928  0.76683376  0.04245164  1  0.044001  0  -0.068447  -0.069289  0  3.797528  0
C  C138  1  0.46952128  0.73316607  0.54245162  1  0.022812  0  -0.068481  -0.069334  0  3.797536  0
C  C139  1  0.53047948  0.73316600  0.95754820  1  0.0228  0  -0.068439  -0.069192  0  3.79742  0
C  C140  1  0.63430772  0.27673976  0.59577302  1  -0.093851  0  0.010139  0.135534  0  3.959336  0
C  C141  1  0.36568857  0.27674035  0.90422749  1  -0.093774  0  0.010139  0.135502  0  3.959287  0
C  C142  1  0.63430877  0.22325922  0.40422753  1  -0.093828  0  0.010161  0.135581  0  3.959264  0
C  C143  1  0.36569058  0.22325926  0.09577246  1  -0.093805  0  0.010182  0.135602  0  3.959234  0
C  C144  1  0.36569070  0.72325896  0.40422745  1  -0.093844  0  0.010151  0.135551  0  3.959312  0
C  C145  1  0.63430875  0.72325902  0.09577241  1  -0.093827  0  0.010174  0.135575  0  3.95927  0
C  C146  1  0.36569184  0.77674080  0.59577294  1  -0.093898  0  0.010177  0.135566  0  3.959254  0
C  C147  1  0.63430674  0.77673945  0.90422744  1  -0.093872  0  0.010111  0.135507  0  3.959244  0
C  C148  1  0.59356921  0.34918553  0.63937594  1  0.032672  0  -0.089205  -0.186738  0  3.934609  0
C  C149  1  0.40642929  0.34918614  0.86062512  1  0.034216  0  -0.089196  -0.186761  0  3.934545  0
C  C150  1  0.59356913  0.15081279  0.36062517  1  0.034184  0  -0.089229  -0.186821  0  3.934582  0
C  C151  1  0.40643021  0.15081282  0.13937540  1  0.034016  0  -0.08923  -0.186821  0  3.934576  0
C  C152  1  0.40643030  0.65081383  0.36062510  1  0.034052  0  -0.089206  -0.186764  0  3.934604  0
C  C153  1  0.59356913  0.65081257  0.13937478  1  0.034186  0  -0.089225  -0.186823  0  3.934565  0
C  C154  1  0.40643148  0.84918787  0.63937472  1  0.034219  0  -0.089225  -0.186811  0  3.934586  0
C  C155  1  0.59356711  0.84918524  0.86062449  1  0.032702  0  -0.089219  -0.186811  0  3.934575  0
C  C156  1  0.69925297  0.39084632  0.68314440  1  0.465892  0  0.042272  0.101063  0  3.959555  0
C  C157  1  0.30074224  0.39084759  0.81685608  1  0.465909  0  0.042268  0.101027  0  3.959556  0
C  C158  1  0.69925396  0.10915136  0.31685559  1  0.465875  0  0.042252  0.101009  0  3.959525  0
C  C159  1  0.30074536  0.10915137  0.18314500  1  0.465904  0  0.042246  0.100991  0  3.959559  0
C  C160  1  0.30074544  0.60915174  0.31685550  1  0.465875  0  0.042234  0.100959  0  3.959541  0
C  C161  1  0.69925508  0.60915178  0.18314439  1  0.465893  0  0.042258  0.101034  0  3.959487  0
C  C162  1  0.30074665  0.89084866  0.68314431  1  0.465874  0  0.042265  0.101057  0  3.959489  0
C  C163  1  0.69925305  0.89084670  0.81685547  1  0.465907  0  0.042249  0.100969  0  3.959567  0
C  C164  1  0.88079057  0.29632518  0.64289872  1  0.530771  0  0.044893  0.095649  0  3.966882  0
C  C165  1  0.11920572  0.29632642  0.85710292  1  0.530759  0  0.044915  0.095608  0  3.966748  0
C  C166  1  0.88079050  0.20367511  0.35710129  1  0.530758  0  0.044873  0.095598  0  3.966893  0
C  C167  1  0.11921104  0.20367512  0.14289927  1  0.530744  0  0.044862  0.09561  0  3.966974  0
C  C168  1  0.11920894  0.70367548  0.35710118  1  0.530753  0  0.044911  0.095651  0  3.966873  0
C  C169  1  0.88079050  0.70367424  0.14289869  1  0.530718  0  0.044885  0.095623  0  3.966878  0
C  C170  1  0.11921121  0.79632555  0.64289918  1  0.530772  0  0.044881  0.095603  0  3.96682  0
C  C171  1  0.88078957  0.79632489  0.85710176  1  0.530744  0  0.044885  0.095632  0  3.966849  0
C  C172  1  0.78090106  0.24906688  0.59949555  1  -0.023369  0  -0.08661  -0.186911  0  3.949141  0
C  C173  1  0.21909742  0.24906811  0.90050553  1  -0.023393  0  -0.086637  -0.186922  0  3.949071  0
C  C174  1  0.78089992  0.25093275  0.40050387  1  -0.023103  0  -0.086581  -0.186908  0  3.949162  0
C  C175  1  0.21909943  0.25093278  0.09949611  1  -0.023083  0  -0.086603  -0.18691  0  3.949223  0
C  C176  1  0.21910065  0.75093248  0.40050434  1  -0.023111  0  -0.086574  -0.186887  0  3.949182  0
C  C177  1  0.78089990  0.75093255  0.09949551  1  -0.023126  0  -0.086572  -0.186902  0  3.949134  0
C  C178  1  0.21910179  0.74906726  0.59949546  1  -0.023255  0  -0.086582  -0.18691  0  3.949067  0
C  C179  1  0.78090008  0.74906723  0.90050493  1  -0.023339  0  -0.08656  -0.186894  0  3.949168  0
N  N180  1  0.11234664  0.07319851  0.67851094  1  -1.224621  0  -0.334945  -0.241542  0  3.532304  0
N  N181  1  0.88765399  0.07320046  0.82148790  1  -1.224682  0  -0.334871  -0.241368  0  3.532215  0
N  N182  1  0.11234769  0.42680173  0.32148954  1  -1.2246  0  -0.33492  -0.241514  0  3.532291  0
N  N183  1  0.88765279  0.42680113  0.17851096  1  -1.224618  0  -0.334921  -0.241529  0  3.532301  0
N  N184  1  0.88765177  0.92680150  0.32148838  1  -1.224621  0  -0.334902  -0.241474  0  3.532243  0
N  N185  1  0.11234661  0.92680150  0.17851142  1  -1.224614  0  -0.334916  -0.241484  0  3.532251  0
N  N186  1  0.88765291  0.57319893  0.67851092  1  -1.224622  0  -0.334921  -0.241483  0  3.532283  0
N  N187  1  0.11234782  0.57319823  0.82148894  1  -1.224631  0  -0.334913  -0.241482  0  3.532376  0
N  N188  1  0.84061021  0.36606387  0.68401254  1  -1.258738  0  -0.334195  -0.234694  0  3.530022  0
N  N189  1  0.15938719  0.36606512  0.81598908  1  -1.258783  0  -0.334246  -0.234712  0  3.530073  0
N  N190  1  0.84060901  0.13393642  0.31598803  1  -1.258719  0  -0.334215  -0.234676  0  3.529971  0
N  N191  1  0.15939032  0.13393642  0.18401255  1  -1.258771  0  -0.33421  -0.234706  0  3.530053  0
N  N192  1  0.15939040  0.63393679  0.31598736  1  -1.258721  0  -0.334217  -0.234679  0  3.529986  0
N  N193  1  0.84061013  0.63393619  0.18401195  1  -1.258767  0  -0.334231  -0.234702  0  3.529977  0
N  N194  1  0.15939050  0.86606359  0.68401244  1  -1.258762  0  -0.334231  -0.234733  0  3.530014  0
N  N195  1  0.84060919  0.86606424  0.81598792  1  -1.258751  0  -0.334232  -0.234701  0  3.529945  0
Cl  Cl196  1  0.79407199  0.95377870  0.64015211  1  -0.736412  0  -0.396626  -0.615632  0  0.942423  0
Cl  Cl197  1  0.20592881  0.95377864  0.85984822  1  -0.736397  0  -0.396629  -0.61563  0  0.942424  0
Cl  Cl198  1  0.79407189  0.54622108  0.35984832  1  -0.736387  0  -0.396626  -0.615631  0  0.942431  0
Cl  Cl199  1  0.20592862  0.54622110  0.14015158  1  -0.736392  0  -0.396635  -0.61564  0  0.942415  0
Cl  Cl200  1  0.20592862  0.04622131  0.35984835  1  -0.736394  0  -0.396631  -0.615638  0  0.942406  0
Cl  Cl201  1  0.79407179  0.04622137  0.14015168  1  -0.736396  0  -0.396632  -0.615637  0  0.942428  0
Cl  Cl202  1  0.20592872  0.45377893  0.64015214  1  -0.736402  0  -0.396625  -0.615628  0  0.94243  0
Cl  Cl203  1  0.79407199  0.45377892  0.85984832  1  -0.736391  0  -0.396635  -0.615643  0  0.942418  0
