# generated using pymatgen
data_Al2H17C33N5O13
_symmetry_space_group_name_H-M   'P 1'
_cell_length_a   6.70124897
_cell_length_b   21.87517406
_cell_length_c   24.37710965
_cell_angle_alpha   109.96960068
_cell_angle_beta   89.99074620
_cell_angle_gamma   89.99553410
_symmetry_Int_Tables_number   1
_chemical_formula_structural   Al2H17C33N5O13
_chemical_formula_sum   'Al4 H34 C66 N10 O26'
_cell_volume   3358.60620318
_cell_formula_units_Z   2
loop_
 _symmetry_equiv_pos_site_id
 _symmetry_equiv_pos_as_xyz
  1  'x, y, z'
loop_
 _atom_site_type_symbol
 _atom_site_label
 _atom_site_symmetry_multiplicity
 _atom_site_fract_x
 _atom_site_fract_y
 _atom_site_fract_z
 _atom_site_occupancy
 _atom_site_pbe_bader_charge
 _atom_site_pbe_bader_spin_density
 _atom_site_pbe_cm5_charge
 _atom_site_pbe_ddec_charge
 _atom_site_pbe_ddec_spin_density
 _atom_site_pbe_ddec_sum_bond_order
 _atom_site_pbe_magmom
Al  Al0  1  0.09986825  0.50158900  0.50015863  1  2.503771  0  0.401853  1.645552  0  2.576412  0
Al  Al1  1  0.59986040  0.49838179  0.49980064  1  2.503733  0  0.402109  1.645829  0  2.575911  0
Al  Al2  1  0.68102638  0.99973324  0.99897780  1  2.501858  0  0.400058  1.641721  0  2.580264  0
Al  Al3  1  0.18098544  0.00025679  0.00101129  1  2.502034  0  0.399919  1.641294  0  2.581224  0
H  H4  1  0.06448319  0.78140263  0.94179043  1  0.074571  0  0.111245  0.114376  0  0.982442  0
H  H5  1  0.56325738  0.21870946  0.05812685  1  0.075737  0  0.111224  0.114612  0  0.982248  0
H  H6  1  0.08118411  0.67254183  0.86815874  1  0.028863  0  0.103517  0.087064  0  1.01999  0
H  H7  1  0.57939213  0.32757761  0.13175895  1  0.03514  0  0.103277  0.08667  0  1.020564  0
H  H8  1  0.83041976  0.85836742  0.81489478  1  0.057975  0  0.109177  0.112166  0  1.00491  0
H  H9  1  0.33094074  0.14155174  0.18511023  1  0.05589  0  0.109167  0.112148  0  1.004666  0
H  H10  1  0.75095925  0.71850319  0.55520509  1  0.087416  0  0.122316  0.132875  0  0.965346  0
H  H11  1  0.25245456  0.28136979  0.44488918  1  0.087854  0  0.122164  0.13261  0  0.965457  0
H  H12  1  0.81101111  0.84882502  0.73197717  1  0.040648  0  0.109918  0.113535  0  1.005342  0
H  H13  1  0.31158796  0.15108939  0.26806091  1  0.039457  0  0.109889  0.113261  0  1.005433  0
H  H14  1  0.94929698  0.58107460  0.66275095  1  0.112719  0  0.115628  0.143051  0  0.990626  0
H  H15  1  0.44836723  0.41891791  0.33724294  1  0.112793  0  0.115579  0.142664  0  0.990516  0
H  H16  1  0.62193044  0.13063176  0.91421871  1  0.096026  0  0.104791  0.11289  0  1.008308  0
H  H17  1  0.12195115  0.86939862  0.08581236  1  0.095818  0  0.104759  0.112888  0  1.008329  0
H  H18  1  0.62640946  0.20194498  0.85215337  1  0.106569  0  0.105944  0.102969  0  1.037874  0
H  H19  1  0.12644806  0.79811487  0.14790689  1  0.107247  0  0.105908  0.102939  0  1.038074  0
H  H20  1  0.24102130  0.08601664  0.87470375  1  0.097111  0  0.111338  0.129716  0  1.003599  0
H  H21  1  0.74103978  0.91398173  0.12527226  1  0.097046  0  0.111322  0.12965  0  1.003683  0
H  H22  1  0.56738764  0.31783084  0.67060868  1  0.128826  0  0.104308  0.107701  0  1.0594  0
H  H23  1  0.06751427  0.68216720  0.32939539  1  0.129715  0  0.104443  0.107747  0  1.059136  0
H  H24  1  0.54377914  0.38214489  0.60447631  1  0.095439  0  0.106681  0.116013  0  1.008655  0
H  H25  1  0.04391814  0.61784537  0.39552091  1  0.096288  0  0.106714  0.116247  0  1.008772  0
H  H26  1  0.18262258  0.40602937  0.61166152  1  0.117459  0  0.115524  0.13946  0  0.994467  0
H  H27  1  0.68278412  0.59399666  0.38833330  1  0.115902  0  0.115494  0.139415  0  0.994037  0
H  H28  1  0.37711472  0.12473782  0.80747972  1  0.606581  0  0.338371  0.367653  0  0.871704  0
H  H29  1  0.87708966  0.87529861  0.19251247  1  0.606165  0  0.338371  0.367531  0  0.872025  0
H  H30  1  0.22814957  0.32132743  0.71233084  1  0.631169  0  0.301046  0.299158  0  1.05197  0
H  H31  1  0.72828493  0.67875113  0.28769154  1  0.629565  0  0.301187  0.299448  0  1.051823  0
H  H32  1  0.05692542  0.59652716  0.80665461  1  0.593087  0  0.328862  0.353067  0  0.91004  0
H  H33  1  0.55524043  0.40358728  0.19331623  1  0.592578  0  0.328794  0.352382  0  0.910549  0
H  H34  1  0.35194810  0.54134080  0.57553089  1  0.605938  0  0.356887  0.436309  0  0.843292  0
H  H35  1  0.85206416  0.45864383  0.42442688  1  0.605763  0  0.356741  0.436111  0  0.84345  0
H  H36  1  0.42739295  0.95272084  0.92650363  1  0.624919  0  0.354487  0.432724  0  0.85055  0
H  H37  1  0.92724197  0.04733703  0.07344595  1  0.626828  0  0.354346  0.432495  0  0.850529  0
C  C38  1  0.35241304  0.56131837  0.43398964  1  1.571583  0  0.268287  0.639189  0  4.093404  0
C  C39  1  0.85233340  0.43866597  0.56598036  1  1.570924  0  0.268315  0.639307  0  4.093636  0
C  C40  1  0.34728131  0.39238009  0.42696034  1  1.601023  0  0.277564  0.661654  0  4.089546  0
C  C41  1  0.84711332  0.60758511  0.57304347  1  1.60169  0  0.277281  0.661424  0  4.090396  0
C  C42  1  0.02685860  0.71252961  0.85493966  1  -0.087691  0  -0.091748  -0.125642  0  4.036427  0
C  C43  1  0.52569300  0.28753889  0.14500322  1  -0.09767  0  -0.091474  -0.125398  0  4.036588  0
C  C44  1  0.94238419  0.82595180  0.88209726  1  -0.055482  0  -0.010257  -0.023299  0  3.998327  0
C  C45  1  0.44208099  0.17406700  0.11787900  1  0.008359  0  -0.009825  -0.022801  0  3.998307  0
C  C46  1  0.78571759  0.72613030  0.60073351  1  -0.044647  0  -0.065893  -0.124962  0  3.924596  0
C  C47  1  0.28681318  0.27376806  0.39933510  1  -0.042701  0  -0.065484  -0.124381  0  3.923335  0
C  C48  1  0.77827061  0.78960166  0.64249423  1  0.042865  0  0.003384  0.065105  0  4.125942  0
C  C49  1  0.27925252  0.21030568  0.35755915  1  0.043941  0  0.003456  0.065485  0  4.124989  0
C  C50  1  0.81801478  0.79936582  0.70102433  1  0.019177  0  -0.072938  -0.153505  0  3.93781  0
C  C51  1  0.31859063  0.20055437  0.29900572  1  0.02085  0  -0.072999  -0.153356  0  3.938164  0
C  C52  1  0.86820789  0.74717271  0.71963829  1  0.067152  0  -0.005986  0.017722  0  3.985953  0
C  C53  1  0.36823264  0.25277880  0.28036747  1  0.066051  0  -0.005739  0.017812  0  3.985887  0
C  C54  1  0.88397885  0.68334430  0.67724390  1  -0.017944  0  0.004546  0.082193  0  4.007019  0
C  C55  1  0.38369616  0.31661699  0.32274613  1  -0.018643  0  0.004903  0.082698  0  4.006867  0
C  C56  1  0.90882912  0.75594724  0.78036020  1  -0.002801  0  0.003768  0.062381  0  3.960536  0
C  C57  1  0.40856498  0.24403908  0.21962945  1  -0.001271  0  0.003932  0.062096  0  3.960297  0
C  C58  1  0.97357689  0.70204302  0.79629521  1  0.025992  0  -0.014519  -0.04156  0  4.011689  0
C  C59  1  0.47274243  0.29798990  0.20367197  1  0.028204  0  -0.01456  -0.041155  0  4.010873  0
C  C60  1  0.98344189  0.63860080  0.75179112  1  0.420152  0  0.084609  0.271747  0  4.095112  0
C  C61  1  0.48236335  0.36143829  0.24818575  1  0.419269  0  0.084627  0.271696  0  4.094995  0
C  C62  1  0.93927877  0.62995432  0.69474990  1  0.048777  0  -0.10515  -0.264116  0  3.955506  0
C  C63  1  0.43845782  0.37003944  0.30523339  1  0.050369  0  -0.105386  -0.264293  0  3.955632  0
C  C64  1  0.88749026  0.81682922  0.82505384  1  0.008055  0  -0.079154  -0.146956  0  3.940419  0
C  C65  1  0.38749533  0.18314218  0.17494370  1  0.00986  0  -0.079548  -0.147151  0  3.940207  0
C  C66  1  0.01709569  0.77359268  0.89713313  1  0.013285  0  -0.083571  -0.097254  0  3.994155  0
C  C67  1  0.51619979  0.22646810  0.10280662  1  -0.050033  0  -0.083672  -0.097611  0  3.994376  0
C  C68  1  0.83941329  0.67448679  0.61792339  1  0.063185  0  -0.003598  -0.067828  0  3.946549  0
C  C69  1  0.33973941  0.32545127  0.38210047  1  0.062952  0  -0.004256  -0.068461  0  3.946369  0
C  C70  1  0.75630379  0.13614276  0.89116088  1  -0.019125  0  -0.101112  -0.135533  0  4.021337  0
C  C71  1  0.25631725  0.86389188  0.10886750  1  -0.017557  0  -0.101041  -0.135581  0  4.021403  0
C  C72  1  0.75910932  0.17529521  0.85684336  1  -0.045535  0  -0.087263  -0.106389  0  4.015782  0
C  C73  1  0.25912261  0.82475862  0.14320523  1  -0.041977  0  -0.087395  -0.106492  0  4.016184  0
C  C74  1  0.93294219  0.18305302  0.82726323  1  0.011267  0  -0.008839  -0.077411  0  3.936987  0
C  C75  1  0.43294734  0.81699157  0.17276916  1  0.006116  0  -0.008589  -0.077345  0  3.938016  0
C  C76  1  0.10845498  0.14951819  0.83320045  1  0.476465  0  0.096446  0.300474  0  4.043042  0
C  C77  1  0.60843313  0.85052468  0.16681802  1  0.474729  0  0.096365  0.30058  0  4.042764  0
C  C78  1  0.10609678  0.11120459  0.86896362  1  0.043168  0  -0.100475  -0.246121  0  3.966963  0
C  C79  1  0.60610415  0.88880950  0.13103117  1  0.043665  0  -0.100516  -0.246316  0  3.967148  0
C  C80  1  0.93172408  0.10398089  0.89743088  1  -0.062362  0  -0.012621  -0.002713  0  3.996723  0
C  C81  1  0.43173904  0.89603868  0.10257466  1  -0.061896  0  -0.012693  -0.002522  0  3.996654  0
C  C82  1  0.89578167  0.29245981  0.72205452  1  0.922381  0  0.241541  0.264162  0  3.980625  0
C  C83  1  0.39589931  0.70755760  0.27795866  1  0.922028  0  0.241757  0.264774  0  3.979445  0
C  C84  1  0.92381865  0.22522584  0.79172992  1  0.961005  0  0.238534  0.250035  0  3.975509  0
C  C85  1  0.42385487  0.77480006  0.20828057  1  0.961492  0  0.238615  0.249969  0  3.976324  0
C  C86  1  0.70171333  0.33696695  0.65748046  1  -0.009822  0  -0.080842  -0.077477  0  3.982464  0
C  C87  1  0.20183999  0.66305179  0.34252911  1  -0.04368  0  -0.0809  -0.077055  0  3.982612  0
C  C88  1  0.68786899  0.37268211  0.62051323  1  -0.026765  0  -0.09354  -0.119308  0  3.984869  0
C  C89  1  0.18797756  0.62732890  0.37949048  1  0.005783  0  -0.093538  -0.119502  0  3.984663  0
C  C90  1  0.86243673  0.39784954  0.60412985  1  -0.056107  0  -0.009027  -0.012208  0  3.991329  0
C  C91  1  0.36257160  0.60216681  0.39586932  1  -0.057528  0  -0.009097  -0.012565  0  3.99151  0
C  C92  1  0.04815970  0.38642029  0.62446320  1  0.034324  0  -0.093593  -0.214254  0  3.921837  0
C  C93  1  0.54832698  0.61361939  0.37554514  1  0.035054  0  -0.09318  -0.213996  0  3.921369  0
C  C94  1  0.06363475  0.35138717  0.66280672  1  0.544851  0  0.098825  0.308431  0  4.035886  0
C  C95  1  0.56379392  0.64867030  0.33721821  1  0.546358  0  0.098893  0.309017  0  4.035191  0
C  C96  1  0.88721661  0.32618691  0.68003316  1  -0.009877  0  -0.021851  -0.12582  0  3.994169  0
C  C97  1  0.38735262  0.67386029  0.32000061  1  -0.010085  0  -0.022129  -0.126486  0  3.994387  0
C  C98  1  0.43329751  0.10750515  0.07297053  1  1.594865  0  0.277342  0.659748  0  4.081125  0
C  C99  1  0.93345455  0.89249725  0.92700743  1  1.595764  0  0.276797  0.658758  0  4.081906  0
C  C100  1  0.43201852  0.93822421  0.06563586  1  1.561741  0  0.265681  0.6373  0  4.099177  0
C  C101  1  0.93189228  0.06178843  0.93436008  1  1.561771  0  0.26561  0.637062  0  4.098755  0
C  C102  1  0.72996483  0.84380264  0.62511680  1  0.837306  0  0.167485  0.222181  0  4.041597  0
C  C103  1  0.23144039  0.15609091  0.37498378  1  0.834845  0  0.167621  0.221762  0  4.038029  0
N  N104  1  0.09086659  0.25439650  0.78208097  1  -0.526889  0  -0.150677  -0.117471  0  3.189427  0
N  N105  1  0.59095493  0.74565011  0.21792791  1  -0.528189  0  -0.150343  -0.116783  0  3.190084  0
N  N106  1  0.07511072  0.28700579  0.74581597  1  -0.626765  0  -0.151558  -0.148284  0  3.335271  0
N  N107  1  0.57521667  0.71304196  0.25419675  1  -0.6257  0  -0.151949  -0.149069  0  3.335967  0
N  N108  1  0.72314551  0.27296914  0.74106777  1  -0.53095  0  -0.140045  -0.124526  0  3.18398  0
N  N109  1  0.22323118  0.72701111  0.25892115  1  -0.528851  0  -0.140321  -0.125066  0  3.183583  0
N  N110  1  0.73860503  0.23822465  0.77501817  1  -0.488451  0  -0.141086  -0.129114  0  3.213197  0
N  N111  1  0.23865247  0.76175379  0.22496867  1  -0.490149  0  -0.141142  -0.129101  0  3.213389  0
N  N112  1  0.69069005  0.88860624  0.61136008  1  -1.117462  0  -0.322403  -0.364313  0  2.676911  0
N  N113  1  0.19228500  0.11131154  0.38877929  1  -1.119141  0  -0.322681  -0.364236  0  2.673862  0
O  O114  1  0.51857882  0.41643455  0.44346828  1  -1.250742  0  -0.227869  -0.583654  0  2.318717  0
O  O115  1  0.01842941  0.58351892  0.55652726  1  -1.25101  0  -0.227776  -0.583641  0  2.319018  0
O  O116  1  0.18046380  0.54753099  0.44894545  1  -1.256083  0  -0.23624  -0.591983  0  2.330977  0
O  O117  1  0.68041241  0.45246492  0.55103401  1  -1.256092  0  -0.236497  -0.592171  0  2.330783  0
O  O118  1  0.18010577  0.41947706  0.44405794  1  -1.248983  0  -0.226857  -0.582976  0  2.321329  0
O  O119  1  0.67998104  0.58049755  0.55590902  1  -1.249823  0  -0.227002  -0.582958  0  2.321568  0
O  O120  1  0.01853966  0.45794318  0.55232663  1  -1.268076  0  -0.239242  -0.603927  0  2.376626  0
O  O121  1  0.51858945  0.54201106  0.44762381  1  -1.26789  0  -0.239604  -0.604045  0  2.37616  0
O  O122  1  0.35010178  0.51218685  0.53537038  1  -1.407584  0  -0.448142  -0.99182  0  2.187963  0
O  O123  1  0.85016490  0.48779898  0.46458797  1  -1.407543  0  -0.448149  -0.991538  0  2.187819  0
O  O124  1  0.26173406  0.95476582  0.05216401  1  -1.252095  0  -0.237434  -0.593771  0  2.359714  0
O  O125  1  0.76158049  0.04539331  0.94794050  1  -1.252611  0  -0.2374  -0.593573  0  2.359586  0
O  O126  1  0.60095843  0.08223832  0.05339958  1  -1.258503  0  -0.229435  -0.588284  0  2.333058  0
O  O127  1  0.10105484  0.91768762  0.94670788  1  -1.258932  0  -0.228945  -0.58744  0  2.333166  0
O  O128  1  0.60117992  0.95491074  0.05127249  1  -1.262105  0  -0.239712  -0.596135  0  2.336217  0
O  O129  1  0.10100948  0.04493947  0.94860835  1  -1.261708  0  -0.239956  -0.59628  0  2.336151  0
O  O130  1  0.76315782  0.91877440  0.94133311  1  -1.254598  0  -0.230547  -0.587603  0  2.308788  0
O  O131  1  0.26298163  0.08130879  0.05851142  1  -1.25402  0  -0.230594  -0.587786  0  2.309221  0
O  O132  1  0.42979304  0.98703406  0.96431467  1  -1.428059  0  -0.448452  -0.989233  0  2.182103  0
O  O133  1  0.92977379  0.01295817  0.03567677  1  -1.430119  0  -0.448272  -0.988944  0  2.182139  0
O  O134  1  0.27460600  0.15439551  0.80304130  1  -1.108032  0  -0.332516  -0.429737  0  2.332112  0
O  O135  1  0.77457689  0.84565819  0.19697544  1  -1.107005  0  -0.332439  -0.429576  0  2.332156  0
O  O136  1  0.24639857  0.34403873  0.68266606  1  -1.15246  0  -0.336883  -0.420155  0  2.362216  0
O  O137  1  0.74654703  0.65604977  0.31736707  1  -1.151206  0  -0.337081  -0.420583  0  2.361631  0
O  O138  1  0.03729809  0.58494402  0.76477622  1  -1.103085  0  -0.348128  -0.424388  0  2.254729  0
O  O139  1  0.53564224  0.41514218  0.23519899  1  -1.103084  0  -0.348169  -0.42372  0  2.254929  0
