# generated using pymatgen
data_U2H27C30N3Cl2O11
_symmetry_space_group_name_H-M   'P 1'
_cell_length_a   11.14619649
_cell_length_b   11.78254638
_cell_length_c   12.95437200
_cell_angle_alpha   87.55770335
_cell_angle_beta   78.23739031
_cell_angle_gamma   78.25390695
_symmetry_Int_Tables_number   1
_chemical_formula_structural   U2H27C30N3Cl2O11
_chemical_formula_sum   'U4 H54 C60 N6 Cl4 O22'
_cell_volume   1630.69942619
_cell_formula_units_Z   2
loop_
 _symmetry_equiv_pos_site_id
 _symmetry_equiv_pos_as_xyz
  1  'x, y, z'
loop_
 _atom_site_type_symbol
 _atom_site_label
 _atom_site_symmetry_multiplicity
 _atom_site_fract_x
 _atom_site_fract_y
 _atom_site_fract_z
 _atom_site_occupancy
 _atom_site_hle17_bader_spin_density
 _atom_site_hle17_ddec_charge
 _atom_site_hle17_ddec_spin_density
 _atom_site_hle17_ddec_sum_bond_order
 _atom_site_hle17_magmom
 _atom_site_hse06_10hf_bader_spin_density
 _atom_site_hse06_10hf_ddec_charge
 _atom_site_hse06_10hf_ddec_spin_density
 _atom_site_hse06_10hf_ddec_sum_bond_order
 _atom_site_hse06_10hf_magmom
 _atom_site_hse06_bader_spin_density
 _atom_site_hse06_ddec_charge
 _atom_site_hse06_ddec_spin_density
 _atom_site_hse06_ddec_sum_bond_order
 _atom_site_hse06_magmom
 _atom_site_pbe_bader_spin_density
 _atom_site_pbe_cm5_charge
 _atom_site_pbe_ddec_charge
 _atom_site_pbe_ddec_spin_density
 _atom_site_pbe_ddec_sum_bond_order
 _atom_site_pbe_magmom
U  U0  1  0.96437787  0.24870957  0.34386721  1  0  2.513902  0  4.163059  0  0  2.601834  0  4.810745  0  0  2.717619  0  4.769851  0  0  2.069555  2.518538  0  4.841872  0
U  U1  1  0.03561893  0.75129120  0.65613123  1  0  2.513934  0  4.163075  0  0  2.601952  0  4.810662  0  0  2.717689  0  4.769849  0  0  2.069578  2.518593  0  4.841835  0
U  U2  1  0.86690071  0.07331596  0.60232250  1  0  2.482934  0  4.194306  0  0  2.592918  0  4.830922  0  0  2.712953  0  4.789038  0  0  1.972762  2.508839  0  4.85927  0
U  U3  1  0.13310085  0.92668396  0.39767823  1  0  2.483064  0  4.194336  0  0  2.593056  0  4.830946  0  0  2.713035  0  4.789195  0  0  1.972823  2.508949  0  4.859349  0
H  H4  1  0.47188076  0.46649854  0.60470249  1  0  0.122581  0  0.953972  0  0  0.128833  0  1.017566  0  0  0.1318  0  1.017021  0  0  0.117096  0.126667  0  1.018169  0
H  H5  1  0.52812447  0.53350138  0.39529836  1  0  0.122608  0  0.953909  0  0  0.128838  0  1.017541  0  0  0.131809  0  1.016985  0  0  0.117103  0.12667  0  1.018138  0
H  H6  1  0.44522462  0.63827996  0.72010222  1  0  0.121939  0  0.944724  0  0  0.127446  0  1.006492  0  0  0.130488  0  1.004011  0  0  0.137454  0.125245  0  1.00825  0
H  H7  1  0.55477933  0.36172168  0.27989570  1  0  0.121863  0  0.944754  0  0  0.127405  0  1.006476  0  0  0.130445  0  1.003998  0  0  0.137448  0.125206  0  1.008234  0
H  H8  1  0.82985814  0.58818224  0.70176760  1  0  0.110023  0  0.998799  0  0  0.114084  0  1.067753  0  0  0.118115  0  1.063859  0  0  0.132643  0.111102  0  1.070594  0
H  H9  1  0.17014470  0.41182028  0.29823202  1  0  0.110079  0  0.998814  0  0  0.114109  0  1.067762  0  0  0.118141  0  1.063866  0  0  0.132654  0.111122  0  1.070604  0
H  H10  1  0.86882276  0.41195831  0.58601749  1  0  0.135891  0  0.918553  0  0  0.144817  0  0.975201  0  0  0.148608  0  0.972994  0  0  0.134981  0.142111  0  0.976969  0
H  H11  1  0.13118302  0.58804335  0.41398320  1  0  0.135895  0  0.918586  0  0  0.144875  0  0.975184  0  0  0.148667  0  0.972975  0  0  0.135013  0.142167  0  0.976954  0
H  H12  1  0.37221466  0.32938222  0.79369875  1  0  0.128798  0  0.932039  0  0  0.137244  0  0.989953  0  0  0.141785  0  0.987007  0  0  0.119223  0.133797  0  0.992561  0
H  H13  1  0.62777844  0.67062723  0.20630151  1  0  0.128803  0  0.932081  0  0  0.137238  0  0.99  0  0  0.141773  0  0.987062  0  0  0.119244  0.133788  0  0.992607  0
H  H14  1  0.38999024  0.11329479  0.78246200  1  0  0.109943  0  0.930062  0  0  0.120512  0  0.984842  0  0  0.12348  0  0.982877  0  0  0.13675  0.118278  0  0.986389  0
H  H15  1  0.61000689  0.88671294  0.21754148  1  0  0.109891  0  0.93007  0  0  0.120471  0  0.984837  0  0  0.12344  0  0.98287  0  0  0.13671  0.1182  0  0.986423  0
H  H16  1  0.17819328  0.15267508  0.54900863  1  0  0.135088  0  0.942365  0  0  0.14227  0  1.001422  0  0  0.146584  0  0.996496  0  0  0.152028  0.139128  0  1.005146  0
H  H17  1  0.82181012  0.84732484  0.45099100  1  0  0.135056  0  0.942391  0  0  0.142217  0  1.001456  0  0  0.146533  0  0.996528  0  0  0.152009  0.139074  0  1.00518  0
H  H18  1  0.14828252  0.36865991  0.55406253  1  0  0.138614  0  0.941807  0  0  0.147669  0  0.998483  0  0  0.15169  0  0.996231  0  0  0.122105  0.144786  0  1.000284  0
H  H19  1  0.85171795  0.63134085  0.44593372  1  0  0.138686  0  0.941786  0  0  0.147725  0  0.998472  0  0  0.151745  0  0.99622  0  0  0.122112  0.144836  0  1.000276  0
H  H20  1  0.19135526  0.47177161  0.91786926  1  0  0.12749  0  0.958912  0  0  0.131912  0  1.024397  0  0  0.135786  0  1.022861  0  0  0.115792  0.129103  0  1.02574  0
H  H21  1  0.80864393  0.52822656  0.08212886  1  0  0.127466  0  0.958895  0  0  0.131888  0  1.02438  0  0  0.13576  0  1.022844  0  0  0.115735  0.129073  0  1.025724  0
H  H22  1  0.23257690  0.67126009  0.88658939  1  0  0.125711  0  0.950746  0  0  0.130164  0  1.013927  0  0  0.133581  0  1.01068  0  0  0.138932  0.127679  0  1.016387  0
H  H23  1  0.76742908  0.32873635  0.11340762  1  0  0.125734  0  0.950711  0  0  0.130191  0  1.013905  0  0  0.133604  0  1.010661  0  0  0.138941  0.127702  0  1.01637  0
H  H24  1  0.08728192  0.75991643  0.20308012  1  0  0.122497  0  0.978584  0  0  0.130512  0  1.042615  0  0  0.134458  0  1.0383  0  0  0.133467  0.127554  0  1.045957  0
H  H25  1  0.91271838  0.24008088  0.79691785  1  0  0.122522  0  0.978536  0  0  0.13054  0  1.042571  0  0  0.134501  0  1.038218  0  0  0.133475  0.12758  0  1.045914  0
H  H26  1  0.02867154  0.56565280  0.24134151  1  0  0.124334  0  0.942318  0  0  0.133833  0  0.999605  0  0  0.136716  0  0.999489  0  0  0.121718  0.131772  0  0.999835  0
H  H27  1  0.97132620  0.43434362  0.75865385  1  0  0.124337  0  0.942244  0  0  0.133863  0  0.999509  0  0  0.136747  0  0.999394  0  0  0.121709  0.131801  0  0.999748  0
H  H28  1  0.65439676  0.67770484  0.85928157  1  0  0.089638  0  0.935535  0  0  0.107441  0  0.992021  0  0  0.107726  0  0.992203  0  0  0.117505  0.107069  0  0.992107  0
H  H29  1  0.34560224  0.32229421  0.14071964  1  0  0.08965  0  0.935544  0  0  0.107428  0  0.992049  0  0  0.10771  0  0.992236  0  0  0.117501  0.107059  0  0.992139  0
H  H30  1  0.69580399  0.76625730  0.75071475  1  0  0.105979  0  0.948482  0  0  0.117435  0  1.014834  0  0  0.119102  0  1.013  0  0  0.12098  0.116161  0  1.016362  0
H  H31  1  0.30419701  0.23374523  0.24928905  1  0  0.105871  0  0.948642  0  0  0.117387  0  1.014909  0  0  0.119052  0  1.013078  0  0  0.12096  0.116115  0  1.016438  0
H  H32  1  0.39587197  0.69919625  0.06552502  1  0  0.116595  0  0.986254  0  0  0.135007  0  1.049529  0  0  0.137575  0  1.048205  0  0  0.085098  0.133061  0  1.050596  0
H  H33  1  0.60412760  0.30080019  0.93447466  1  0  0.116593  0  0.9863  0  0  0.135005  0  1.049582  0  0  0.137573  0  1.048258  0  0  0.085088  0.133062  0  1.050644  0
H  H34  1  0.54958904  0.71004861  0.00807101  1  0  0.118524  0  0.929022  0  0  0.144923  0  0.97919  0  0  0.146456  0  0.978739  0  0  0.098192  0.143722  0  0.979688  0
H  H35  1  0.45041071  0.28994697  0.99193021  1  0  0.118587  0  0.92889  0  0  0.144972  0  0.979078  0  0  0.146501  0  0.978631  0  0  0.098221  0.143771  0  0.979584  0
H  H36  1  0.48125384  0.60425399  0.96116200  1  0  0.10411  0  0.94314  0  0  0.12543  0  1.004933  0  0  0.126662  0  1.004991  0  0  0.089526  0.124601  0  1.004802  0
H  H37  1  0.51874756  0.39574245  0.03883658  1  0  0.1041  0  0.943222  0  0  0.125437  0  1.004987  0  0  0.126669  0  1.005046  0  0  0.089535  0.124609  0  1.004855  0
H  H38  1  0.24802768  0.84219701  0.10050931  1  0  0.105105  0  0.972289  0  0  0.118359  0  1.036317  0  0  0.12052  0  1.03444  0  0  0.107941  0.116617  0  1.037763  0
H  H39  1  0.75197408  0.15779770  0.89949160  1  0  0.105091  0  0.972291  0  0  0.118353  0  1.03634  0  0  0.120513  0  1.034466  0  0  0.107942  0.116613  0  1.037788  0
H  H40  1  0.12055089  0.90076000  0.04033513  1  0  0.099875  0  0.944306  0  0  0.116361  0  1.004715  0  0  0.11632  0  1.00553  0  0  0.121054  0.116349  0  1.00413  0
H  H41  1  0.87944977  0.09923559  0.95966670  1  0  0.099906  0  0.944284  0  0  0.116423  0  1.004689  0  0  0.116381  0  1.005504  0  0  0.121081  0.11641  0  1.004103  0
H  H42  1  0.09970829  0.05085590  0.80742247  1  0  0.116706  0  0.974848  0  0  0.135975  0  1.038566  0  0  0.137622  0  1.038179  0  0  0.097861  0.134792  0  1.038855  0
H  H43  1  0.90028924  0.94914143  0.19258215  1  0  0.116682  0  0.974788  0  0  0.135953  0  1.038514  0  0  0.137601  0  1.038124  0  0  0.097817  0.134767  0  1.038811  0
H  H44  1  0.11272129  0.05944651  0.94069555  1  0  0.11997  0  0.934273  0  0  0.14283  0  0.992909  0  0  0.144733  0  0.99168  0  0  0.096042  0.14132  0  0.993886  0
H  H45  1  0.88727772  0.94054822  0.05930893  1  0  0.11996  0  0.934269  0  0  0.14283  0  0.992899  0  0  0.144731  0  0.99167  0  0  0.096032  0.141321  0  0.993877  0
H  H46  1  0.05202960  0.94480671  0.89615433  1  0  0.122733  0  0.949493  0  0  0.143861  0  1.011824  0  0  0.145701  0  1.010733  0  0  0.100781  0.142504  0  1.012624  0
H  H47  1  0.94797033  0.05518802  0.10384921  1  0  0.122662  0  0.949477  0  0  0.143795  0  1.01181  0  0  0.14563  0  1.010718  0  0  0.100759  0.142439  0  1.012607  0
H  H48  1  0.18797548  0.99225141  0.66665332  1  0  0.117514  0  0.929705  0  0  0.130081  0  0.991854  0  0  0.132015  0  0.989727  0  0  0.139708  0.128655  0  0.993466  0
H  H49  1  0.81202312  0.00775373  0.33335233  1  0  0.117503  0  0.929678  0  0  0.130077  0  0.991853  0  0  0.132024  0  0.989712  0  0  0.139725  0.128648  0  0.993468  0
H  H50  1  0.33821488  0.96938289  0.58934041  1  0  0.120261  0  0.933917  0  0  0.136881  0  0.988351  0  0  0.138136  0  0.987011  0  0  0.130811  0.135834  0  0.989583  0
H  H51  1  0.66178299  0.03062137  0.41066309  1  0  0.120263  0  0.933866  0  0  0.136895  0  0.988319  0  0  0.138156  0  0.986966  0  0  0.130789  0.135848  0  0.989549  0
H  H52  1  0.63781538  0.84299433  0.62829893  1  0  0.120225  0  0.967169  0  0  0.140493  0  1.027706  0  0  0.141934  0  1.027492  0  0  0.098468  0.13949  0  1.027846  0
H  H53  1  0.36218399  0.15700298  0.37170074  1  0  0.120212  0  0.96727  0  0  0.140475  0  1.027802  0  0  0.141915  0  1.027592  0  0  0.098467  0.139468  0  1.027952  0
H  H54  1  0.53276215  0.96644266  0.60147899  1  0  0.123852  0  0.940933  0  0  0.146857  0  0.997017  0  0  0.148517  0  0.996284  0  0  0.098406  0.145646  0  0.997587  0
H  H55  1  0.46723777  0.03355638  0.39851897  1  0  0.12391  0  0.940983  0  0  0.146909  0  0.997055  0  0  0.148567  0  0.996324  0  0  0.098427  0.145698  0  0.997619  0
H  H56  1  0.51153506  0.82739030  0.56857533  1  0  0.133282  0  0.950589  0  0  0.151637  0  1.017011  0  0  0.153688  0  1.015992  0  0  0.097505  0.150161  0  1.017686  0
H  H57  1  0.48846046  0.17260789  0.43142806  1  0  0.133292  0  0.950571  0  0  0.151631  0  1.017018  0  0  0.153678  0  1.016002  0  0  0.097512  0.150153  0  1.017702  0
C  C58  1  0.68617707  0.31992954  0.52111129  1  0  0.675786  0  3.881489  0  0  0.63606  0  4.179775  0  0  0.671067  0  4.16751  0  0  0.235793  0.611726  0  4.187579  0
C  C59  1  0.31382797  0.68007125  0.47888879  1  0  0.675848  0  3.881467  0  0  0.63608  0  4.179815  0  0  0.671087  0  4.167541  0  0  0.235813  0.611761  0  4.187592  0
C  C60  1  0.67151185  0.42543758  0.58839625  1  0  0.016599  0  3.688704  0  0  0.027552  0  3.920985  0  0  0.028794  0  3.937489  0  0  0.022905  0.02659  0  3.910461  0
C  C61  1  0.32849190  0.57456494  0.41160398  1  0  0.016558  0  3.688622  0  0  0.027561  0  3.920931  0  0  0.0288  0  3.93744  0  0  0.022929  0.026594  0  3.910396  0
C  C62  1  0.55266017  0.49088756  0.62528927  1  0  -0.088891  0  3.688091  0  0  -0.113927  0  3.942342  0  0  -0.119479  0  3.960482  0  0  -0.061193  -0.11071  0  3.930801  0
C  C63  1  0.44734304  0.50911322  0.37471113  1  0  -0.088828  0  3.68793  0  0  -0.1139  0  3.942222  0  0  -0.11945  0  3.960366  0  0  -0.061217  -0.110674  0  3.930668  0
C  C64  1  0.53685104  0.58602819  0.68925460  1  0  0.114071  0  3.557829  0  0  0.073933  0  3.801889  0  0  0.083312  0  3.815077  0  0  0.074912  0.067832  0  3.793052  0
C  C65  1  0.46315144  0.41397173  0.31074441  1  0  0.114073  0  3.557939  0  0  0.07396  0  3.801964  0  0  0.083333  0  3.815162  0  0  0.074904  0.067855  0  3.79313  0
C  C66  1  0.75487304  0.55570782  0.67825088  1  0  0.080839  0  3.59209  0  0  0.040106  0  3.842035  0  0  0.047333  0  3.8566  0  0  0.063844  0.035459  0  3.832387  0
C  C67  1  0.24513163  0.44429469  0.32174765  1  0  0.080617  0  3.592175  0  0  0.040014  0  3.842041  0  0  0.04725  0  3.856587  0  0  0.063792  0.03538  0  3.832387  0
C  C68  1  0.77432410  0.45993282  0.61493058  1  0  -0.085967  0  3.669161  0  0  -0.109723  0  3.923938  0  0  -0.115048  0  3.941848  0  0  -0.05243  -0.106631  0  3.91233  0
C  C69  1  0.22567965  0.54006970  0.38506888  1  0  -0.085885  0  3.669111  0  0  -0.109772  0  3.923902  0  0  -0.115097  0  3.94181  0  0  -0.052454  -0.106682  0  3.912298  0
C  C70  1  0.23151733  0.49663949  0.69101867  1  0  0.636709  0  3.922671  0  0  0.597259  0  4.223116  0  0  0.632258  0  4.212346  0  0  0.216439  0.573484  0  4.229367  0
C  C71  1  0.76848040  0.50336127  0.30897652  1  0  0.636564  0  3.922797  0  0  0.597204  0  4.223084  0  0  0.632201  0  4.212324  0  0  0.21644  0.573436  0  4.229331  0
C  C72  1  0.25466512  0.36606336  0.67767567  1  0  0.007767  0  3.686898  0  0  0.019616  0  3.924771  0  0  0.0202  0  3.942145  0  0  0.015472  0.019089  0  3.913513  0
C  C73  1  0.74533204  0.63394000  0.32232028  1  0  0.007899  0  3.686858  0  0  0.019746  0  3.924651  0  0  0.020332  0  3.942027  0  0  0.015522  0.019215  0  3.913388  0
C  C74  1  0.32633250  0.29323295  0.74018865  1  0  -0.097899  0  3.697214  0  0  -0.12079  0  3.951769  0  0  -0.12588  0  3.968794  0  0  -0.061817  -0.11798  0  3.941225  0
C  C75  1  0.67366318  0.70677303  0.25981130  1  0  -0.097944  0  3.697284  0  0  -0.120843  0  3.951878  0  0  -0.125936  0  3.968906  0  0  -0.061895  -0.118026  0  3.941314  0
C  C76  1  0.33766671  0.17453226  0.73462173  1  0  0.10451  0  3.583007  0  0  0.06211  0  3.830171  0  0  0.07036  0  3.844941  0  0  0.074758  0.056708  0  3.820453  0
C  C77  1  0.66233080  0.82547373  0.26538100  1  0  0.104544  0  3.583007  0  0  0.06213  0  3.830198  0  0  0.070383  0  3.844965  0  0  0.074767  0.05675  0  3.820489  0
C  C78  1  0.21702779  0.19682196  0.60238227  1  0  0.120404  0  3.535495  0  0  0.083587  0  3.775786  0  0  0.092403  0  3.788126  0  0  0.084583  0.077932  0  3.767581  0
C  C79  1  0.78297359  0.80317881  0.39761613  1  0  0.120496  0  3.535456  0  0  0.083759  0  3.775633  0  0  0.092575  0  3.787971  0  0  0.084604  0.078105  0  3.767425  0
C  C80  1  0.20250666  0.31599284  0.60611682  1  0  -0.098696  0  3.658217  0  0  -0.120316  0  3.904438  0  0  -0.126402  0  3.922783  0  0  -0.060171  -0.116641  0  3.892573  0
C  C81  1  0.79749270  0.68400879  0.39387958  1  0  -0.098822  0  3.658274  0  0  -0.120447  0  3.904443  0  0  -0.126536  0  3.922791  0  0  -0.060177  -0.116771  0  3.892579  0
C  C82  1  0.09086439  0.37710362  0.10355654  1  0  0.648381  0  3.91764  0  0  0.612408  0  4.215502  0  0  0.647123  0  4.205584  0  0  0.215471  0.58851  0  4.221403  0
C  C83  1  0.90913315  0.62289801  0.89644096  1  0  0.648551  0  3.917469  0  0  0.612522  0  4.215404  0  0  0.647245  0  4.20547  0  0  0.215572  0.588629  0  4.221293  0
C  C84  1  0.11078931  0.50099384  0.08328010  1  0  0.004978  0  3.68178  0  0  0.015485  0  3.918947  0  0  0.016598  0  3.93658  0  0  0.013376  0.014801  0  3.907271  0
C  C85  1  0.88920731  0.49900779  0.91671679  1  0  0.004815  0  3.681956  0  0  0.0154  0  3.919043  0  0  0.016507  0  3.936686  0  0  0.013334  0.014716  0  3.907358  0
C  C86  1  0.16646596  0.53292021  0.98284828  1  0  -0.109232  0  3.697742  0  0  -0.13099  0  3.950144  0  0  -0.137887  0  3.969829  0  0  -0.067639  -0.126778  0  3.937304  0
C  C87  1  0.83353305  0.46707882  0.01714829  1  0  -0.109192  0  3.697799  0  0  -0.130949  0  3.95019  0  0  -0.137849  0  3.969877  0  0  -0.067559  -0.126729  0  3.937338  0
C  C88  1  0.19172551  0.64315243  0.96459401  1  0  0.113479  0  3.553477  0  0  0.073435  0  3.799023  0  0  0.082378  0  3.812803  0  0  0.079145  0.067613  0  3.78997  0
C  C89  1  0.80827552  0.35684574  0.03540379  1  0  0.113606  0  3.553367  0  0  0.073508  0  3.798979  0  0  0.08246  0  3.812752  0  0  0.079165  0.067688  0  3.789928  0
C  C90  1  0.10656822  0.69329187  0.14240775  1  0  0.093226  0  3.553595  0  0  0.050724  0  3.801177  0  0  0.058836  0  3.815365  0  0  0.071152  0.045457  0  3.791799  0
C  C91  1  0.89343261  0.30670717  0.85759159  1  0  0.093157  0  3.553552  0  0  0.050635  0  3.801173  0  0  0.058748  0  3.815369  0  0  0.07109  0.045362  0  3.791798  0
C  C92  1  0.07653977  0.58518121  0.16273436  1  0  -0.103285  0  3.689155  0  0  -0.124384  0  3.942705  0  0  -0.130773  0  3.962894  0  0  -0.063582  -0.12046  0  3.929506  0
C  C93  1  0.92345740  0.41481783  0.83726485  1  0  -0.103223  0  3.689195  0  0  -0.124365  0  3.942759  0  0  -0.130756  0  3.962954  0  0  -0.063569  -0.120439  0  3.92956  0
C  C94  1  0.49656709  0.79019912  0.81137203  1  0  -0.066965  0  3.720618  0  0  -0.057408  0  3.968262  0  0  -0.063455  0  3.993703  0  0  -0.023545  -0.053614  0  3.95152  0
C  C95  1  0.50343081  0.20980080  0.18862856  1  0  -0.066953  0  3.720534  0  0  -0.057386  0  3.968154  0  0  -0.063435  0  3.993594  0  0  -0.023591  -0.0536  0  3.951423  0
C  C96  1  0.41673675  0.77941930  0.90934047  1  0  0.088996  0  3.699524  0  0  0.094782  0  3.953701  0  0  0.097731  0  3.977825  0  0  -0.000546  0.092934  0  3.937226  0
C  C97  1  0.58326374  0.22057714  0.09065905  1  0  0.089006  0  3.699444  0  0  0.094809  0  3.953571  0  0  0.097758  0  3.977694  0  0  -0.000509  0.092956  0  3.937101  0
C  C98  1  0.29456109  0.84723186  0.92924612  1  0  -0.053439  0  3.690087  0  0  -0.043655  0  3.932808  0  0  -0.049474  0  3.957963  0  0  -0.018743  -0.039974  0  3.9158  0
C  C99  1  0.70544086  0.15276632  0.07075229  1  0  -0.053533  0  3.690174  0  0  -0.043688  0  3.932878  0  0  -0.049506  0  3.958035  0  0  -0.018712  -0.04  0  3.915858  0
C  C100  1  0.25258275  0.92556592  0.85268706  1  0  0.12185  0  3.677377  0  0  0.129793  0  3.924555  0  0  0.133738  0  3.94647  0  0  0.011181  0.127451  0  3.909401  0
C  C101  1  0.74741735  0.07443227  0.14731477  1  0  0.121868  0  3.677202  0  0  0.129742  0  3.924508  0  0  0.133687  0  3.946423  0  0  0.011148  0.127403  0  3.909339  0
C  C102  1  0.33307679  0.93310800  0.75474044  1  0  -0.049253  0  3.701226  0  0  -0.043258  0  3.947675  0  0  -0.048942  0  3.971892  0  0  -0.016003  -0.039636  0  3.931309  0
C  C103  1  0.66692257  0.06689366  0.24526291  1  0  -0.049155  0  3.700949  0  0  -0.04319  0  3.947542  0  0  -0.048878  0  3.971768  0  0  -0.015951  -0.039558  0  3.931148  0
C  C104  1  0.45579449  0.86726188  0.73365444  1  0  0.11148  0  3.690104  0  0  0.116066  0  3.945047  0  0  0.119696  0  3.967824  0  0  0.008502  0.113665  0  3.929643  0
C  C105  1  0.54420395  0.13273977  0.26634676  1  0  0.111455  0  3.690043  0  0  0.116047  0  3.945005  0  0  0.119678  0  3.967782  0  0  0.008544  0.113649  0  3.92959  0
C  C106  1  0.62534524  0.71616258  0.78765516  1  0  -0.044598  0  3.603116  0  0  -0.113105  0  3.850734  0  0  -0.107636  0  3.860706  0  0  -0.047113  -0.116798  0  3.844325  0
C  C107  1  0.37465522  0.28383820  0.21234495  1  0  -0.044465  0  3.603237  0  0  -0.112974  0  3.850805  0  0  -0.107506  0  3.860777  0  0  -0.047074  -0.116669  0  3.84441  0
C  C108  1  0.46217753  0.69403330  0.99013931  1  0  -0.340726  0  3.730188  0  0  -0.420391  0  3.969328  0  0  -0.42303  0  3.977694  0  0  -0.243822  -0.418235  0  3.963446  0
C  C109  1  0.53782368  0.30596401  0.00986004  1  0  -0.340799  0  3.730156  0  0  -0.420473  0  3.969288  0  0  -0.423107  0  3.977655  0  0  -0.24388  -0.418316  0  3.963409  0
C  C110  1  0.20625951  0.83447591  0.03158912  1  0  -0.057132  0  3.588278  0  0  -0.122959  0  3.826972  0  0  -0.118431  0  3.837681  0  0  -0.048759  -0.125723  0  3.819732  0
C  C111  1  0.79374299  0.16551967  0.96841086  1  0  -0.057038  0  3.588361  0  0  -0.122953  0  3.827118  0  0  -0.11843  0  3.837836  0  0  -0.048783  -0.12572  0  3.819878  0
C  C112  1  0.12275527  0.99909646  0.87540063  1  0  -0.349774  0  3.713413  0  0  -0.434875  0  3.956805  0  0  -0.437246  0  3.965196  0  0  -0.239732  -0.432838  0  3.950753  0
C  C113  1  0.87724356  0.00089913  0.12460307  1  0  -0.349651  0  3.713247  0  0  -0.434766  0  3.956686  0  0  -0.437115  0  3.965044  0  0  -0.239655  -0.432732  0  3.950641  0
C  C114  1  0.28402693  0.00105768  0.66639855  1  0  -0.062066  0  3.595062  0  0  -0.124952  0  3.831459  0  0  -0.120153  0  3.841318  0  0  -0.040451  -0.128047  0  3.824941  0
C  C115  1  0.71597334  0.99894399  0.33360619  1  0  -0.062168  0  3.595131  0  0  -0.125059  0  3.83156  0  0  -0.120268  0  3.841415  0  0  -0.040536  -0.128145  0  3.825022  0
C  C116  1  0.53892259  0.87610869  0.62776537  1  0  -0.356177  0  3.704753  0  0  -0.438826  0  3.947331  0  0  -0.441549  0  3.956055  0  0  -0.244665  -0.436567  0  3.941083  0
C  C117  1  0.46107385  0.12388949  0.37223555  1  0  -0.356233  0  3.704942  0  0  -0.438867  0  3.947524  0  0  -0.441587  0  3.956254  0  0  -0.244711  -0.436608  0  3.941283  0
N  N118  1  0.63743587  0.61629362  0.71520867  1  0  -0.001379  0  3.493197  0  0  0.096678  0  3.698987  0  0  0.082909  0  3.724922  0  0  -0.20131  0.105603  0  3.681379  0
N  N119  1  0.36256899  0.38370802  0.28478909  1  0  -0.001359  0  3.493349  0  0  0.096627  0  3.699127  0  0  0.082857  0  3.725064  0  0  -0.201292  0.105545  0  3.68153  0
N  N120  1  0.16603990  0.71956522  0.04481269  1  0  0.008257  0  3.490306  0  0  0.104943  0  3.696489  0  0  0.09192  0  3.721266  0  0  -0.198194  0.113311  0  3.679874  0
N  N121  1  0.83396039  0.28043209  0.95518759  1  0  0.008128  0  3.490313  0  0  0.104865  0  3.696524  0  0  0.091839  0  3.721299  0  0  -0.198202  0.113232  0  3.67991  0
N  N122  1  0.28098588  0.12862195  0.66825925  1  0  0.007941  0  3.494594  0  0  0.103455  0  3.701624  0  0  0.0902  0  3.727117  0  0  -0.195826  0.112069  0  3.684388  0
N  N123  1  0.71901254  0.87138404  0.33174100  1  0  0.00792  0  3.494571  0  0  0.103431  0  3.701632  0  0  0.090175  0  3.727126  0  0  -0.195789  0.112042  0  3.684387  0
Cl  Cl124  1  0.15930997  0.08272169  0.22627454  1  0  -0.602116  0  0.877841  0  0  -0.624433  0  1.122851  0  0  -0.647292  0  1.109931  0  0  -0.265147  -0.60696  0  1.131624  0
Cl  Cl125  1  0.84069268  0.91728171  0.77372893  1  0  -0.602126  0  0.877871  0  0  -0.624437  0  1.122866  0  0  -0.647295  0  1.10994  0  0  -0.265155  -0.60696  0  1.131635  0
Cl  Cl126  1  0.66596669  0.19750629  0.74118719  1  0  -0.622238  0  0.776311  0  0  -0.632037  0  0.99754  0  0  -0.658273  0  0.987378  0  0  -0.328871  -0.611293  0  1.003915  0
Cl  Cl127  1  0.33403471  0.80249016  0.25881216  1  0  -0.622243  0  0.7763  0  0  -0.632038  0  0.997528  0  0  -0.658267  0  0.98738  0  0  -0.328864  -0.611293  0  1.003898  0
O  O128  1  0.79925340  0.25488488  0.50457308  1  0  -0.794701  0  2.190801  0  0  -0.785843  0  2.494144  0  0  -0.823545  0  2.489609  0  0  -0.420168  -0.757399  0  2.495233  0
O  O129  1  0.20074798  0.74511590  0.49542687  1  0  -0.794752  0  2.190648  0  0  -0.785898  0  2.494015  0  0  -0.823591  0  2.489491  0  0  -0.420192  -0.757453  0  2.495097  0
O  O130  1  0.59659554  0.30162376  0.48684108  1  0  -0.53336  0  1.900498  0  0  -0.495385  0  2.115144  0  0  -0.516114  0  2.107844  0  0  -0.272247  -0.480478  0  2.119653  0
O  O131  1  0.40340509  0.69838049  0.51315963  1  0  -0.533302  0  1.900634  0  0  -0.495311  0  2.115312  0  0  -0.516039  0  2.108008  0  0  -0.272216  -0.480414  0  2.119814  0
O  O132  1  0.05613393  0.35419950  0.20266584  1  0  -0.720967  0  2.122754  0  0  -0.702216  0  2.404934  0  0  -0.739476  0  2.400589  0  0  -0.398219  -0.674557  0  2.40639  0
O  O133  1  0.94386635  0.64580214  0.79733272  1  0  -0.721007  0  2.122788  0  0  -0.702242  0  2.40497  0  0  -0.739494  0  2.40062  0  0  -0.398228  -0.674583  0  2.406427  0
O  O134  1  0.11127008  0.31008585  0.02799401  1  0  -0.561318  0  1.852848  0  0  -0.534344  0  2.05641  0  0  -0.55537  0  2.050041  0  0  -0.314546  -0.519124  0  2.060275  0
O  O135  1  0.88872287  0.68991578  0.97200352  1  0  -0.561375  0  1.852766  0  0  -0.53438  0  2.056347  0  0  -0.555409  0  2.049976  0  0  -0.314602  -0.519161  0  2.060203  0
O  O136  1  0.15641583  0.55509672  0.63541072  1  0  -0.690103  0  2.055098  0  0  -0.670287  0  2.325318  0  0  -0.70377  0  2.320445  0  0  -0.374178  -0.645723  0  2.327235  0
O  O137  1  0.84357823  0.44490403  0.36458434  1  0  -0.690028  0  2.055043  0  0  -0.670256  0  2.325261  0  0  -0.703734  0  2.320362  0  0  -0.374184  -0.645704  0  2.327176  0
O  O138  1  0.28394204  0.53507135  0.75428647  1  0  -0.587219  0  1.962689  0  0  -0.548461  0  2.194522  0  0  -0.570792  0  2.186308  0  0  -0.291267  -0.532639  0  2.199518  0
O  O139  1  0.71605750  0.46493373  0.24570667  1  0  -0.587142  0  1.962787  0  0  -0.548427  0  2.194586  0  0  -0.570736  0  2.186329  0  0  -0.291233  -0.532606  0  2.19958  0
O  O140  1  0.06872609  0.29548646  0.41842419  1  0  -0.761223  0  1.544459  0  0  -0.768158  0  1.836263  0  0  -0.791228  0  1.820841  0  0  -0.758205  -0.753212  0  1.847592  0
O  O141  1  0.93126740  0.70451691  0.58157394  1  0  -0.761281  0  1.544442  0  0  -0.768272  0  1.836296  0  0  -0.791331  0  1.820879  0  0  -0.758229  -0.753312  0  1.847634  0
O  O142  1  0.86046416  0.21020769  0.26632196  1  0  -0.715445  0  1.584062  0  0  -0.727227  0  1.882194  0  0  -0.749853  0  1.869674  0  0  -0.756842  -0.712942  0  1.89169  0
O  O143  1  0.13953411  0.78979049  0.73367710  1  0  -0.715385  0  1.583975  0  0  -0.727228  0  1.88216  0  0  -0.74984  0  1.869647  0  0  -0.756857  -0.712924  0  1.891653  0
O  O144  1  0.96937654  0.14246714  0.66295197  1  0  -0.78216  0  1.586754  0  0  -0.793107  0  1.885372  0  0  -0.818394  0  1.870814  0  0  -0.757372  -0.776418  0  1.895388  0
O  O145  1  0.03062686  0.85753277  0.33704689  1  0  -0.782208  0  1.58672  0  0  -0.793167  0  1.885348  0  0  -0.818445  0  1.870804  0  0  -0.757428  -0.776472  0  1.895357  0
O  O146  1  0.75730934  0.00660526  0.55113142  1  0  -0.745728  0  1.627339  0  0  -0.758972  0  1.929053  0  0  -0.783573  0  1.915213  0  0  -0.75525  -0.743149  0  1.938788  0
O  O147  1  0.24269371  0.99338774  0.44887396  1  0  -0.745793  0  1.627464  0  0  -0.759045  0  1.929216  0  0  -0.783612  0  1.915334  0  0  -0.755275  -0.743198  0  1.938917  0
O  O148  1  0.98232022  0.08442475  0.43494379  1  0  -1.087377  0  1.843143  0  0  -1.155605  0  2.219713  0  0  -1.224212  0  2.224647  0  0  -0.814038  -1.106304  0  2.21477  0
O  O149  1  0.01768024  0.91557603  0.56505478  1  0  -1.087393  0  1.843247  0  0  -1.155615  0  2.219776  0  0  -1.224206  0  2.224707  0  0  -0.814042  -1.106294  0  2.214818  0
