# generated using pymatgen
data_CuMoH9C11N3O5
_symmetry_space_group_name_H-M   'P 1'
_cell_length_a   6.72394442
_cell_length_b   10.06004462
_cell_length_c   10.17602759
_cell_angle_alpha   79.16560249
_cell_angle_beta   77.56146390
_cell_angle_gamma   76.24329177
_symmetry_Int_Tables_number   1
_chemical_formula_structural   CuMoH9C11N3O5
_chemical_formula_sum   'Cu2 Mo2 H18 C22 N6 O10'
_cell_volume   646.07864989
_cell_formula_units_Z   2
loop_
 _symmetry_equiv_pos_site_id
 _symmetry_equiv_pos_as_xyz
  1  'x, y, z'
loop_
 _atom_site_type_symbol
 _atom_site_label
 _atom_site_symmetry_multiplicity
 _atom_site_fract_x
 _atom_site_fract_y
 _atom_site_fract_z
 _atom_site_occupancy
 _atom_site_hle17_ddec_charge
 _atom_site_hle17_ddec_spin_density
 _atom_site_hle17_ddec_sum_bond_order
 _atom_site_hle17_magmom
 _atom_site_hse06_10hf_ddec_charge
 _atom_site_hse06_10hf_ddec_spin_density
 _atom_site_hse06_10hf_ddec_sum_bond_order
 _atom_site_hse06_10hf_magmom
 _atom_site_hse06_ddec_charge
 _atom_site_hse06_ddec_spin_density
 _atom_site_hse06_ddec_sum_bond_order
 _atom_site_hse06_magmom
 _atom_site_pbe_cm5_charge
 _atom_site_pbe_ddec_charge
 _atom_site_pbe_ddec_spin_density
 _atom_site_pbe_ddec_sum_bond_order
 _atom_site_pbe_magmom
Cu  Cu0  1  0.30408664  0.76554130  0.57318409  1  0.960184  -0.700998  1.856021  -0.517  0.958637  -0.777671  2.250987  -0.631  1.045856  -0.845845  2.179593  -0.72  0.736793  0.905245  -0.72704  2.300099  -0.571
Cu  Cu1  1  0.69589591  0.23446318  0.42681655  1  0.960047  -0.701002  1.856171  -0.517  0.958524  -0.777674  2.251165  -0.631  1.045761  -0.845843  2.17973  -0.72  0.736782  0.90526  -0.727022  2.300052  -0.571
Mo  Mo2  1  0.18089446  0.15276151  0.49566098  1  2.135644  0.016946  4.241127  0.008  2.131581  -0.015765  4.842609  -0.025  2.244083  -0.010702  4.797677  -0.02  1.476072  2.055066  -0.018979  4.87185  -0.027
Mo  Mo3  1  0.81909666  0.84723987  0.50433802  1  2.135791  0.016918  4.240812  0.008  2.131768  -0.015765  4.842263  -0.025  2.24425  -0.010698  4.797348  -0.02  1.476108  2.05526  -0.01898  4.871501  -0.027
H  H4  1  0.47014536  0.92795923  0.72245715  1  0.080237  -0.000667  0.973859  -0.002  0.083963  -0.000504  1.046381  -0.001  0.08599  -0.000315  1.043788  -0.001  0.114277  0.082199  -0.000706  1.048673  -0.002
H  H5  1  0.52985612  0.07204325  0.27753135  1  0.080233  -0.000662  0.973889  -0.002  0.083981  -0.000504  1.04638  -0.001  0.086007  -0.000315  1.043788  -0.001  0.114315  0.082222  -0.000706  1.048659  -0.002
H  H6  1  0.41010772  0.97796360  0.95993991  1  0.090974  -0.000624  0.982836  -0.001  0.104935  -0.00053  1.035809  -0.001  0.107192  -0.000367  1.035686  0.0  0.103552  0.103248  -0.000692  1.036236  -0.001
H  H7  1  0.58989744  0.02203680  0.04004942  1  0.090961  -0.000625  0.982784  -0.001  0.104884  -0.000531  1.035805  -0.001  0.107193  -0.000367  1.035618  0.0  0.103577  0.1032  -0.000692  1.03623  -0.001
H  H8  1  0.13927288  0.87913855  0.13745741  1  0.13409  -0.000371  0.935209  -0.001  0.147315  -6.2e-05  0.986831  0.0  0.150769  3e-06  0.984513  0.0  0.115608  0.144664  -0.000118  0.988842  0.0
H  H9  1  0.86074110  0.12086283  0.86253542  1  0.134135  -0.000366  0.935115  -0.001  0.147348  -6.2e-05  0.986742  0.0  0.150791  3e-06  0.984449  0.0  0.115593  0.144694  -0.000118  0.988763  0.0
H  H10  1  0.00992146  0.69624939  0.82126826  1  0.118289  -0.000926  0.984387  -0.002  0.121538  -0.000711  1.050515  -0.002  0.125479  -0.000444  1.046056  -0.001  0.118871  0.118695  -0.000984  1.053636  -0.002
H  H11  1  0.99006718  0.30375505  0.17873546  1  0.118248  -0.000924  0.984457  -0.002  0.121512  -0.000711  1.050577  -0.002  0.125448  -0.000443  1.046118  -0.001  0.11884  0.118667  -0.000984  1.053692  -0.002
H  H12  1  0.60850246  0.77726344  0.31736986  1  0.081816  -0.000782  0.999398  -0.002  0.086017  -0.000627  1.071396  -0.001  0.088736  -0.000388  1.068438  -0.001  0.115128  0.083975  -0.000835  1.073622  -0.002
H  H13  1  0.39149062  0.22275129  0.68263534  1  0.08171  -0.000786  0.999301  -0.002  0.085916  -0.000627  1.071288  -0.001  0.08863  -0.000388  1.068339  -0.001  0.115095  0.083868  -0.000835  1.073518  -0.002
H  H14  1  0.14990488  0.55434032  0.48413130  1  0.084982  -0.000639  0.949548  -0.002  0.094157  -0.00054  1.012795  -0.001  0.096511  -0.000338  1.009891  -0.001  0.118405  0.0923  -0.000711  1.015034  -0.002
H  H15  1  0.85007368  0.44566727  0.51586836  1  0.085083  -0.000646  0.949579  -0.002  0.094165  -0.00054  1.012889  -0.001  0.096512  -0.000338  1.01  -0.001  0.118435  0.092314  -0.000711  1.015119  -0.002
H  H16  1  0.22673082  0.42873235  0.28066240  1  0.12764  -0.000737  0.942616  -0.001  0.13634  -0.00071  0.999409  -0.001  0.140332  -0.00051  0.997365  0.0  0.112224  0.133537  -0.000863  1.00087  -0.001
H  H17  1  0.77327142  0.57125763  0.71933803  1  0.127576  -0.000736  0.942602  -0.001  0.136288  -0.00071  0.999401  -0.001  0.140281  -0.00051  0.997356  0.0  0.112215  0.133488  -0.000864  1.000864  -0.001
H  H18  1  0.52190752  0.47556664  0.09474308  1  0.104866  -0.000305  0.965716  -0.001  0.111464  -1.9e-05  1.033303  0.0  0.115067  3.6e-05  1.029972  0.0  0.111408  0.108827  -8.7e-05  1.035873  0.0
H  H19  1  0.47812668  0.52442315  0.90527059  1  0.105015  -0.000296  0.965769  -0.001  0.11153  -1.9e-05  1.033407  0.0  0.115131  3.7e-05  1.030075  0.0  0.111472  0.108893  -8.7e-05  1.035978  0.0
H  H20  1  0.88224225  0.76247876  0.18626245  1  0.312985  -0.000198  0.925707  0.0  0.295654  -0.000171  0.990205  0.0  0.304147  -0.000119  0.983371  0.0  0.299949  0.28974  -0.000156  0.994854  0.0
H  H21  1  0.11776754  0.23751641  0.81373306  1  0.312913  -0.0002  0.925762  0.0  0.2956  -0.000171  0.99025  0.0  0.304094  -0.000119  0.983421  0.0  0.299928  0.289678  -0.000156  0.9949  0.0
C  C22  1  0.35477863  0.88635608  0.80152722  1  0.128559  0.011903  3.693462  0.008  0.09797  0.002742  3.950402  0.001  0.106977  0.004577  3.969018  0.003  0.04239  0.091907  0.001318  3.938435  0.0
C  C23  1  0.64521828  0.11364639  0.19846389  1  0.128494  0.011861  3.69354  0.008  0.097881  0.002737  3.950472  0.001  0.106879  0.004587  3.96911  0.003  0.042267  0.09181  0.001318  3.938522  0.0
C  C24  1  0.32073514  0.91250482  0.93476438  1  -0.097255  -0.010269  3.768444  -0.011  -0.111689  -0.003504  4.02276  -0.004  -0.118071  -0.003093  4.04398  -0.004  -0.085803  -0.107659  -0.003903  4.008813  -0.005
C  C25  1  0.67927002  0.08749553  0.06523086  1  -0.097276  -0.010256  3.768241  -0.011  -0.111687  -0.003504  4.02259  -0.004  -0.118098  -0.003096  4.04379  -0.004  -0.085879  -0.107658  -0.003902  4.008645  -0.005
C  C26  1  0.17103158  0.85879431  0.03245382  1  -0.107936  0.014182  3.675266  0.009  -0.131788  0.004755  3.923353  0.003  -0.130834  0.005291  3.941397  0.003  -0.071081  -0.132223  0.004339  3.911546  0.002
C  C27  1  0.82898785  0.14120909  0.96754182  1  -0.107937  0.014159  3.674916  0.009  -0.131749  0.004764  3.922938  0.003  -0.1308  0.005286  3.941001  0.003  -0.070982  -0.132186  0.004339  3.91114  0.002
C  C28  1  0.05293152  0.77957326  0.99342531  1  0.218879  -0.009561  3.761534  -0.011  0.218232  -0.003442  4.004363  -0.004  0.221516  -0.003051  4.027119  -0.004  0.108336  0.21529  -0.003836  3.989917  -0.005
C  C29  1  0.94707571  0.22043004  0.00658484  1  0.218942  -0.009544  3.761467  -0.011  0.218333  -0.003449  4.004267  -0.004  0.221602  -0.003043  4.027021  -0.004  0.108406  0.21539  -0.003836  3.989817  -0.005
C  C30  1  0.09647630  0.75589001  0.85735142  1  0.03054  0.010952  3.615319  0.007  -0.004712  0.001994  3.868809  0.001  0.001736  0.003689  3.885611  0.002  0.040364  -0.009275  0.000614  3.858894  0.0
C  C31  1  0.90351539  0.24411439  0.14265482  1  0.030425  0.010927  3.615353  0.007  -0.004892  0.002007  3.868888  0.001  0.001556  0.003669  3.885698  0.002  0.040259  -0.009454  0.000613  3.858972  0.0
C  C32  1  0.76037717  0.65789223  0.07292804  1  0.543118  -0.000514  3.839091  0.0  0.495693  -0.000469  4.126109  0.0  0.524503  -0.000375  4.127817  0.0  0.24346  0.476359  -0.000587  4.123552  -0.001
C  C33  1  0.23964276  0.34209450  0.92708424  1  0.542972  -0.000528  3.839425  0.0  0.495616  -0.00047  4.126422  0.0  0.524395  -0.000373  4.128154  0.0  0.243456  0.476295  -0.000587  4.123851  -0.001
C  C34  1  0.59200686  0.62858868  0.19099165  1  -0.117648  -0.008869  3.759284  -0.01  -0.093039  -0.003032  3.996759  -0.004  -0.105242  -0.002593  4.021068  -0.003  -0.012064  -0.085099  -0.003396  3.979796  -0.004
C  C35  1  0.40800267  0.37140229  0.80901151  1  -0.117437  -0.008878  3.759158  -0.01  -0.092934  -0.003023  3.996643  -0.004  -0.105131  -0.002616  4.020955  -0.003  -0.011926  -0.085003  -0.003396  3.979686  -0.004
C  C36  1  0.53286036  0.69710480  0.30506066  1  0.116374  0.011878  3.648103  0.008  0.082281  0.002848  3.891196  0.002  0.092401  0.004493  3.909501  0.003  0.049729  0.075476  0.001536  3.880254  0.001
C  C37  1  0.46714619  0.30290588  0.69493256  1  0.116461  0.011915  3.647933  0.008  0.082483  0.002837  3.891031  0.002  0.092597  0.004525  3.909342  0.003  0.049783  0.075708  0.001536  3.880053  0.001
C  C38  1  0.27230170  0.57306094  0.39784877  1  0.138944  0.010644  3.672159  0.007  0.103  0.00215  3.935451  0.001  0.113365  0.003849  3.952435  0.002  0.052905  0.096188  0.000881  3.924516  0.0
C  C39  1  0.72768936  0.42694559  0.60215030  1  0.138703  0.010737  3.672359  0.007  0.102894  0.002154  3.93567  0.001  0.113263  0.003854  3.952649  0.002  0.052883  0.096075  0.000881  3.924752  0.0
C  C40  1  0.31665142  0.50374009  0.28564510  1  -0.086519  -0.010305  3.6894  -0.011  -0.098763  -0.003476  3.946129  -0.004  -0.105423  -0.003002  3.962986  -0.004  -0.074832  -0.094694  -0.003902  3.935103  -0.005
C  C41  1  0.68333735  0.49625398  0.71436339  1  -0.086259  -0.010326  3.689741  -0.011  -0.098499  -0.003476  3.946347  -0.004  -0.10516  -0.003008  3.963199  -0.004  -0.074784  -0.094429  -0.003902  3.935326  -0.005
C  C42  1  0.48017317  0.53038704  0.18227570  1  0.001656  0.013365  3.675509  0.008  -0.035493  0.004727  3.935054  0.002  -0.028961  0.005224  3.949782  0.003  -0.055098  -0.039594  0.004255  3.9252  0.002
C  C43  1  0.51983997  0.46960695  0.81773527  1  0.001292  0.013323  3.675997  0.008  -0.035763  0.004721  3.935569  0.002  -0.029222  0.005249  3.950292  0.003  -0.055311  -0.039871  0.004256  3.925733  0.002
N  N44  1  0.24508197  0.80818407  0.76536755  1  -0.281661  -0.078541  3.353657  -0.101  -0.233837  -0.050687  3.646464  -0.07  -0.264944  -0.040443  3.670626  -0.061  -0.341671  -0.214928  -0.056664  3.632028  -0.074
N  N45  1  0.75490123  0.19181837  0.23463040  1  -0.281561  -0.078527  3.35352  -0.101  -0.233688  -0.050686  3.64632  -0.07  -0.264794  -0.040441  3.670483  -0.061  -0.341573  -0.214805  -0.056667  3.631869  -0.074
N  N46  1  0.89520797  0.73258113  0.09201570  1  -0.446522  -0.001199  3.33954  -0.001  -0.389682  -0.000555  3.569629  -0.001  -0.413423  -0.000443  3.58072  0.0  -0.388842  -0.372745  -0.000768  3.561386  -0.001
N  N47  1  0.10479261  0.26741921  0.90798117  1  -0.446427  -0.001186  3.33926  -0.001  -0.389674  -0.000554  3.569365  -0.001  -0.413386  -0.000447  3.580439  0.0  -0.388881  -0.372725  -0.000768  3.561089  -0.001
N  N48  1  0.37799149  0.66803400  0.40697023  1  -0.293131  -0.075353  3.314113  -0.096  -0.245894  -0.049568  3.608161  -0.069  -0.277058  -0.039307  3.629621  -0.059  -0.342863  -0.226794  -0.055698  3.595134  -0.073
N  N49  1  0.62201150  0.33196841  0.59302495  1  -0.293032  -0.075378  3.314015  -0.096  -0.245976  -0.049566  3.608195  -0.069  -0.277131  -0.039312  3.629633  -0.059  -0.342933  -0.226908  -0.055698  3.595171  -0.073
O  O50  1  0.77002147  0.61572531  0.96433395  1  -0.522886  -0.003196  1.930914  -0.004  -0.478221  -0.001002  2.148123  -0.001  -0.500049  -0.000649  2.144848  -0.001  -0.279154  -0.462635  -0.001647  2.149788  -0.002
O  O51  1  0.22998317  0.38426674  0.03566480  1  -0.522768  -0.003188  1.931429  -0.004  -0.478101  -0.001004  2.148595  -0.001  -0.499913  -0.000644  2.145323  -0.001  -0.2791  -0.462525  -0.001645  2.150258  -0.002
O  O52  1  0.24796709  0.98218512  0.45730030  1  -0.86077  -0.020168  1.562415  -0.03  -0.869472  -0.009153  1.872854  -0.016  -0.910222  -0.004801  1.856639  -0.011  -0.577315  -0.84182  -0.013522  1.883868  -0.02
O  O53  1  0.75201273  0.01781836  0.54269696  1  -0.860778  -0.020164  1.562321  -0.03  -0.869486  -0.009154  1.872752  -0.016  -0.910229  -0.004805  1.856529  -0.011  -0.577325  -0.841859  -0.013524  1.883757  -0.02
O  O54  1  0.40242593  0.23109826  0.44141516  1  -0.884556  -0.062962  1.806586  -0.085  -0.877616  -0.041635  2.145553  -0.06  -0.928102  -0.031186  2.132164  -0.049  -0.582321  -0.843592  -0.049494  2.154673  -0.068
O  O55  1  0.59756679  0.76889798  0.55858059  1  -0.88464  -0.06296  1.806434  -0.085  -0.877723  -0.041634  2.14542  -0.06  -0.928196  -0.031185  2.132021  -0.049  -0.582317  -0.843667  -0.049491  2.154563  -0.068
O  O56  1  0.98095747  0.25898229  0.40486864  1  -0.880403  -0.087958  1.72455  -0.117  -0.882299  -0.047829  2.057661  -0.068  -0.93258  -0.034761  2.039765  -0.054  -0.582548  -0.848291  -0.057987  2.069526  -0.078
O  O57  1  0.01903244  0.74101801  0.59513465  1  -0.880479  -0.087964  1.724464  -0.117  -0.882394  -0.047831  2.057588  -0.068  -0.932674  -0.034761  2.039699  -0.054  -0.582567  -0.848357  -0.057986  2.06948  -0.078
O  O58  1  0.10295796  0.15599104  0.67212564  1  -0.830425  -0.01472  1.508015  -0.02  -0.816177  -0.007557  1.773605  -0.011  -0.84967  -0.004447  1.762094  -0.007  -0.565843  -0.793331  -0.01038  1.781129  -0.014
O  O59  1  0.89703500  0.84400927  0.32787624  1  -0.830469  -0.014706  1.508008  -0.02  -0.816253  -0.007554  1.773615  -0.011  -0.849738  -0.004445  1.762097  -0.007  -0.565875  -0.793408  -0.010375  1.781141  -0.014
