# generated using pymatgen
data_ZnH12C22N4(ClO3)2
_symmetry_space_group_name_H-M   'P 1'
_cell_length_a   7.30489197
_cell_length_b   9.07885475
_cell_length_c   15.29664971
_cell_angle_alpha   90.00032332
_cell_angle_beta   92.49365954
_cell_angle_gamma   89.99937165
_symmetry_Int_Tables_number   1
_chemical_formula_structural   ZnH12C22N4(ClO3)2
_chemical_formula_sum   'Zn2 H24 C44 N8 Cl4 O12'
_cell_volume   1013.51395732
_cell_formula_units_Z   2
loop_
 _symmetry_equiv_pos_site_id
 _symmetry_equiv_pos_as_xyz
  1  'x, y, z'
loop_
 _atom_site_type_symbol
 _atom_site_label
 _atom_site_symmetry_multiplicity
 _atom_site_fract_x
 _atom_site_fract_y
 _atom_site_fract_z
 _atom_site_occupancy
 _atom_site_hle17_bader_spin_density
 _atom_site_hle17_ddec_charge
 _atom_site_hle17_ddec_spin_density
 _atom_site_hle17_ddec_sum_bond_order
 _atom_site_hle17_magmom
 _atom_site_hse06_10hf_bader_spin_density
 _atom_site_hse06_10hf_ddec_charge
 _atom_site_hse06_10hf_ddec_spin_density
 _atom_site_hse06_10hf_ddec_sum_bond_order
 _atom_site_hse06_10hf_magmom
 _atom_site_hse06_bader_spin_density
 _atom_site_hse06_ddec_charge
 _atom_site_hse06_ddec_spin_density
 _atom_site_hse06_ddec_sum_bond_order
 _atom_site_hse06_magmom
 _atom_site_pbe_bader_spin_density
 _atom_site_pbe_cm5_charge
 _atom_site_pbe_ddec_charge
 _atom_site_pbe_ddec_spin_density
 _atom_site_pbe_ddec_sum_bond_order
 _atom_site_pbe_magmom
Zn  Zn0  1  0.50000113  0.00000240  0.50000281  1  0  1.138242  0  1.763489  0  0  0.980006  0  2.214401  0  0  1.028506  0  2.156417  0  0  0.683428  0.942238  0  2.257579  0
Zn  Zn1  1  0.99999698  0.50000376  0.50000123  1  0  1.138268  0  1.763123  0  0  0.979968  0  2.214049  0  0  1.028476  0  2.156055  0  0  0.683482  0.942201  0  2.25722  0
H  H2  1  0.35439326  0.50438109  0.61317655  1  0  0.121606  0  0.992017  0  0  0.127107  0  1.05943  0  0  0.131475  0  1.058518  0  0  0.104842  0.123832  0  1.060604  0
H  H3  1  0.14559578  0.00438945  0.38681752  1  0  0.121766  0  0.991936  0  0  0.127241  0  1.059302  0  0  0.131611  0  1.058388  0  0  0.104885  0.123963  0  1.060479  0
H  H4  1  0.64559426  0.49562098  0.38682580  1  0  0.121609  0  0.991959  0  0  0.127098  0  1.059389  0  0  0.131466  0  1.058479  0  0  0.104858  0.123823  0  1.06056  0
H  H5  1  0.85439043  0.99561703  0.61318153  1  0  0.121676  0  0.992108  0  0  0.127172  0  1.059468  0  0  0.131543  0  1.058553  0  0  0.104838  0.123895  0  1.060644  0
H  H6  1  0.52980031  0.72760735  0.74513883  1  0  0.095783  0  0.958384  0  0  0.103075  0  1.026193  0  0  0.10599  0  1.022626  0  0  0.104566  0.101615  0  1.027474  0
H  H7  1  0.97020725  0.22762253  0.25485901  1  0  0.095718  0  0.9584  0  0  0.103069  0  1.026162  0  0  0.105985  0  1.022594  0  0  0.104539  0.101606  0  1.027451  0
H  H8  1  0.47019544  0.27238481  0.25486372  1  0  0.095711  0  0.958352  0  0  0.102995  0  1.026199  0  0  0.10591  0  1.022632  0  0  0.104565  0.101533  0  1.027486  0
H  H9  1  0.02979403  0.77238285  0.74514040  1  0  0.095655  0  0.958393  0  0  0.102972  0  1.026194  0  0  0.105891  0  1.022627  0  0  0.104537  0.101512  0  1.027478  0
H  H10  1  0.34705351  0.31824118  0.66961185  1  0  0.112708  0  0.975636  0  0  0.119184  0  1.039106  0  0  0.122733  0  1.035864  0  0  0.125998  0.116391  0  1.041936  0
H  H11  1  0.15294782  0.81825611  0.33038422  1  0  0.112729  0  0.975632  0  0  0.119174  0  1.039183  0  0  0.122723  0  1.035941  0  0  0.125988  0.11638  0  1.042012  0
H  H12  1  0.65294093  0.68175428  0.33038675  1  0  0.112721  0  0.975686  0  0  0.11916  0  1.039217  0  0  0.122709  0  1.035975  0  0  0.125969  0.116367  0  1.042047  0
H  H13  1  0.84705343  0.18174706  0.66961650  1  0  0.112733  0  0.975682  0  0  0.119151  0  1.039244  0  0  0.122703  0  1.035998  0  0  0.12597  0.116357  0  1.042076  0
H  H14  1  0.64099624  0.10827198  0.94194575  1  0  0.125978  0  0.950722  0  0  0.132795  0  1.015251  0  0  0.136785  0  1.012834  0  0  0.10407  0.129814  0  1.017282  0
H  H15  1  0.85901282  0.60827911  0.05805566  1  0  0.125858  0  0.95081  0  0  0.132667  0  1.015349  0  0  0.136657  0  1.012931  0  0  0.104039  0.129686  0  1.017384  0
H  H16  1  0.35902291  0.89172018  0.05805018  1  0  0.125851  0  0.950777  0  0  0.132673  0  1.015279  0  0  0.136664  0  1.012861  0  0  0.104036  0.129689  0  1.017318  0
H  H17  1  0.14099662  0.39171856  0.94194788  1  0  0.125873  0  0.950843  0  0  0.132715  0  1.015317  0  0  0.136706  0  1.012896  0  0  0.104045  0.129702  0  1.017385  0
H  H18  1  0.36417900  0.04915219  0.68761051  1  0  0.127555  0  0.961522  0  0  0.132355  0  1.026837  0  0  0.135977  0  1.025062  0  0  0.110462  0.129539  0  1.028347  0
H  H19  1  0.13582026  0.54916269  0.31239311  1  0  0.127579  0  0.961444  0  0  0.132414  0  1.026664  0  0  0.136036  0  1.024899  0  0  0.110455  0.129595  0  1.028177  0
H  H20  1  0.63581812  0.95084548  0.31239207  1  0  0.127554  0  0.96142  0  0  0.132427  0  1.026616  0  0  0.13605  0  1.024838  0  0  0.110451  0.129607  0  1.028128  0
H  H21  1  0.86418370  0.45084379  0.68760964  1  0  0.127539  0  0.961485  0  0  0.1324  0  1.02669  0  0  0.136022  0  1.024916  0  0  0.110454  0.129583  0  1.028202  0
H  H22  1  0.51376955  0.94059282  0.82415121  1  0  0.078699  0  0.981335  0  0  0.085489  0  1.053649  0  0  0.088125  0  1.051344  0  0  0.092697  0.084359  0  1.053947  0
H  H23  1  0.98623105  0.44060819  0.17584913  1  0  0.078737  0  0.981438  0  0  0.085578  0  1.053679  0  0  0.088207  0  1.051393  0  0  0.092766  0.084454  0  1.053959  0
H  H24  1  0.48624140  0.05939494  0.17584321  1  0  0.078727  0  0.981397  0  0  0.085555  0  1.053644  0  0  0.08819  0  1.051347  0  0  0.09274  0.084432  0  1.053923  0
H  H25  1  0.01377424  0.55939389  0.82415627  1  0  0.078727  0  0.981444  0  0  0.085572  0  1.053674  0  0  0.088194  0  1.051413  0  0  0.092722  0.084448  0  1.053954  0
C  C26  1  0.41643728  0.72957098  0.58469407  1  0  0.299554  0  3.726017  0  0  0.290679  0  3.980114  0  0  0.311563  0  3.985395  0  0  0.131702  0.277044  0  3.975739  0
C  C27  1  0.08355845  0.22958016  0.41529699  1  0  0.299503  0  3.726083  0  0  0.290597  0  3.980136  0  0  0.311472  0  3.985433  0  0  0.131575  0.276964  0  3.975759  0
C  C28  1  0.58354752  0.27042889  0.41530756  1  0  0.299518  0  3.726307  0  0  0.290769  0  3.980137  0  0  0.311658  0  3.985399  0  0  0.131636  0.277136  0  3.975764  0
C  C29  1  0.91642915  0.77042962  0.58470078  1  0  0.299576  0  3.726012  0  0  0.290694  0  3.980087  0  0  0.311567  0  3.985379  0  0  0.131707  0.27706  0  3.975712  0
C  C30  1  0.33744545  0.71497431  0.48972708  1  0  0.591013  0  3.879281  0  0  0.54175  0  4.172531  0  0  0.573241  0  4.163582  0  0  0.209964  0.519565  0  4.177965  0
C  C31  1  0.16254078  0.21499033  0.51026958  1  0  0.591114  0  3.878731  0  0  0.54187  0  4.171938  0  0  0.57337  0  4.162983  0  0  0.209963  0.519681  0  4.17738  0
C  C32  1  0.66254347  0.28502446  0.51027334  1  0  0.590895  0  3.879536  0  0  0.541688  0  4.172639  0  0  0.573183  0  4.163684  0  0  0.209974  0.519497  0  4.178075  0
C  C33  1  0.83745229  0.78501946  0.48972898  1  0  0.591074  0  3.878945  0  0  0.541839  0  4.172176  0  0  0.57334  0  4.163219  0  0  0.209981  0.51965  0  4.177614  0
C  C34  1  0.41213591  0.60474275  0.64130720  1  0  -0.187619  0  3.698148  0  0  -0.218402  0  3.965354  0  0  -0.236755  0  3.98724  0  0  -0.112624  -0.206445  0  3.950489  0
C  C35  1  0.08786971  0.10475245  0.35868238  1  0  -0.187867  0  3.698397  0  0  -0.218573  0  3.965591  0  0  -0.236923  0  3.987476  0  0  -0.112622  -0.206616  0  3.950728  0
C  C36  1  0.58785021  0.39525382  0.35869708  1  0  -0.187644  0  3.6982  0  0  -0.218459  0  3.965363  0  0  -0.236816  0  3.987246  0  0  -0.112667  -0.2065  0  3.950496  0
C  C37  1  0.91211516  0.89525733  0.64131467  1  0  -0.187822  0  3.698251  0  0  -0.218549  0  3.965409  0  0  -0.236901  0  3.987293  0  0  -0.112584  -0.206591  0  3.950545  0
C  C38  1  0.56899680  0.30325028  0.86883949  1  0  0.320528  0  3.761638  0  0  0.30066  0  4.024663  0  0  0.313302  0  4.041606  0  0  0.210764  0.293358  0  4.012626  0
C  C39  1  0.93100020  0.80326079  0.13115638  1  0  0.320312  0  3.76198  0  0  0.30033  0  4.025126  0  0  0.312969  0  4.04208  0  0  0.210576  0.293048  0  4.013062  0
C  C40  1  0.43100859  0.69673967  0.13116003  1  0  0.320131  0  3.762082  0  0  0.300248  0  4.02522  0  0  0.312891  0  4.042171  0  0  0.210567  0.292966  0  4.013156  0
C  C41  1  0.06900381  0.19673908  0.86884375  1  0  0.320209  0  3.761912  0  0  0.30023  0  4.025067  0  0  0.312872  0  4.042015  0  0  0.21046  0.292933  0  4.013017  0
C  C42  1  0.48227649  0.61738982  0.72598619  1  0  -0.011767  0  3.742462  0  0  -0.034825  0  4.004387  0  0  -0.021209  0  4.018627  0  0  -0.064178  -0.042928  0  3.993505  0
C  C43  1  0.01773033  0.11740152  0.27400346  1  0  -0.011487  0  3.74274  0  0  -0.034648  0  4.004615  0  0  -0.021032  0  4.01885  0  0  -0.06415  -0.042758  0  3.993742  0
C  C44  1  0.51771928  0.38260675  0.27401505  1  0  -0.011587  0  3.74245  0  0  -0.034666  0  4.004341  0  0  -0.021057  0  4.018603  0  0  -0.064151  -0.042774  0  3.993472  0
C  C45  1  0.98226817  0.88260165  0.72599785  1  0  -0.011447  0  3.742304  0  0  -0.03453  0  4.004221  0  0  -0.020916  0  4.018457  0  0  -0.064154  -0.042643  0  3.993357  0
C  C46  1  0.51278830  0.51302222  0.79254930  1  0  0.015929  0  3.77878  0  0  0.000711  0  4.038664  0  0  -0.008571  0  4.066022  0  0  0.070284  0.006305  0  4.020143  0
C  C47  1  0.98721803  0.01303568  0.20744387  1  0  0.015727  0  3.778835  0  0  0.000546  0  4.038609  0  0  -0.008733  0  4.065962  0  0  0.070299  0.006142  0  4.020088  0
C  C48  1  0.48720740  0.48696884  0.20745586  1  0  0.015721  0  3.778905  0  0  0.000628  0  4.038685  0  0  -0.008661  0  4.066052  0  0  0.0702  0.006218  0  4.020171  0
C  C49  1  0.01278464  0.98696969  0.79255427  1  0  0.015794  0  3.778661  0  0  0.000502  0  4.038611  0  0  -0.00878  0  4.065967  0  0  0.070306  0.006098  0  4.020088  0
C  C50  1  0.59898961  0.53701205  0.87674249  1  0  0.207966  0  3.862012  0  0  0.194575  0  4.165085  0  0  0.207263  0  4.182027  0  0  0.133412  0.186524  0  4.153452  0
C  C51  1  0.90101229  0.03702217  0.12325066  1  0  0.20804  0  3.861878  0  0  0.194604  0  4.164973  0  0  0.207289  0  4.181917  0  0  0.133395  0.186554  0  4.153339  0
C  C52  1  0.40100747  0.46297681  0.12326205  1  0  0.207853  0  3.8622  0  0  0.194425  0  4.165275  0  0  0.207114  0  4.18222  0  0  0.133317  0.186374  0  4.153645  0
C  C53  1  0.09899862  0.96297660  0.87674638  1  0  0.208068  0  3.861668  0  0  0.194656  0  4.1648  0  0  0.207344  0  4.18174  0  0  0.133434  0.186604  0  4.153169  0
C  C54  1  0.41528261  0.26905103  0.72695213  1  0  0.096708  0  3.58065  0  0  0.052795  0  3.842047  0  0  0.060358  0  3.855573  0  0  0.049226  0.046389  0  3.834257  0
C  C55  1  0.08473448  0.76906381  0.27304154  1  0  0.096856  0  3.580358  0  0  0.05275  0  3.841861  0  0  0.060326  0  3.855375  0  0  0.049062  0.046342  0  3.834073  0
C  C56  1  0.58472967  0.73094443  0.27304494  1  0  0.096751  0  3.580592  0  0  0.05283  0  3.842065  0  0  0.060392  0  3.855605  0  0  0.049231  0.046424  0  3.834273  0
C  C57  1  0.91527229  0.23094157  0.72695735  1  0  0.096744  0  3.580586  0  0  0.052746  0  3.842026  0  0  0.060319  0  3.855532  0  0  0.049202  0.04634  0  3.834237  0
C  C58  1  0.57769185  0.15087095  0.88144751  1  0  -0.166601  0  3.696129  0  0  -0.188716  0  3.955395  0  0  -0.195165  0  3.973245  0  0  -0.086734  -0.185847  0  3.94381  0
C  C59  1  0.92230848  0.65088582  0.11855055  1  0  -0.16637  0  3.696068  0  0  -0.188465  0  3.955349  0  0  -0.194919  0  3.973205  0  0  -0.086644  -0.185601  0  3.943761  0
C  C60  1  0.42230805  0.84911790  0.11855187  1  0  -0.166288  0  3.696153  0  0  -0.188396  0  3.955404  0  0  -0.194846  0  3.97326  0  0  -0.086632  -0.18553  0  3.943815  0
C  C61  1  0.07769824  0.34911515  0.88145161  1  0  -0.166344  0  3.695969  0  0  -0.188438  0  3.955192  0  0  -0.194886  0  3.973042  0  0  -0.086589  -0.185543  0  3.943624  0
C  C62  1  0.42320165  0.11910483  0.73915085  1  0  -0.110879  0  3.719116  0  0  -0.132419  0  3.991538  0  0  -0.138523  0  4.011155  0  0  -0.090076  -0.128202  0  3.979136  0
C  C63  1  0.07682009  0.61911756  0.26084702  1  0  -0.111016  0  3.718863  0  0  -0.132526  0  3.991362  0  0  -0.138595  0  4.010882  0  0  -0.090037  -0.128313  0  3.978978  0
C  C64  1  0.57681750  0.88089284  0.26084573  1  0  -0.110918  0  3.719058  0  0  -0.132501  0  3.991445  0  0  -0.138604  0  4.011057  0  0  -0.090118  -0.128284  0  3.979045  0
C  C65  1  0.92317976  0.38088892  0.73915563  1  0  -0.110884  0  3.719075  0  0  -0.132433  0  3.991451  0  0  -0.138533  0  4.011062  0  0  -0.090084  -0.128217  0  3.979052  0
C  C66  1  0.50700281  0.05952683  0.81574923  1  0  -0.006785  0  3.730588  0  0  -0.030551  0  3.993781  0  0  -0.026772  0  4.012275  0  0  -0.079335  -0.032498  0  3.980771  0
C  C67  1  0.99300828  0.55953729  0.18425075  1  0  -0.006829  0  3.730373  0  0  -0.030644  0  3.993481  0  0  -0.026861  0  4.011979  0  0  -0.079368  -0.032593  0  3.980481  0
C  C68  1  0.49300675  0.94046423  0.18424646  1  0  -0.006863  0  3.730609  0  0  -0.0306  0  3.993659  0  0  -0.026823  0  4.012151  0  0  -0.079307  -0.032546  0  3.980657  0
C  C69  1  0.00699567  0.44046478  0.81575265  1  0  -0.00686  0  3.73048  0  0  -0.030649  0  3.993565  0  0  -0.026874  0  4.012046  0  0  -0.079321  -0.032596  0  3.980555  0
N  N70  1  0.49144902  0.35913615  0.79006236  1  0  -0.096783  0  3.564176  0  0  -0.006096  0  3.761926  0  0  -0.018475  0  3.790307  0  0  -0.202881  0.002668  0  3.742605  0
N  N71  1  0.00855320  0.85914789  0.20993060  1  0  -0.096899  0  3.56395  0  0  -0.005977  0  3.761495  0  0  -0.01836  0  3.789875  0  0  -0.202825  0.00278  0  3.742174  0
N  N72  1  0.50855638  0.64085601  0.20993651  1  0  -0.096593  0  3.563869  0  0  -0.005996  0  3.761703  0  0  -0.01838  0  3.79009  0  0  -0.202762  0.002765  0  3.74238  0
N  N73  1  0.99144534  0.14085638  0.79006875  1  0  -0.096801  0  3.564026  0  0  -0.005936  0  3.761654  0  0  -0.018317  0  3.790035  0  0  -0.202899  0.002827  0  3.742334  0
N  N74  1  0.63175759  0.41418386  0.92211699  1  0  -0.431104  0  2.998982  0  0  -0.413522  0  3.276934  0  0  -0.428052  0  3.289823  0  0  -0.34159  -0.405446  0  3.268949  0
N  N75  1  0.86824210  0.91419220  0.07787671  1  0  -0.430861  0  2.998945  0  0  -0.413258  0  3.276932  0  0  -0.427788  0  3.289826  0  0  -0.341443  -0.405189  0  3.26894  0
N  N76  1  0.36825048  0.58580390  0.07788586  1  0  -0.430761  0  2.999096  0  0  -0.413158  0  3.277048  0  0  -0.427688  0  3.289939  0  0  -0.341424  -0.405087  0  3.269056  0
N  N77  1  0.13176879  0.08580547  0.92212164  1  0  -0.430852  0  2.998843  0  0  -0.413224  0  3.276792  0  0  -0.427753  0  3.289685  0  0  -0.341378  -0.405151  0  3.268806  0
Cl  Cl78  1  0.66577077  0.70500230  0.91625630  1  0  -0.030376  0  1.464006  0  0  -0.015165  0  1.718782  0  0  -0.019036  0  1.713656  0  0  0.063395  -0.012351  0  1.720642  0
Cl  Cl79  1  0.83424271  0.20501483  0.08373246  1  0  -0.03033  0  1.464062  0  0  -0.015105  0  1.718833  0  0  -0.018975  0  1.71371  0  0  0.063494  -0.012292  0  1.72069  0
Cl  Cl80  1  0.33423464  0.29499317  0.08374191  1  0  -0.030286  0  1.46422  0  0  -0.015081  0  1.71902  0  0  -0.018952  0  1.713895  0  0  0.063489  -0.012265  0  1.720873  0
Cl  Cl81  1  0.16576826  0.79498174  0.91626065  1  0  -0.03032  0  1.463991  0  0  -0.015103  0  1.718767  0  0  -0.018972  0  1.713645  0  0  0.063489  -0.012289  0  1.720627  0
O  O82  1  0.48410558  0.85281871  0.60719783  1  0  -0.50552  0  2.101594  0  0  -0.43615  0  2.336011  0  0  -0.461314  0  2.332749  0  0  -0.266274  -0.418673  0  2.338123  0
O  O83  1  0.01588160  0.35282608  0.39279800  1  0  -0.505601  0  2.101699  0  0  -0.436216  0  2.336139  0  0  -0.461386  0  2.33288  0  0  -0.266268  -0.418728  0  2.338228  0
O  O84  1  0.51588604  0.14718006  0.39280592  1  0  -0.505644  0  2.101693  0  0  -0.436291  0  2.336008  0  0  -0.461456  0  2.332735  0  0  -0.266275  -0.418808  0  2.338109  0
O  O85  1  0.98410191  0.64718261  0.60719836  1  0  -0.505611  0  2.101713  0  0  -0.436255  0  2.336139  0  0  -0.461421  0  2.332877  0  0  -0.266345  -0.418775  0  2.338251  0
O  O86  1  0.35979029  0.82675129  0.44072836  1  0  -0.606344  0  2.081829  0  0  -0.539551  0  2.335697  0  0  -0.566426  0  2.325206  0  0  -0.29955  -0.519245  0  2.342902  0
O  O87  1  0.14020692  0.32674044  0.55926175  1  0  -0.606326  0  2.082593  0  0  -0.539505  0  2.336429  0  0  -0.566378  0  2.325931  0  0  -0.299554  -0.519209  0  2.343641  0
O  O88  1  0.64020424  0.17325629  0.55926501  1  0  -0.606229  0  2.082314  0  0  -0.539493  0  2.336191  0  0  -0.56638  0  2.325709  0  0  -0.299528  -0.519181  0  2.343395  0
O  O89  1  0.85978072  0.67327375  0.44073341  1  0  -0.6063  0  2.082754  0  0  -0.539449  0  2.33652  0  0  -0.566328  0  2.326023  0  0  -0.299499  -0.519153  0  2.343733  0
O  O90  1  0.25784400  0.59772739  0.46584311  1  0  -0.609347  0  2.063522  0  0  -0.555817  0  2.324453  0  0  -0.580801  0  2.314695  0  0  -0.309891  -0.536921  0  2.330818  0
O  O91  1  0.24216009  0.09770547  0.53416144  1  0  -0.609494  0  2.062648  0  0  -0.555934  0  2.323477  0  0  -0.580929  0  2.313723  0  0  -0.309855  -0.537025  0  2.329837  0
O  O92  1  0.74214897  0.40227909  0.53416133  1  0  -0.609338  0  2.063358  0  0  -0.555827  0  2.324188  0  0  -0.580814  0  2.31443  0  0  -0.309907  -0.536931  0  2.330564  0
O  O93  1  0.75783566  0.90230431  0.46584111  1  0  -0.609586  0  2.062738  0  0  -0.556034  0  2.323559  0  0  -0.581036  0  2.313817  0  0  -0.309988  -0.537127  0  2.32992  0
