# generated using pymatgen
data_CdH24C37N2O9
_symmetry_space_group_name_H-M   'P 1'
_cell_length_a   8.98412988
_cell_length_b   10.12863377
_cell_length_c   19.93368187
_cell_angle_alpha   93.05370169
_cell_angle_beta   89.54317827
_cell_angle_gamma   104.47786272
_symmetry_Int_Tables_number   1
_chemical_formula_structural   CdH24C37N2O9
_chemical_formula_sum   'Cd2 H48 C74 N4 O18'
_cell_volume   1753.78200806
_cell_formula_units_Z   2
loop_
 _symmetry_equiv_pos_site_id
 _symmetry_equiv_pos_as_xyz
  1  'x, y, z'
loop_
 _atom_site_type_symbol
 _atom_site_label
 _atom_site_symmetry_multiplicity
 _atom_site_fract_x
 _atom_site_fract_y
 _atom_site_fract_z
 _atom_site_occupancy
 _atom_site_hle17_bader_spin_density
 _atom_site_hle17_ddec_charge
 _atom_site_hle17_ddec_spin_density
 _atom_site_hle17_ddec_sum_bond_order
 _atom_site_hle17_magmom
 _atom_site_hse06_10hf_bader_spin_density
 _atom_site_hse06_10hf_ddec_charge
 _atom_site_hse06_10hf_ddec_spin_density
 _atom_site_hse06_10hf_ddec_sum_bond_order
 _atom_site_hse06_10hf_magmom
 _atom_site_hse06_bader_spin_density
 _atom_site_hse06_ddec_charge
 _atom_site_hse06_ddec_spin_density
 _atom_site_hse06_ddec_sum_bond_order
 _atom_site_hse06_magmom
 _atom_site_pbe_bader_spin_density
 _atom_site_pbe_cm5_charge
 _atom_site_pbe_ddec_charge
 _atom_site_pbe_ddec_spin_density
 _atom_site_pbe_ddec_sum_bond_order
 _atom_site_pbe_magmom
Cd  Cd0  1  0.93195018  0.12154274  0.44262793  1  0  1.112566  0  1.740995  0  0  0.914573  0  2.204583  0  0  0.972683  0  2.150218  0  0  0.777034  0.873349  0  2.241477  0
Cd  Cd1  1  0.06804756  0.87845665  0.55737094  1  0  1.112534  0  1.740998  0  0  0.914564  0  2.204575  0  0  0.972675  0  2.150209  0  0  0.777052  0.873341  0  2.241466  0
H  H2  1  0.91878109  0.05773469  0.26704822  1  0  0.405756  0  0.889803  0  0  0.373051  0  0.972027  0  0  0.385849  0  0.953928  0  0  0.297338  0.364066  0  0.982138  0
H  H3  1  0.08120877  0.94226062  0.73295150  1  0  0.405783  0  0.889763  0  0  0.373115  0  0.971932  0  0  0.385915  0  0.953829  0  0  0.297381  0.364127  0  0.982035  0
H  H4  1  0.29543962  0.59904017  0.53470270  1  0  0.12487  0  0.971873  0  0  0.132768  0  1.033994  0  0  0.136782  0  1.031571  0  0  0.110062  0.129868  0  1.035803  0
H  H5  1  0.70456850  0.40095704  0.46530014  1  0  0.124877  0  0.971849  0  0  0.132798  0  1.033942  0  0  0.136812  0  1.031517  0  0  0.110038  0.129896  0  1.035755  0
H  H6  1  0.08587734  0.38647744  0.53374598  1  0  0.088238  0  0.953011  0  0  0.096526  0  1.014962  0  0  0.099375  0  1.012726  0  0  0.116583  0.094414  0  1.016662  0
H  H7  1  0.91412828  0.61351877  0.46625633  1  0  0.088239  0  0.953009  0  0  0.096507  0  1.014973  0  0  0.099355  0  1.01274  0  0  0.116587  0.094394  0  1.016674  0
H  H8  1  0.87795491  0.36860160  0.64626242  1  0  0.095178  0  0.946965  0  0  0.105981  0  1.005598  0  0  0.109248  0  1.003487  0  0  0.100834  0.103596  0  1.007195  0
H  H9  1  0.12204738  0.63139378  0.35373182  1  0  0.095108  0  0.94711  0  0  0.10598  0  1.005663  0  0  0.109246  0  1.003552  0  0  0.100835  0.103594  0  1.007262  0
H  H10  1  0.41239885  0.46952222  0.33431045  1  0  0.100575  0  0.965935  0  0  0.111855  0  1.026878  0  0  0.114579  0  1.026561  0  0  0.107404  0.109876  0  1.027306  0
H  H11  1  0.58761589  0.53047087  0.66569178  1  0  0.100693  0  0.966051  0  0  0.111901  0  1.027057  0  0  0.114631  0  1.026729  0  0  0.107403  0.109922  0  1.027486  0
H  H12  1  0.05742517  0.72645786  0.78339422  1  0  0.105728  0  0.960479  0  0  0.113921  0  1.022951  0  0  0.117849  0  1.019635  0  0  0.10365  0.111021  0  1.025441  0
H  H13  1  0.94257181  0.27353938  0.21660910  1  0  0.105739  0  0.96047  0  0  0.113927  0  1.022952  0  0  0.117841  0  1.01965  0  0  0.103667  0.111026  0  1.025441  0
H  H14  1  0.48798519  0.74236842  0.68418347  1  0  0.091295  0  0.955958  0  0  0.100254  0  1.020954  0  0  0.103318  0  1.018892  0  0  0.100322  0.097988  0  1.022608  0
H  H15  1  0.51201535  0.25764110  0.31581923  1  0  0.091301  0  0.955953  0  0  0.100287  0  1.020928  0  0  0.103352  0  1.018861  0  0  0.100342  0.098011  0  1.022582  0
H  H16  1  0.41829263  0.78341925  0.51830525  1  0  0.128278  0  0.974367  0  0  0.135994  0  1.038047  0  0  0.139795  0  1.035773  0  0  0.112497  0.133263  0  1.039804  0
H  H17  1  0.58169670  0.21658132  0.48168862  1  0  0.128283  0  0.974333  0  0  0.136005  0  1.038029  0  0  0.13981  0  1.035744  0  0  0.112438  0.133273  0  1.039786  0
H  H18  1  0.89765210  0.39516272  0.90231917  1  0  0.136533  0  0.96567  0  0  0.14447  0  1.030854  0  0  0.147333  0  1.030883  0  0  0.109442  0.14232  0  1.031217  0
H  H19  1  0.10234539  0.60483567  0.09767866  1  0  0.136528  0  0.96568  0  0  0.144469  0  1.030862  0  0  0.147333  0  1.03089  0  0  0.109455  0.142322  0  1.031223  0
H  H20  1  0.63375087  0.98792162  0.51524836  1  0  0.074748  0  0.957292  0  0  0.085192  0  1.018603  0  0  0.086685  0  1.017702  0  0  0.116836  0.084024  0  1.019425  0
H  H21  1  0.36623516  0.01207899  0.48474449  1  0  0.074766  0  0.95717  0  0  0.085201  0  1.018535  0  0  0.086699  0  1.017628  0  0  0.116802  0.084031  0  1.019359  0
H  H22  1  0.82464283  0.83410048  0.34812438  1  0  0.088317  0  0.926042  0  0  0.098632  0  0.985034  0  0  0.100873  0  0.983251  0  0  0.121549  0.096942  0  0.986403  0
H  H23  1  0.17535731  0.16589579  0.65187590  1  0  0.088401  0  0.926127  0  0  0.098724  0  0.985089  0  0  0.100965  0  0.983306  0  0  0.1216  0.09703  0  0.986471  0
H  H24  1  0.16154591  0.86615359  0.97324610  1  0  0.1213  0  0.926903  0  0  0.134441  0  0.978328  0  0  0.137788  0  0.97745  0  0  0.113818  0.132079  0  0.979118  0
H  H25  1  0.83845942  0.13385697  0.02675514  1  0  0.121263  0  0.926953  0  0  0.134402  0  0.97839  0  0  0.137741  0  0.977509  0  0  0.113823  0.132039  0  0.979181  0
H  H26  1  0.78517941  0.42910556  0.75914433  1  0  0.108353  0  0.961374  0  0  0.119001  0  1.019251  0  0  0.122011  0  1.018999  0  0  0.10117  0.11683  0  1.019582  0
H  H27  1  0.21482665  0.57089903  0.24084970  1  0  0.108361  0  0.961445  0  0  0.119051  0  1.019267  0  0  0.122065  0  1.01902  0  0  0.101163  0.116877  0  1.0196  0
H  H28  1  0.15892074  0.65011457  0.88665697  1  0  0.121859  0  0.968674  0  0  0.125133  0  1.037915  0  0  0.130252  0  1.034168  0  0  0.104607  0.121347  0  1.04087  0
H  H29  1  0.84108211  0.34988773  0.11334752  1  0  0.121748  0  0.968812  0  0  0.125042  0  1.038065  0  0  0.130159  0  1.034315  0  0  0.104569  0.121256  0  1.04102  0
H  H30  1  0.69918602  0.73373623  0.95700988  1  0  0.138847  0  0.937084  0  0  0.151108  0  0.992727  0  0  0.154705  0  0.99096  0  0  0.11618  0.148519  0  0.994168  0
H  H31  1  0.30081729  0.26626720  0.04299013  1  0  0.138817  0  0.937116  0  0  0.15109  0  0.992749  0  0  0.154687  0  0.990983  0  0  0.116181  0.148502  0  0.994188  0
H  H32  1  0.42989420  0.37750774  0.84624106  1  0  0.136328  0  0.943759  0  0  0.148833  0  1.001602  0  0  0.152133  0  1.000076  0  0  0.113423  0.146521  0  1.002754  0
H  H33  1  0.57010103  0.62249469  0.15375940  1  0  0.136348  0  0.943728  0  0  0.148855  0  1.001573  0  0  0.152155  0  1.000044  0  0  0.113434  0.146528  0  1.002743  0
H  H34  1  0.72913193  0.94264376  0.68432096  1  0  0.094853  0  0.952171  0  0  0.104243  0  1.016131  0  0  0.10727  0  1.013474  0  0  0.102097  0.102014  0  1.018111  0
H  H35  1  0.27087183  0.05735758  0.31568100  1  0  0.094831  0  0.952152  0  0  0.104233  0  1.016104  0  0  0.107259  0  1.013448  0  0  0.102111  0.102005  0  1.018081  0
H  H36  1  0.77507309  0.60382309  0.06826188  1  0  0.118059  0  0.96378  0  0  0.123389  0  1.030976  0  0  0.127032  0  1.029597  0  0  0.105153  0.120729  0  1.032183  0
H  H37  1  0.22493057  0.39617329  0.93173340  1  0  0.11808  0  0.963832  0  0  0.12339  0  1.031048  0  0  0.12704  0  1.02965  0  0  0.105181  0.12073  0  1.032255  0
H  H38  1  0.19636211  0.26241238  0.34309710  1  0  0.091451  0  0.932381  0  0  0.099977  0  0.994924  0  0  0.102883  0  0.991791  0  0  0.120808  0.097813  0  0.997185  0
H  H39  1  0.80364103  0.73758283  0.65690416  1  0  0.091493  0  0.932384  0  0  0.100021  0  0.994897  0  0  0.102902  0  0.991802  0  0  0.120818  0.097856  0  0.99716  0
H  H40  1  0.62626672  0.00078938  0.79585144  1  0  0.121091  0  0.933952  0  0  0.13115  0  0.991635  0  0  0.134663  0  0.990612  0  0  0.109038  0.128647  0  0.992506  0
H  H41  1  0.37372968  0.99921714  0.20414915  1  0  0.121068  0  0.933966  0  0  0.131136  0  0.991637  0  0  0.134648  0  0.990614  0  0  0.109022  0.128631  0  0.992508  0
H  H42  1  0.62089038  0.61735548  0.34538146  1  0  0.108102  0  0.944941  0  0  0.121547  0  0.998148  0  0  0.124552  0  0.997619  0  0  0.111899  0.119421  0  0.998642  0
H  H43  1  0.37912343  0.38263451  0.65462217  1  0  0.10806  0  0.944999  0  0  0.121599  0  0.998115  0  0  0.124609  0  0.99758  0  0  0.111925  0.119474  0  0.998609  0
H  H44  1  0.80649477  0.77157891  0.16746922  1  0  0.099894  0  0.947534  0  0  0.111001  0  1.005537  0  0  0.11471  0  1.002131  0  0  0.104829  0.108335  0  1.007988  0
H  H45  1  0.19349540  0.22841338  0.83252840  1  0  0.099896  0  0.947608  0  0  0.111005  0  1.005598  0  0  0.114712  0  1.002194  0  0  0.104841  0.108341  0  1.008047  0
H  H46  1  0.19305806  0.03249149  0.07381789  1  0  0.099018  0  0.942113  0  0  0.109177  0  1.001716  0  0  0.112652  0  0.998905  0  0  0.107081  0.1066  0  1.003918  0
H  H47  1  0.80694278  0.96750774  0.92618700  1  0  0.099048  0  0.942041  0  0  0.109209  0  1.001649  0  0  0.112684  0  0.998838  0  0  0.107087  0.106631  0  1.003851  0
H  H48  1  0.59480674  0.67504848  0.78931818  1  0  0.120438  0  0.950885  0  0  0.131745  0  1.007414  0  0  0.135109  0  1.006426  0  0  0.106075  0.129349  0  1.008255  0
H  H49  1  0.40519467  0.32496004  0.21068298  1  0  0.120454  0  0.950743  0  0  0.131754  0  1.007299  0  0  0.135118  0  1.006313  0  0  0.106088  0.129356  0  1.008142  0
C  C50  1  0.86488237  0.11443928  0.59106564  1  0  0.649507  0  3.943162  0  0  0.596827  0  4.241349  0  0  0.633045  0  4.232488  0  0  0.199271  0.572241  0  4.246783  0
C  C51  1  0.13512084  0.88555193  0.40893199  1  0  0.649478  0  3.94343  0  0  0.59676  0  4.241676  0  0  0.632978  0  4.232818  0  0  0.199277  0.572171  0  4.247114  0
C  C52  1  0.26676019  0.73789821  0.72696414  1  0  -0.094996  0  3.797031  0  0  -0.073825  0  4.031204  0  0  -0.084043  0  4.055176  0  0  -0.033869  -0.06722  0  4.015  0
C  C53  1  0.73324422  0.26210926  0.27303801  1  0  -0.095159  0  3.797122  0  0  -0.07388  0  4.031151  0  0  -0.084099  0  4.055116  0  0  -0.033973  -0.067277  0  4.014945  0
C  C54  1  0.37539972  0.55337252  0.43420667  1  0  0.095557  0  3.750525  0  0  0.104819  0  3.985775  0  0  0.108419  0  4.007458  0  0  0.015987  0.102562  0  3.970711  0
C  C55  1  0.62461167  0.44662463  0.56579769  1  0  0.095565  0  3.75075  0  0  0.104804  0  3.985984  0  0  0.108406  0  4.007668  0  0  0.01598  0.102547  0  3.97092  0
C  C56  1  0.28066243  0.52802366  0.49078721  1  0  -0.143847  0  3.674234  0  0  -0.163104  0  3.923268  0  0  -0.169981  0  3.942909  0  0  -0.075879  -0.158422  0  3.909459  0
C  C57  1  0.71934231  0.47196948  0.50921499  1  0  -0.143896  0  3.674324  0  0  -0.163161  0  3.923298  0  0  -0.170037  0  3.942937  0  0  -0.075879  -0.158478  0  3.90949  0
C  C58  1  0.16273681  0.40957983  0.49100201  1  0  0.125517  0  3.714771  0  0  0.095838  0  3.964687  0  0  0.102194  0  3.984038  0  0  0.046693  0.091846  0  3.951379  0
C  C59  1  0.83726301  0.59041541  0.50899874  1  0  0.125506  0  3.714714  0  0  0.095859  0  3.964618  0  0  0.102215  0  3.983969  0  0  0.046686  0.091869  0  3.951309  0
C  C60  1  0.82411118  0.28853682  0.67952311  1  0  -0.041907  0  3.770438  0  0  -0.065324  0  4.01995  0  0  -0.061826  0  4.039128  0  0  -0.08804  -0.067286  0  4.006754  0
C  C61  1  0.17588808  0.71146365  0.32047278  1  0  -0.041652  0  3.770585  0  0  -0.065127  0  4.020111  0  0  -0.061627  0  4.039293  0  0  -0.087984  -0.067091  0  4.006913  0
C  C62  1  0.49990127  0.67964393  0.43201837  1  0  0.103723  0  3.749645  0  0  0.114564  0  3.982182  0  0  0.118413  0  4.004648  0  0  0.017792  0.112023  0  3.966948  0
C  C63  1  0.50010168  0.32035438  0.56798198  1  0  0.103538  0  3.7496  0  0  0.114415  0  3.982127  0  0  0.118263  0  4.004596  0  0  0.017748  0.111874  0  3.966893  0
C  C64  1  0.34526297  0.45535872  0.38023378  1  0  -0.157432  0  3.708819  0  0  -0.174947  0  3.955199  0  0  -0.18276  0  3.977246  0  0  -0.079265  -0.169976  0  3.940666  0
C  C65  1  0.65473871  0.54463544  0.61976895  1  0  -0.15744  0  3.709312  0  0  -0.174919  0  3.955666  0  0  -0.182734  0  3.977694  0  0  -0.079209  -0.169948  0  3.941134  0
C  C66  1  0.55410195  0.56174156  0.90202563  1  0  0.309771  0  3.829217  0  0  0.303665  0  4.095319  0  0  0.314947  0  4.111608  0  0  0.08376  0.295999  0  4.084103  0
C  C67  1  0.44589795  0.43826184  0.09797638  1  0  0.309645  0  3.829061  0  0  0.303491  0  4.09529  0  0  0.314772  0  4.11158  0  0  0.083689  0.295826  0  4.084069  0
C  C68  1  0.17409012  0.71287948  0.78426953  1  0  -0.045208  0  3.744405  0  0  -0.067515  0  3.988044  0  0  -0.064969  0  4.007475  0  0  -0.084546  -0.068892  0  3.974806  0
C  C69  1  0.82591152  0.28712598  0.21573154  1  0  -0.045113  0  3.74442  0  0  -0.067437  0  3.98803  0  0  -0.064881  0  4.007467  0  0  -0.084518  -0.068816  0  3.974793  0
C  C70  1  0.41672406  0.72082382  0.72876874  1  0  -0.049962  0  3.770754  0  0  -0.072761  0  4.020506  0  0  -0.070246  0  4.040592  0  0  -0.08561  -0.074172  0  4.006747  0
C  C71  1  0.58328033  0.27918769  0.27123553  1  0  -0.049844  0  3.770635  0  0  -0.072702  0  4.020329  0  0  -0.070186  0  4.040413  0  0  -0.08555  -0.074098  0  4.006558  0
C  C72  1  0.80957938  0.15182325  0.65823265  1  0  -0.106915  0  3.798495  0  0  -0.0879  0  4.040295  0  0  -0.099039  0  4.064176  0  0  -0.038281  -0.080774  0  4.024285  0
C  C73  1  0.19041824  0.84817928  0.34176330  1  0  -0.106935  0  3.798734  0  0  -0.087928  0  4.040591  0  0  -0.099066  0  4.064471  0  0  -0.038215  -0.080798  0  4.02458  0
C  C74  1  0.50564026  0.78780849  0.47974289  1  0  -0.152924  0  3.665324  0  0  -0.171498  0  3.910769  0  0  -0.179101  0  3.931123  0  0  -0.077753  -0.166672  0  3.897284  0
C  C75  1  0.49435529  0.21218689  0.52025333  1  0  -0.152788  0  3.665229  0  0  -0.171363  0  3.91063  0  0  -0.178966  0  3.930987  0  0  -0.077604  -0.166534  0  3.897142  0
C  C76  1  0.80112627  0.44198385  0.90219543  1  0  -0.284894  0  3.691276  0  0  -0.322613  0  3.947285  0  0  -0.33007  0  3.964415  0  0  -0.10973  -0.317599  0  3.935963  0
C  C77  1  0.19887459  0.55801861  0.09780304  1  0  -0.284798  0  3.691259  0  0  -0.322577  0  3.947217  0  0  -0.330032  0  3.964345  0  0  -0.109741  -0.317564  0  3.935899  0
C  C78  1  0.62608068  0.90374051  0.47813996  1  0  0.143388  0  3.717745  0  0  0.113674  0  3.966399  0  0  0.121057  0  3.985397  0  0  0.049268  0.108861  0  3.953522  0
C  C79  1  0.37391304  0.09626001  0.52185542  1  0  0.143313  0  3.71767  0  0  0.113565  0  3.966347  0  0  0.120943  0  3.985353  0  0  0.049211  0.108753  0  3.953467  0
C  C80  1  0.73286501  0.81777571  0.38529285  1  0  0.139574  0  3.700302  0  0  0.109161  0  3.950265  0  0  0.116562  0  3.968905  0  0  0.052878  0.104386  0  3.937459  0
C  C81  1  0.26713641  0.18221746  0.61470884  1  0  0.139402  0  3.700448  0  0  0.108974  0  3.950432  0  0  0.116376  0  3.969074  0  0  0.052773  0.104193  0  3.937628  0
C  C82  1  0.08465711  0.84695361  0.01611621  1  0  -0.17281  0  3.730862  0  0  -0.196475  0  3.989278  0  0  -0.202539  0  4.008127  0  0  -0.094156  -0.192535  0  3.976838  0
C  C83  1  0.91534391  0.15304573  0.98388417  1  0  -0.172697  0  3.730858  0  0  -0.196358  0  3.989312  0  0  -0.202407  0  4.00815  0  0  -0.094115  -0.192417  0  3.97687  0
C  C84  1  0.77124681  0.32259805  0.74234943  1  0  -0.219156  0  3.785059  0  0  -0.236705  0  4.035676  0  0  -0.244794  0  4.056774  0  0  -0.115421  -0.231329  0  4.021393  0
C  C85  1  0.22875584  0.67740650  0.25764660  1  0  -0.219259  0  3.785135  0  0  -0.236848  0  4.035734  0  0  -0.244948  0  4.056839  0  0  -0.115348  -0.231466  0  4.021448  0
C  C86  1  0.23001011  0.67092088  0.84208696  1  0  -0.188771  0  3.744885  0  0  -0.209104  0  4.000315  0  0  -0.215849  0  4.018602  0  0  -0.106196  -0.204644  0  3.988172  0
C  C87  1  0.76999206  0.32908658  0.15791568  1  0  -0.188656  0  3.745238  0  0  -0.20909  0  4.00064  0  0  -0.21583  0  4.018927  0  0  -0.10616  -0.204632  0  3.988498  0
C  C88  1  0.68995377  0.63249318  0.93369331  1  0  -0.285415  0  3.713614  0  0  -0.322836  0  3.970398  0  0  -0.33056  0  3.987579  0  0  -0.105769  -0.317629  0  3.958782  0
C  C89  1  0.31003968  0.36750312  0.06630746  1  0  -0.285256  0  3.713614  0  0  -0.32273  0  3.970441  0  0  -0.330446  0  3.987611  0  0  -0.105759  -0.317523  0  3.958827  0
C  C90  1  0.53704188  0.43221499  0.87070003  1  0  -0.305688  0  3.731838  0  0  -0.344503  0  3.99015  0  0  -0.352642  0  4.008386  0  0  -0.113932  -0.339034  0  3.977753  0
C  C91  1  0.46295668  0.56778338  0.12929881  1  0  -0.305572  0  3.731824  0  0  -0.344393  0  3.990109  0  0  -0.352528  0  4.00834  0  0  -0.113881  -0.338912  0  3.977721  0
C  C92  1  0.38061783  0.65639499  0.84326241  1  0  0.28677  0  3.794364  0  0  0.276976  0  4.05475  0  0  0.28891  0  4.070502  0  0  0.085934  0.26884  0  4.043919  0
C  C93  1  0.61938938  0.34361449  0.15674030  1  0  0.286822  0  3.794475  0  0  0.277177  0  4.05466  0  0  0.289112  0  4.070411  0  0  0.086086  0.26904  0  4.043832  0
C  C94  1  0.20737612  0.78458223  0.66544096  1  0  0.642528  0  3.909875  0  0  0.593466  0  4.1978  0  0  0.628237  0  4.190996  0  0  0.198219  0.569944  0  4.201505  0
C  C95  1  0.79262259  0.21541707  0.33456142  1  0  0.642569  0  3.909906  0  0  0.593482  0  4.197783  0  0  0.628263  0  4.190965  0  0  0.198267  0.569959  0  4.201489  0
C  C96  1  0.96464443  0.72856427  0.01496793  1  0  0.282647  0  3.781708  0  0  0.268734  0  4.049533  0  0  0.281005  0  4.063976  0  0  0.088972  0.260373  0  4.039649  0
C  C97  1  0.03535501  0.27143311  0.98502937  1  0  0.282616  0  3.781631  0  0  0.268621  0  4.049524  0  0  0.28089  0  4.063968  0  0  0.088866  0.26026  0  4.039639  0
C  C98  1  0.73897621  0.04867424  0.70083565  1  0  -0.030777  0  3.748747  0  0  -0.054653  0  3.997428  0  0  -0.051133  0  4.016697  0  0  -0.082154  -0.056669  0  3.984353  0
C  C99  1  0.26102581  0.95132825  0.29916132  1  0  -0.030821  0  3.74883  0  0  -0.054699  0  3.997531  0  0  -0.051178  0  4.016798  0  0  -0.082231  -0.056718  0  3.984458  0
C  C100  1  0.81314933  0.57101475  0.93323501  1  0  0.322845  0  3.785752  0  0  0.315566  0  4.047491  0  0  0.328073  0  4.062391  0  0  0.092999  0.307077  0  4.037094  0
C  C101  1  0.18685183  0.42898146  0.06676779  1  0  0.322663  0  3.785997  0  0  0.315441  0  4.047604  0  0  0.327946  0  4.062511  0  0  0.092947  0.306954  0  4.037206  0
C  C102  1  0.86487608  0.69885080  0.06948016  1  0  -0.205815  0  3.768403  0  0  -0.224247  0  4.025175  0  0  -0.231071  0  4.044681  0  0  -0.10505  -0.219767  0  4.012162  0
C  C103  1  0.13512277  0.30114859  0.93051871  1  0  -0.205827  0  3.768418  0  0  -0.224243  0  4.025226  0  0  -0.231064  0  4.044737  0  0  -0.105042  -0.219764  0  4.012216  0
C  C104  1  0.22513450  0.33930356  0.38452662  1  0  0.130562  0  3.705281  0  0  0.100416  0  3.954586  0  0  0.10705  0  3.973705  0  0  0.048827  0.096158  0  3.941452  0
C  C105  1  0.77487243  0.66068954  0.61547659  1  0  0.130478  0  3.705368  0  0  0.100382  0  3.95459  0  0  0.107031  0  3.973724  0  0  0.048879  0.096123  0  3.941455  0
C  C106  1  0.68214096  0.08044789  0.76279844  1  0  -0.182077  0  3.743837  0  0  -0.204832  0  4.001561  0  0  -0.211951  0  4.020964  0  0  -0.102249  -0.200197  0  3.98856  0
C  C107  1  0.31785471  0.91955566  0.23719804  1  0  -0.182011  0  3.743788  0  0  -0.204774  0  4.001492  0  0  -0.211892  0  4.020892  0  0  -0.102197  -0.200135  0  3.988494  0
C  C108  1  0.61693755  0.69723056  0.38369833  1  0  -0.15657  0  3.699691  0  0  -0.173646  0  3.943198  0  0  -0.181367  0  3.964371  0  0  -0.076837  -0.168533  0  3.928937  0
C  C109  1  0.38306997  0.30276054  0.61630282  1  0  -0.156412  0  3.699685  0  0  -0.17359  0  3.943183  0  0  -0.181315  0  3.964359  0  0  -0.076825  -0.168477  0  3.928924  0
C  C110  1  0.66174357  0.37407778  0.87184871  1  0  0.310382  0  3.826055  0  0  0.306014  0  4.087351  0  0  0.317793  0  4.102588  0  0  0.08496  0.298057  0  4.076838  0
C  C111  1  0.33825329  0.62592260  0.12815169  1  0  0.310191  0  3.825904  0  0  0.305915  0  4.087104  0  0  0.317698  0  4.102337  0  0  0.084939  0.297951  0  4.076596  0
C  C112  1  0.88315059  0.79176954  0.12458670  1  0  -0.039379  0  3.746246  0  0  -0.064085  0  3.991749  0  0  -0.061579  0  4.011469  0  0  -0.080414  -0.065461  0  3.978205  0
C  C113  1  0.11684904  0.20822880  0.87541314  1  0  -0.039356  0  3.746351  0  0  -0.064065  0  3.991827  0  0  -0.061559  0  4.011546  0  0  -0.080407  -0.065445  0  3.978287  0
C  C114  1  0.10175281  0.93851510  0.07172985  1  0  -0.03044  0  3.741805  0  0  -0.056202  0  3.994645  0  0  -0.053456  0  4.014191  0  0  -0.074316  -0.057793  0  3.981557  0
C  C115  1  0.89824914  0.06148734  0.92826912  1  0  -0.030507  0  3.741823  0  0  -0.056281  0  3.994663  0  0  -0.053538  0  4.014208  0  0  -0.074332  -0.05787  0  3.981571  0
C  C116  1  0.47572172  0.68177174  0.78685634  1  0  -0.215399  0  3.769508  0  0  -0.233425  0  4.020064  0  0  -0.240924  0  4.040935  0  0  -0.111382  -0.228447  0  4.005857  0
C  C117  1  0.52428486  0.31823568  0.21314732  1  0  -0.215525  0  3.769478  0  0  -0.233602  0  4.020017  0  0  -0.241103  0  4.040891  0  0  -0.111494  -0.228621  0  4.005806  0
C  C118  1  0.69968147  0.21770954  0.78364799  1  0  0.294615  0  3.790195  0  0  0.283242  0  4.052482  0  0  0.296436  0  4.067008  0  0  0.090567  0.274251  0  4.04251  0
C  C119  1  0.30031457  0.78229508  0.21634652  1  0  0.294609  0  3.789976  0  0  0.283272  0  4.052237  0  0  0.296475  0  4.066758  0  0  0.090493  0.274272  0  4.042276  0
C  C120  1  0.00023084  0.91321488  0.12597028  1  0  -0.096712  0  3.78248  0  0  -0.075681  0  4.017437  0  0  -0.086393  0  4.04351  0  0  -0.026111  -0.068727  0  3.99985  0
C  C121  1  0.99976875  0.08678344  0.87403056  1  0  -0.096685  0  3.7826  0  0  -0.075627  0  4.017509  0  0  -0.086338  0  4.043581  0  0  -0.026105  -0.068672  0  3.99992  0
C  C122  1  0.01586600  0.01781920  0.18272877  1  0  0.643943  0  3.853122  0  0  0.596626  0  4.153557  0  0  0.629259  0  4.146353  0  0  0.220407  0.574453  0  4.157936  0
C  C123  1  0.98412497  0.98218016  0.81727259  1  0  0.643865  0  3.853346  0  0  0.596541  0  4.153787  0  0  0.629172  0  4.146583  0  0  0.2204  0.574368  0  4.158165  0
N  N124  1  0.13507599  0.31650913  0.43906325  1  0  -0.317723  0  3.249826  0  0  -0.240239  0  3.511383  0  0  -0.260085  0  3.531006  0  0  -0.327712  -0.226615  0  3.497412  0
N  N125  1  0.86492526  0.68349119  0.56093866  1  0  -0.317696  0  3.249647  0  0  -0.240259  0  3.511205  0  0  -0.260105  0  3.530818  0  0  -0.327785  -0.226635  0  3.497234  0
N  N126  1  0.73863266  0.91933230  0.43225703  1  0  -0.333418  0  3.266108  0  0  -0.254785  0  3.530035  0  0  -0.275535  0  3.549057  0  0  -0.32884  -0.240511  0  3.516674  0
N  N127  1  0.26136235  0.08066916  0.56774139  1  0  -0.333406  0  3.266171  0  0  -0.254727  0  3.530056  0  0  -0.275481  0  3.549087  0  0  -0.328792  -0.240448  0  3.516691  0
O  O128  1  0.26383709  0.76616103  0.60837597  1  0  -0.632018  0  1.943465  0  0  -0.579418  0  2.177187  0  0  -0.604893  0  2.166661  0  0  -0.327928  -0.561317  0  2.183495  0
O  O129  1  0.73616414  0.23384333  0.39162808  1  0  -0.632099  0  1.943522  0  0  -0.579508  0  2.177254  0  0  -0.604993  0  2.166732  0  0  -0.327965  -0.561405  0  2.183562  0
O  O130  1  0.88680297  0.20440805  0.54674120  1  0  -0.644104  0  2.019665  0  0  -0.578108  0  2.279756  0  0  -0.606944  0  2.26822  0  0  -0.330402  -0.558061  0  2.286562  0
O  O131  1  0.11320440  0.79559023  0.45325966  1  0  -0.644086  0  2.019675  0  0  -0.57808  0  2.279757  0  0  -0.606913  0  2.268218  0  0  -0.330433  -0.558034  0  2.286566  0
O  O132  1  0.95544264  0.63773779  0.95982199  1  0  -0.291691  0  2.344133  0  0  -0.219779  0  2.564032  0  0  -0.238507  0  2.565313  0  0  -0.143797  -0.206316  0  2.562714  0
O  O133  1  0.04455946  0.36226475  0.04017297  1  0  -0.291697  0  2.344187  0  0  -0.219664  0  2.563962  0  0  -0.2384  0  2.565255  0  0  -0.143744  -0.206201  0  2.562643  0
O  O134  1  0.88213923  0.99418536  0.58016657  1  0  -0.685506  0  2.081143  0  0  -0.622576  0  2.357326  0  0  -0.650959  0  2.343667  0  0  -0.344916  -0.602766  0  2.3656  0
O  O135  1  0.11785161  0.00580176  0.41983341  1  0  -0.685509  0  2.081203  0  0  -0.622588  0  2.357473  0  0  -0.650979  0  2.343833  0  0  -0.344928  -0.602776  0  2.365747  0
O  O136  1  0.43033385  0.62127142  0.90372546  1  0  -0.300961  0  2.311429  0  0  -0.235084  0  2.531657  0  0  -0.251684  0  2.531163  0  0  -0.157712  -0.223114  0  2.531479  0
O  O137  1  0.56966828  0.37873197  0.09627655  1  0  -0.30095  0  2.311206  0  0  -0.235114  0  2.531435  0  0  -0.251715  0  2.530942  0  0  -0.157777  -0.223145  0  2.531258  0
O  O138  1  0.09550770  0.84395357  0.67243772  1  0  -0.660539  0  2.059255  0  0  -0.588233  0  2.299718  0  0  -0.618158  0  2.287883  0  0  -0.326627  -0.56735  0  2.306613  0
O  O139  1  0.90449621  0.15605190  0.32756236  1  0  -0.660523  0  2.059293  0  0  -0.58816  0  2.299712  0  0  -0.618086  0  2.287875  0  0  -0.326603  -0.56728  0  2.30661  0
O  O140  1  0.64081328  0.24050440  0.84589718  1  0  -0.294926  0  2.322604  0  0  -0.227857  0  2.539745  0  0  -0.245015  0  2.539339  0  0  -0.154759  -0.215654  0  2.539534  0
O  O141  1  0.35918811  0.75950732  0.15409857  1  0  -0.294856  0  2.322229  0  0  -0.227858  0  2.539356  0  0  -0.245031  0  2.538965  0  0  -0.154772  -0.215648  0  2.539147  0
O  O142  1  0.11242051  0.12874994  0.18387981  1  0  -0.571412  0  1.883261  0  0  -0.536554  0  2.095269  0  0  -0.556188  0  2.087418  0  0  -0.311463  -0.523027  0  2.100345  0
O  O143  1  0.88756449  0.87125157  0.81611859  1  0  -0.571445  0  1.883329  0  0  -0.536584  0  2.095344  0  0  -0.556221  0  2.087497  0  0  -0.311515  -0.523063  0  2.100431  0
O  O144  1  0.91242612  0.97979179  0.23111118  1  0  -0.573576  0  2.081149  0  0  -0.525041  0  2.297346  0  0  -0.547268  0  2.279603  0  0  -0.345174  -0.509491  0  2.307244  0
O  O145  1  0.08755674  0.02020251  0.76888949  1  0  -0.573541  0  2.081253  0  0  -0.525026  0  2.297445  0  0  -0.547255  0  2.279701  0  0  -0.345174  -0.509472  0  2.307339  0
