# generated using pymatgen
data_CuH13C13(NO2)2
_symmetry_space_group_name_H-M   'P 1'
_cell_length_a   8.34852626
_cell_length_b   9.95917514
_cell_length_c   15.30528631
_cell_angle_alpha   89.99919083
_cell_angle_beta   89.99954826
_cell_angle_gamma   101.20308014
_symmetry_Int_Tables_number   1
_chemical_formula_structural   CuH13C13(NO2)2
_chemical_formula_sum   'Cu4 H52 C52 N8 O16'
_cell_volume   1248.30059093
_cell_formula_units_Z   4
loop_
 _symmetry_equiv_pos_site_id
 _symmetry_equiv_pos_as_xyz
  1  'x, y, z'
loop_
 _atom_site_type_symbol
 _atom_site_label
 _atom_site_symmetry_multiplicity
 _atom_site_fract_x
 _atom_site_fract_y
 _atom_site_fract_z
 _atom_site_occupancy
 _atom_site_hle17_ddec_charge
 _atom_site_hle17_ddec_spin_density
 _atom_site_hle17_ddec_sum_bond_order
 _atom_site_hle17_magmom
 _atom_site_hse06_10hf_ddec_charge
 _atom_site_hse06_10hf_ddec_spin_density
 _atom_site_hse06_10hf_ddec_sum_bond_order
 _atom_site_hse06_10hf_magmom
 _atom_site_hse06_ddec_charge
 _atom_site_hse06_ddec_spin_density
 _atom_site_hse06_ddec_sum_bond_order
 _atom_site_hse06_magmom
 _atom_site_pbe_cm5_charge
 _atom_site_pbe_ddec_charge
 _atom_site_pbe_ddec_spin_density
 _atom_site_pbe_ddec_sum_bond_order
 _atom_site_pbe_magmom
Cu  Cu0  1  0.15086766  0.72030161  0.44205801  1  0.79514  0.714656  1.928228  0.487  0.763812  0.791687  2.330983  0.595  0.848002  0.871053  2.265296  0.679  0.74808  0.714768  0.732043  2.375401  0.538
Cu  Cu1  1  0.84912524  0.77969597  0.94205600  1  0.795069  -0.71466  1.928172  -0.487  0.763726  -0.79169  2.33097  -0.595  0.847944  -0.871053  2.265274  -0.679  0.748025  0.714725  -0.732057  2.375382  -0.538
Cu  Cu2  1  0.84912517  0.27969474  0.55793938  1  0.795201  -0.714629  1.927959  -0.487  0.763874  -0.791696  2.330785  -0.595  0.848106  -0.871046  2.265027  -0.679  0.748065  0.714803  -0.732046  2.375244  -0.538
Cu  Cu3  1  0.15087721  0.22029530  0.05793812  1  0.795114  0.714634  1.928047  0.487  0.76375  0.791693  2.330872  0.595  0.848005  0.871036  2.265069  0.679  0.748079  0.714646  0.732035  2.375412  0.538
H  H4  1  0.07900797  0.58577360  0.72119894  1  0.113626  -0.000273  0.947593  -0.001  0.125712  -5.5e-05  1.005016  0.0  0.129351  -5.9e-05  1.003972  0.0  0.102083  0.123278  -3.2e-05  1.005626  0.0
H  H5  1  0.92099449  0.91421520  0.22119579  1  0.113642  0.000273  0.947527  0.001  0.125721  5.4e-05  1.004979  0.0  0.129373  5.9e-05  1.003901  0.0  0.10207  0.123288  3.2e-05  1.005588  0.0
H  H6  1  0.92097302  0.41423396  0.27879910  1  0.113605  0.000273  0.947644  0.001  0.125632  5.5e-05  1.005108  0.0  0.129272  5.9e-05  1.004062  0.0  0.102051  0.123197  3.2e-05  1.005717  0.0
H  H7  1  0.07901307  0.08576689  0.77880159  1  0.113663  -0.000274  0.947584  -0.001  0.125707  -5.5e-05  1.005044  0.0  0.129338  -5.9e-05  1.004023  0.0  0.102042  0.123277  -3.2e-05  1.005649  0.0
H  H8  1  0.16688459  0.38710655  0.79200526  1  0.081564  0.000699  0.954698  0.001  0.094109  0.000362  1.014776  0.0  0.096339  0.000202  1.013322  0.0  0.098043  0.092491  0.000516  1.015972  0.001
H  H9  1  0.83312239  0.11288689  0.29200396  1  0.081475  -0.000698  0.954594  -0.001  0.094038  -0.000362  1.014659  0.0  0.096265  -0.000203  1.01321  0.0  0.097993  0.092425  -0.000516  1.015841  -0.001
H  H10  1  0.83310092  0.61290512  0.20799735  1  0.081467  -0.000698  0.954621  -0.001  0.094031  -0.000362  1.014696  0.0  0.096257  -0.000203  1.013245  0.0  0.098014  0.092412  -0.000516  1.01589  -0.001
H  H11  1  0.16688676  0.88710748  0.70800127  1  0.081507  0.000698  0.954619  0.001  0.094037  0.000362  1.014722  0.0  0.096264  0.000203  1.013271  0.0  0.098012  0.092425  0.000516  1.015906  0.001
H  H12  1  0.31631756  0.23723938  0.70646850  1  0.086178  -1.2e-05  0.970152  0.0  0.096456  -1.1e-05  1.033303  0.0  0.099054  -9e-06  1.033745  0.0  0.09425  0.094647  -1e-05  1.032967  0.0
H  H13  1  0.68369159  0.26275824  0.20646648  1  0.086138  1.2e-05  0.970236  0.0  0.096453  1.1e-05  1.03336  0.0  0.099051  9e-06  1.033803  0.0  0.094225  0.094643  1e-05  1.033024  0.0
H  H14  1  0.68367132  0.76277127  0.29353345  1  0.086319  1.3e-05  0.970361  0.0  0.09666  1.1e-05  1.033415  0.0  0.099257  9e-06  1.033861  0.0  0.094336  0.094845  1e-05  1.033081  0.0
H  H15  1  0.31632591  0.73724127  0.79353090  1  0.08608  -1.3e-05  0.970237  0.0  0.096399  -1.1e-05  1.033362  0.0  0.098996  -9e-06  1.033808  0.0  0.094223  0.094592  -1e-05  1.033027  0.0
H  H16  1  0.37297111  0.28668363  0.54874160  1  0.091412  0.000503  0.975744  0.0  0.100257  0.000306  1.042912  0.0  0.102807  0.000198  1.041725  0.0  0.099586  0.098479  0.000386  1.043555  0.0
H  H17  1  0.62703571  0.21331485  0.04874094  1  0.09146  -0.000502  0.975704  0.0  0.100315  -0.000306  1.042836  0.0  0.102859  -0.000198  1.041667  0.0  0.099587  0.098533  -0.000386  1.043491  0.0
H  H18  1  0.62701704  0.71332907  0.45126231  1  0.091247  -0.000502  0.975871  0.0  0.100231  -0.000306  1.042906  0.0  0.102796  -0.000198  1.041698  0.0  0.099565  0.098452  -0.000386  1.043547  0.0
H  H19  1  0.37298616  0.78667752  0.95125644  1  0.091318  0.000502  0.975785  0.0  0.100229  0.000306  1.042901  0.0  0.102856  0.000198  1.041602  0.0  0.099566  0.098453  0.000386  1.043545  0.0
H  H20  1  0.34784763  0.40048266  0.42142303  1  0.090468  0.009327  0.917582  0.011  0.103137  0.005744  0.977016  0.007  0.103784  0.004228  0.973798  0.005  0.122699  0.102303  0.006693  0.979135  0.008
H  H21  1  0.65214923  0.09952183  0.92142420  1  0.090442  -0.009328  0.917601  -0.011  0.103099  -0.005745  0.977063  -0.007  0.103745  -0.004229  0.973842  -0.005  0.122682  0.102268  -0.006695  0.979182  -0.008
H  H22  1  0.65215116  0.59951882  0.57858023  1  0.090372  -0.009327  0.917681  -0.011  0.103026  -0.005745  0.977153  -0.007  0.10367  -0.004229  0.973936  -0.005  0.122656  0.102193  -0.006693  0.979273  -0.008
H  H23  1  0.34785241  0.90048171  0.07857972  1  0.090362  0.009327  0.917698  0.011  0.103011  0.005745  0.977153  0.007  0.103656  0.004228  0.973939  0.005  0.122636  0.10218  0.006694  0.979274  0.008
H  H24  1  0.22506114  0.48415242  0.27691860  1  0.114767  0.001155  0.940472  0.001  0.12791  0.00079  1.006025  0.001  0.130871  0.000665  1.002972  0.001  0.114961  0.125732  0.00087  1.00811  0.001
H  H25  1  0.77494819  0.01585572  0.77691411  1  0.11468  -0.001154  0.940523  -0.001  0.127795  -0.00079  1.006111  -0.001  0.130753  -0.000665  1.00306  -0.001  0.114952  0.125621  -0.000869  1.008192  -0.001
H  H26  1  0.77492952  0.51584494  0.72308270  1  0.114789  -0.001155  0.940568  -0.001  0.127931  -0.00079  1.00612  -0.001  0.130895  -0.000665  1.003069  -0.001  0.114955  0.125754  -0.00087  1.008203  -0.001
H  H27  1  0.22507264  0.98414790  0.22308131  1  0.114719  0.001156  0.9406  0.001  0.127868  0.000791  1.006154  0.001  0.130821  0.000665  1.003103  0.001  0.114956  0.125694  0.00087  1.008235  0.001
H  H28  1  0.42016183  0.58174585  0.30123220  1  0.098362  0.001082  0.943103  0.001  0.116494  0.000864  1.001441  0.001  0.117  0.000733  1.002481  0.001  0.110523  0.115981  0.000929  1.000714  0.001
H  H29  1  0.57983470  0.91827469  0.80123663  1  0.098226  -0.001082  0.943238  -0.001  0.116376  -0.000864  1.001551  -0.001  0.116879  -0.000733  1.00259  -0.001  0.110506  0.115864  -0.00093  1.00082  -0.001
H  H30  1  0.57983509  0.41824745  0.69876845  1  0.098332  -0.001082  0.943136  -0.001  0.116491  -0.000864  1.00145  -0.001  0.116996  -0.000733  1.002488  -0.001  0.110496  0.115955  -0.000929  1.000747  -0.001
H  H31  1  0.42015921  0.08173701  0.19876598  1  0.098328  0.001082  0.943187  0.001  0.116461  0.000864  1.001523  0.001  0.116962  0.000733  1.002562  0.001  0.110537  0.115951  0.000929  1.00079  0.001
H  H32  1  0.13847380  0.98769047  0.36156239  1  0.110445  0.000262  0.963023  0.001  0.11579  0.000252  1.027705  0.001  0.119593  0.000173  1.024935  0.001  0.128276  0.112857  0.000335  1.030088  0.001
H  H33  1  0.86153490  0.51230304  0.86156344  1  0.11051  -0.000263  0.962993  -0.001  0.11585  -0.000252  1.027639  -0.001  0.119654  -0.000173  1.024861  -0.001  0.128301  0.112923  -0.000335  1.030021  -0.001
H  H34  1  0.86151040  0.01230483  0.63843368  1  0.110415  -0.000262  0.963218  -0.001  0.11583  -0.000251  1.027734  -0.001  0.119632  -0.000173  1.02496  -0.001  0.128304  0.112895  -0.000335  1.030119  -0.001
H  H35  1  0.13848005  0.48768521  0.13843459  1  0.110458  0.000262  0.96312  0.001  0.115829  0.000251  1.027731  0.001  0.119631  0.000173  1.024959  0.001  0.128329  0.112903  0.000335  1.03011  0.001
H  H36  1  0.95046415  0.79562672  0.59095348  1  0.118561  0.000413  0.957504  0.001  0.121957  0.000292  1.023612  0.001  0.126888  0.000171  1.019194  0.001  0.128175  0.118475  0.000442  1.026548  0.001
H  H37  1  0.04952920  0.70436120  0.09095477  1  0.118398  -0.000412  0.95762  -0.001  0.121971  -0.000292  1.023523  -0.001  0.12689  -0.000172  1.019116  -0.001  0.12811  0.118493  -0.000442  1.026457  -0.001
H  H38  1  0.04951433  0.20436446  0.40904129  1  0.11849  -0.000413  0.95759  -0.001  0.12198  -0.000292  1.023627  -0.001  0.126923  -0.000172  1.019174  -0.001  0.128133  0.118498  -0.000442  1.026563  -0.001
H  H39  1  0.95048501  0.29562910  0.90904718  1  0.118607  0.000412  0.957531  0.001  0.122076  0.000292  1.023562  0.001  0.127017  0.000172  1.019129  0.001  0.128172  0.1186  0.000442  1.026495  0.001
H  H40  1  0.34714005  0.05328951  0.58654601  1  0.04547  -3e-05  0.932371  0.0  0.058184  -1e-05  1.002133  0.0  0.058477  -1.4e-05  1.002233  0.0  0.092838  0.058067  -5e-06  1.002016  0.0
H  H41  1  0.65285970  0.44671720  0.08654962  1  0.045441  3e-05  0.932492  0.0  0.058125  1e-05  1.002266  0.0  0.058418  1.4e-05  1.002367  0.0  0.092807  0.058018  4e-06  1.002144  0.0
H  H42  1  0.65285030  0.94671706  0.41345333  1  0.04545  3e-05  0.932435  0.0  0.058143  1e-05  1.002258  0.0  0.058427  1.4e-05  1.002365  0.0  0.0928  0.058029  5e-06  1.002136  0.0
H  H43  1  0.34714747  0.55328432  0.91345821  1  0.045381  -3e-05  0.932382  0.0  0.058127  -1e-05  1.002119  0.0  0.058415  -1.4e-05  1.00223  0.0  0.092804  0.058016  -5e-06  1.001998  0.0
H  H44  1  0.52549793  0.05720862  0.65278481  1  0.078392  -2.2e-05  0.917808  0.0  0.09694  -6.1e-05  0.972327  0.0  0.097625  -3.6e-05  0.972327  0.0  0.110833  0.096339  -8.5e-05  0.972494  0.0
H  H45  1  0.47449791  0.44279028  0.15278989  1  0.078451  2.1e-05  0.917963  0.0  0.097024  6.1e-05  0.9724  0.0  0.097709  3.5e-05  0.972401  0.0  0.110876  0.096431  8.5e-05  0.972565  0.0
H  H46  1  0.47449265  0.94279897  0.34721127  1  0.078459  2.1e-05  0.917899  0.0  0.097044  6.1e-05  0.972375  0.0  0.097729  3.5e-05  0.972374  0.0  0.110872  0.096446  8.5e-05  0.972535  0.0
H  H47  1  0.52550926  0.55721124  0.84721533  1  0.0784  -2.2e-05  0.917898  0.0  0.096929  -6.1e-05  0.972432  0.0  0.097614  -3.6e-05  0.972432  0.0  0.110843  0.096337  -8.5e-05  0.972589  0.0
H  H48  1  0.60176928  0.86899188  0.56878053  1  0.055709  -0.000182  0.96451  0.0  0.066385  -0.000251  1.038768  0.0  0.067678  -0.000145  1.037238  0.0  0.094001  0.065482  -0.000339  1.039841  0.0
H  H49  1  0.39822346  0.63100784  0.06878488  1  0.055855  0.000181  0.964564  0.0  0.066543  0.000251  1.038811  0.0  0.067808  0.000145  1.037312  0.0  0.094024  0.065635  0.000339  1.039879  0.0
H  H50  1  0.39822250  0.13101572  0.43121424  1  0.055858  0.000183  0.964509  0.0  0.066532  0.000251  1.03875  0.0  0.067808  0.000145  1.037246  0.0  0.094033  0.065616  0.000338  1.039819  0.0
H  H51  1  0.60178994  0.36899472  0.93121969  1  0.055815  -0.000183  0.964476  0.0  0.066501  -0.000251  1.038706  0.0  0.067768  -0.000145  1.037204  0.0  0.093994  0.065593  -0.000338  1.039775  0.0
H  H52  1  0.39237656  0.81680328  0.59890154  1  0.080059  -0.000154  0.926266  0.0  0.096728  -0.000122  0.984304  0.0  0.097801  -0.00011  0.983789  0.0  0.107882  0.095946  -0.00013  0.984615  0.0
H  H53  1  0.60761005  0.68319771  0.09890450  1  0.080079  0.000155  0.926297  0.0  0.096766  0.000122  0.984304  0.0  0.097842  0.00011  0.983782  0.0  0.107881  0.095989  0.00013  0.98461  0.0
H  H54  1  0.60761596  0.18320227  0.40109519  1  0.080027  0.000155  0.926303  0.0  0.096716  0.000122  0.984296  0.0  0.097795  0.00011  0.983778  0.0  0.10786  0.095934  0.000131  0.984602  0.0
H  H55  1  0.39239569  0.31680278  0.90109877  1  0.080067  -0.000154  0.926251  0.0  0.096752  -0.000122  0.984245  0.0  0.097831  -0.00011  0.983724  0.0  0.107898  0.095979  -0.00013  0.984551  0.0
C  C56  1  0.17346062  0.55008439  0.59401800  1  0.339376  -0.004226  3.84857  -0.009  0.328014  0.001024  4.116547  -0.002  0.350107  -3.8e-05  4.13213  -0.003  0.090686  0.313028  0.001994  4.106262  -0.002
C  C57  1  0.82654840  0.94991476  0.09401559  1  0.339261  0.004214  3.848708  0.009  0.327924  -0.001024  4.116659  0.002  0.350015  3.8e-05  4.132244  0.003  0.090629  0.312938  -0.001997  4.106378  0.002
C  C58  1  0.82652996  0.44992320  0.40598330  1  0.339401  0.004219  3.848939  0.009  0.328068  -0.001026  4.116863  0.002  0.350159  3.6e-05  4.132449  0.003  0.090653  0.313078  -0.001996  4.106577  0.002
C  C59  1  0.17347126  0.05008374  0.90598310  1  0.339235  -0.004223  3.848747  -0.009  0.327932  0.001025  4.116597  -0.002  0.35002  -3.7e-05  4.132174  -0.003  0.090618  0.312944  0.002  4.106312  -0.002
C  C60  1  0.14397518  0.51948633  0.68414915  1  -0.217842  0.014135  3.725579  0.015  -0.235657  0.007494  3.980978  0.009  -0.246441  0.005585  4.000675  0.007  -0.114397  -0.228269  0.008881  3.967561  0.01
C  C61  1  0.85603112  0.98050648  0.18414699  1  -0.217691  -0.01412  3.725366  -0.015  -0.235493  -0.007493  3.980718  -0.009  -0.246273  -0.005584  4.000421  -0.007  -0.114283  -0.228099  -0.00888  3.967281  -0.01
C  C62  1  0.85601587  0.48052332  0.31585476  1  -0.217887  -0.014128  3.725795  -0.015  -0.235658  -0.007493  3.981215  -0.009  -0.246445  -0.005583  4.000914  -0.007  -0.114364  -0.228267  -0.008883  3.9678  -0.01
C  C63  1  0.14398093  0.01948483  0.81585366  1  -0.217842  0.014134  3.725722  0.015  -0.235649  0.007493  3.981095  0.009  -0.24643  0.005583  4.000778  0.007  -0.114364  -0.228259  0.008882  3.967668  0.01
C  C64  1  0.19386838  0.40906113  0.72310864  1  -0.017214  -0.004895  3.788685  -0.004  -0.036439  -0.000931  4.044911  -0.001  -0.031511  -0.001319  4.064342  -0.001  -0.08819  -0.039689  -0.000601  4.031805  0.0
C  C65  1  0.80613592  0.09093197  0.22310831  1  -0.01732  0.004877  3.788501  0.004  -0.036572  0.000931  4.044791  0.001  -0.031648  0.001319  4.064231  0.001  -0.088235  -0.039818  0.000605  4.031662  0.0
C  C66  1  0.80612290  0.59094953  0.27689658  1  -0.017133  0.004885  3.788966  0.004  -0.036381  0.000931  4.0452  0.001  -0.031449  0.001317  4.064634  0.001  -0.088292  -0.039634  0.000609  4.032088  0.0
C  C67  1  0.19387180  0.90906137  0.77689626  1  -0.017275  -0.00489  3.788903  -0.004  -0.036496  -0.000931  4.045154  -0.001  -0.031569  -0.001318  4.064585  -0.001  -0.088247  -0.039743  -0.000607  4.032026  0.0
C  C68  1  0.27727663  0.32360568  0.67499345  1  -0.12795  0.00114  3.821119  0.001  -0.145231  -0.000297  4.084124  0.0  -0.153186  -3.5e-05  4.107764  0.0  -0.118436  -0.139728  -0.000448  4.068001  0.0
C  C69  1  0.72272979  0.17639373  0.17499401  1  -0.127813  -0.001126  3.821273  -0.001  -0.145126  0.000297  4.084253  0.0  -0.153081  3.5e-05  4.107894  0.0  -0.118412  -0.139621  0.000449  4.068135  0.0
C  C70  1  0.72271511  0.67640703  0.32500981  1  -0.127991  -0.001136  3.821512  -0.001  -0.145333  0.000295  4.084548  0.0  -0.153292  3.7e-05  4.108199  0.0  -0.118303  -0.139825  0.000445  4.068423  0.0
C  C71  1  0.27728388  0.82360474  0.82500729  1  -0.12771  0.00114  3.821168  0.001  -0.145031  -0.000296  4.084174  0.0  -0.152993  -3.6e-05  4.107839  0.0  -0.118318  -0.139526  -0.000447  4.068052  0.0
C  C72  1  0.30660888  0.35042009  0.58710467  1  -0.080984  -0.005497  3.782725  -0.005  -0.108058  -0.001503  4.044914  -0.002  -0.10531  -0.001596  4.068143  -0.002  -0.092504  -0.109584  -0.001408  4.029156  -0.001
C  C73  1  0.69339694  0.14957640  0.08710561  1  -0.081071  0.005479  3.782714  0.005  -0.108126  0.001503  4.044916  0.002  -0.105386  0.001596  4.068145  0.002  -0.092466  -0.109656  0.001409  4.02917  0.001
C  C74  1  0.69337594  0.64958850  0.41289924  1  -0.080849  0.005487  3.78253  0.005  -0.108037  0.001504  4.044756  0.002  -0.105294  0.001594  4.067965  0.002  -0.092595  -0.109564  0.001407  4.029004  0.001
C  C75  1  0.30662706  0.85042007  0.91289635  1  -0.080919  -0.005494  3.782531  -0.005  -0.108073  -0.001503  4.044742  -0.002  -0.105368  -0.001595  4.067951  -0.002  -0.092459  -0.109602  -0.001408  4.028994  -0.001
C  C76  1  0.25524403  0.46086845  0.54444124  1  -0.129788  0.008857  3.820706  0.011  -0.116108  0.004224  4.073408  0.006  -0.132957  0.00311  4.101348  0.005  -0.040325  -0.105673  0.005144  4.055333  0.007
C  C77  1  0.74475831  0.03913114  0.04444035  1  -0.129794  -0.008845  3.820738  -0.011  -0.116143  -0.004225  4.07346  -0.006  -0.132987  -0.00311  4.10139  -0.005  -0.040361  -0.105709  -0.005143  4.055393  -0.007
C  C78  1  0.74474558  0.53914016  0.45555875  1  -0.129781  -0.008852  3.820727  -0.011  -0.116145  -0.004224  4.073514  -0.006  -0.132995  -0.003109  4.101464  -0.005  -0.040299  -0.105714  -0.005142  4.055445  -0.007
C  C79  1  0.25526279  0.96086839  0.95555768  1  -0.129697  0.008857  3.820683  0.011  -0.116027  0.004223  4.073351  0.006  -0.132877  0.00311  4.101309  0.005  -0.040365  -0.105598  0.005143  4.055291  0.007
C  C80  1  0.28701272  0.47659957  0.45245131  1  0.174286  -0.01822  3.667409  -0.018  0.131007  -0.004509  3.928167  -0.006  0.153386  -0.006169  3.937512  -0.008  0.07976  0.116638  -0.002945  3.922103  -0.004
C  C81  1  0.71298116  0.02339903  0.95245291  1  0.174276  0.018203  3.667592  0.018  0.131007  0.004507  3.928369  0.006  0.153389  0.006168  3.937707  0.008  0.079785  0.116639  0.002944  3.922311  0.004
C  C82  1  0.71297910  0.52340291  0.54754999  1  0.174362  0.01821  3.667384  0.018  0.131096  0.004508  3.928163  0.006  0.153475  0.006169  3.93751  0.008  0.079769  0.116729  0.002947  3.922097  0.004
C  C83  1  0.28702988  0.97659842  0.04754839  1  0.174198  -0.018212  3.667527  -0.018  0.130966  -0.004509  3.928238  -0.006  0.153337  -0.006168  3.937592  -0.008  0.079749  0.116597  -0.002946  3.922176  -0.004
C  C84  1  0.28838256  0.57723133  0.31073772  1  -0.156525  0.00504  3.695632  0.003  -0.212627  0.004188  3.949793  0.002  -0.213066  0.002791  3.959963  0.001  -0.074539  -0.211873  0.005141  3.94316  0.003
C  C85  1  0.71161676  0.92277568  0.81073892  1  -0.156284  -0.00504  3.695442  -0.003  -0.212354  -0.004187  3.94958  -0.002  -0.212779  -0.002788  3.959734  -0.001  -0.074522  -0.2116  -0.005139  3.942937  -0.003
C  C86  1  0.71161313  0.42276708  0.68926358  1  -0.156604  -0.005042  3.695838  -0.003  -0.212706  -0.00419  3.949973  -0.002  -0.213148  -0.002791  3.960148  -0.001  -0.074535  -0.211936  -0.00514  3.94335  -0.003
C  C87  1  0.28838848  0.07722788  0.18926303  1  -0.156617  0.005038  3.695798  0.003  -0.212705  0.004187  3.95  0.002  -0.213124  0.002789  3.960151  0.001  -0.074621  -0.211952  0.005138  3.943354  0.003
C  C88  1  0.24407504  0.70395212  0.26875762  1  0.661561  -0.003429  3.874643  -0.006  0.622688  0.000695  4.178037  -0.001  0.658027  0.000419  4.171902  -0.001  0.200854  0.598639  0.000956  4.180954  -0.001
C  C89  1  0.75591468  0.79604158  0.76875391  1  0.661484  0.003426  3.874823  0.005  0.62257  -0.000695  4.178254  0.001  0.657904  -0.00042  4.172118  0.001  0.200843  0.598525  -0.000957  4.181166  0.001
C  C90  1  0.75592927  0.29604734  0.73124041  1  0.661644  0.003428  3.874477  0.005  0.62274  -0.000694  4.177925  0.001  0.65808  -0.000419  4.171789  0.001  0.200869  0.598696  -0.000954  4.180834  0.001
C  C91  1  0.24407842  0.20395068  0.23124804  1  0.661629  -0.003424  3.874876  -0.005  0.622678  0.000696  4.178368  -0.001  0.658006  0.000421  4.172241  -0.001  0.200795  0.598634  0.000956  4.181278  -0.001
C  C92  1  0.07593113  0.99339316  0.42325753  1  0.082285  -0.011427  3.633906  -0.012  0.056125  -0.00361  3.884133  -0.005  0.06069  -0.004453  3.897882  -0.006  0.0588  0.052265  -0.002652  3.877036  -0.004
C  C93  1  0.92407464  0.50660187  0.92325835  1  0.082299  0.011453  3.634038  0.012  0.056218  0.003609  3.884152  0.005  0.060795  0.004453  3.897882  0.006  0.058818  0.052359  0.002652  3.877063  0.004
C  C94  1  0.92404924  0.00660110  0.57673855  1  0.082429  0.011427  3.634077  0.012  0.056332  0.00361  3.8841  0.005  0.060908  0.004453  3.897832  0.006  0.058915  0.05249  0.002651  3.876968  0.004
C  C95  1  0.07594557  0.49338844  0.07673772  1  0.08242  -0.011454  3.633956  -0.012  0.056211  -0.00361  3.884135  -0.005  0.060789  -0.004453  3.897865  -0.006  0.058817  0.052348  -0.002652  3.877041  -0.004
C  C96  1  0.97273429  0.88699913  0.55036312  1  0.078764  -0.011148  3.636392  -0.011  0.053891  -0.003523  3.886517  -0.004  0.058657  -0.004523  3.899199  -0.006  0.058386  0.050107  -0.002686  3.879183  -0.003
C  C97  1  0.02726130  0.61299083  0.05036469  1  0.078766  0.011174  3.636417  0.011  0.053855  0.003522  3.886413  0.004  0.05863  0.004524  3.899112  0.006  0.058393  0.050081  0.002688  3.879074  0.003
C  C98  1  0.02724036  0.11299102  0.44963034  1  0.078914  0.011148  3.636746  0.011  0.053996  0.003523  3.886748  0.004  0.058762  0.004523  3.899452  0.006  0.058516  0.050219  0.002688  3.879402  0.003
C  C99  1  0.97275554  0.38700050  0.94963400  1  0.078593  -0.011174  3.636678  -0.011  0.053643  -0.003522  3.886722  -0.004  0.058402  -0.004524  3.899414  -0.006  0.058336  0.049872  -0.002686  3.879371  -0.003
C  C100  1  0.47417546  0.03605833  0.58704564  1  0.052824  6.6e-05  3.642704  0.0  -0.001846  2.5e-05  3.911148  0.0  0.004565  4.6e-05  3.916202  0.0  -0.077994  -0.006125  -1.2e-05  3.907475  0.0
C  C101  1  0.52582359  0.46394530  0.08705030  1  0.052762  -6.5e-05  3.643156  0.0  -0.001847  -2.6e-05  3.911501  0.0  0.004564  -4.5e-05  3.916552  0.0  -0.077987  -0.006137  1.3e-05  3.907836  0.0
C  C102  1  0.52581752  0.96394927  0.41295044  1  0.05266  -6.7e-05  3.642948  0.0  -0.00214  -2.6e-05  3.911538  0.0  0.004284  -4.6e-05  3.916585  0.0  -0.078092  -0.006425  1.2e-05  3.90787  0.0
C  C103  1  0.47418455  0.53605520  0.91295427  1  0.052959  6.7e-05  3.642746  0.0  -0.001792  2.5e-05  3.911239  0.0  0.004621  4.6e-05  3.916295  0.0  -0.077959  -0.006067  -1.2e-05  3.907557  0.0
C  C104  1  0.47821785  0.89048053  0.55991579  1  0.036903  -0.000449  3.645852  0.0  -0.022069  -0.000501  3.917992  0.0  -0.015431  -0.000349  3.921495  0.0  -0.084832  -0.026419  -0.000619  3.915318  0.0
C  C105  1  0.52177434  0.60952145  0.05991915  1  0.03667  0.000451  3.646126  0.0  -0.022346  0.000501  3.918175  0.0  -0.015693  0.000349  3.921702  0.0  -0.084882  -0.026675  0.000619  3.915487  0.0
C  C106  1  0.52177130  0.10952603  0.44008029  1  0.036806  0.00045  3.6459  0.0  -0.022092  0.0005  3.917884  0.0  -0.015463  0.000349  3.921439  0.0  -0.08481  -0.026416  0.000619  3.915178  0.0
C  C107  1  0.47823906  0.39048112  0.94008608  1  0.036719  -0.00045  3.645906  0.0  -0.022186  -0.0005  3.917913  0.0  -0.015538  -0.000349  3.921446  0.0  -0.084852  -0.026518  -0.000619  3.915213  0.0
N  N108  1  0.24749017  0.57094052  0.40324705  1  -0.297444  0.110665  3.323364  0.133  -0.24494  0.069696  3.633771  0.089  -0.278676  0.059817  3.651613  0.081  -0.387279  -0.226384  0.073438  3.624417  0.091
N  N109  1  0.75251210  0.92906420  0.90325128  1  -0.297398  -0.110651  3.323325  -0.133  -0.244939  -0.069697  3.63375  -0.089  -0.27868  -0.059817  3.651587  -0.081  -0.387323  -0.226392  -0.073438  3.624414  -0.091
N  N110  1  0.75249902  0.42906093  0.59675294  1  -0.297444  -0.110668  3.323233  -0.133  -0.244959  -0.069703  3.633668  -0.089  -0.278703  -0.059822  3.65151  -0.081  -0.387267  -0.226396  -0.073451  3.624308  -0.091
N  N111  1  0.24751144  0.07093022  0.09675328  1  -0.297169  0.110676  3.323155  0.133  -0.244727  0.069703  3.633573  0.089  -0.278466  0.059821  3.651394  0.081  -0.387205  -0.226159  0.073449  3.624228  0.091
N  N112  1  0.04901174  0.88063439  0.47361456  1  -0.242447  0.053468  3.31834  0.064  -0.193272  0.040841  3.607149  0.052  -0.211922  0.036737  3.620971  0.049  -0.329905  -0.183436  0.042616  3.60058  0.052
N  N113  1  0.95098417  0.61935731  0.97361554  1  -0.242435  -0.053496  3.318369  -0.064  -0.193296  -0.040843  3.607154  -0.052  -0.211955  -0.03674  3.620976  -0.049  -0.329815  -0.183466  -0.042617  3.600595  -0.052
N  N114  1  0.95096291  0.11935576  0.52637759  1  -0.242674  -0.053468  3.318706  -0.064  -0.193478  -0.040841  3.607476  -0.052  -0.212138  -0.036738  3.621296  -0.049  -0.330034  -0.183636  -0.042611  3.600906  -0.052
N  N115  1  0.04903077  0.38063095  0.02638184  1  -0.242413  0.053498  3.31856  0.064  -0.193129  0.040846  3.607298  0.052  -0.211792  0.036744  3.621114  0.049  -0.329895  -0.183276  0.042617  3.60073  0.052
O  O116  1  0.12507632  0.65744801  0.56176797  1  -0.558156  0.114691  2.118344  0.146  -0.534655  0.073106  2.41659  0.103  -0.58071  0.05644  2.415539  0.084  -0.335827  -0.504254  0.082841  2.416896  0.112
O  O117  1  0.87492929  0.84254989  0.06176699  1  -0.558087  -0.114692  2.118285  -0.146  -0.534619  -0.073101  2.416552  -0.103  -0.58068  -0.056436  2.415505  -0.084  -0.335797  -0.504223  -0.082837  2.416854  -0.112
O  O118  1  0.87490780  0.34255751  0.43823137  1  -0.558123  -0.114689  2.118384  -0.146  -0.534672  -0.073099  2.416678  -0.103  -0.58073  -0.056436  2.415613  -0.084  -0.335766  -0.504285  -0.082835  2.417042  -0.112
O  O119  1  0.12509614  0.15744761  0.93823366  1  -0.558097  0.114667  2.118434  0.146  -0.534579  0.073092  2.4166  0.103  -0.58067  0.056432  2.415611  0.084  -0.335731  -0.504198  0.082821  2.417003  0.112
O  O120  1  0.17633551  0.78218756  0.31896751  1  -0.618856  0.08762  2.060257  0.112  -0.585886  0.063173  2.345035  0.088  -0.627299  0.050631  2.336049  0.075  -0.336474  -0.558431  0.070641  2.351013  0.095
O  O121  1  0.82366612  0.71780903  0.81897337  1  -0.618989  -0.087632  2.060094  -0.112  -0.58603  -0.063176  2.344944  -0.088  -0.627453  -0.050634  2.335962  -0.075  -0.336566  -0.55858  -0.070646  2.350917  -0.095
O  O122  1  0.82366041  0.21781187  0.68102791  1  -0.618894  -0.087615  2.060265  -0.112  -0.585926  -0.063167  2.345086  -0.088  -0.627345  -0.050627  2.336092  -0.075  -0.33649  -0.558463  -0.070635  2.351055  -0.095
O  O123  1  0.17634179  0.28219045  0.18102727  1  -0.619075  0.087642  2.060018  0.112  -0.586106  0.063181  2.344867  0.088  -0.627536  0.050637  2.335876  0.075  -0.336575  -0.558617  0.070657  2.350808  0.095
O  O124  1  0.27456169  0.72790609  0.18995853  1  -0.60721  0.015914  1.914139  0.019  -0.567268  0.009092  2.138958  0.011  -0.594169  0.004732  2.132041  0.006  -0.321862  -0.546816  0.013993  2.141797  0.017
O  O125  1  0.72542333  0.77209365  0.68996955  1  -0.606989  -0.01589  1.91474  -0.019  -0.566991  -0.009084  2.139522  -0.011  -0.593882  -0.004729  2.132611  -0.006  -0.321697  -0.546542  -0.013975  2.142357  -0.017
O  O126  1  0.72545751  0.27209036  0.81004081  1  -0.607194  -0.015917  1.913943  -0.019  -0.567257  -0.009093  2.138797  -0.011  -0.594157  -0.004733  2.131882  -0.006  -0.321843  -0.546803  -0.013994  2.141628  -0.017
O  O127  1  0.27455290  0.22790878  0.31002784  1  -0.607014  0.015899  1.914803  0.019  -0.567009  0.009088  2.139638  0.011  -0.593904  0.004731  2.132727  0.006  -0.321648  -0.546555  0.013983  2.142466  0.017
O  O128  1  0.57258358  0.13255900  0.52962887  1  -0.331695  0.001259  2.288035  0.0  -0.271598  0.00109  2.558516  0.0  -0.290087  0.001099  2.55837  0.0  -0.238164  -0.25894  0.001058  2.558458  0.0
O  O129  1  0.42741832  0.36744300  0.02963289  1  -0.33161  -0.001258  2.288084  0.0  -0.271588  -0.00109  2.558613  0.0  -0.290077  -0.001099  2.558454  0.0  -0.238168  -0.258919  -0.00106  2.558566  0.0
O  O130  1  0.42740124  0.86744959  0.47036851  1  -0.331651  -0.001259  2.288092  0.0  -0.271478  -0.001089  2.55861  0.0  -0.289969  -0.001099  2.558462  0.0  -0.238139  -0.258821  -0.001059  2.558566  0.0
O  O131  1  0.57259055  0.63255546  0.97037103  1  -0.331707  0.001259  2.287991  0.0  -0.271538  0.00109  2.558494  0.0  -0.290035  0.001098  2.558353  0.0  -0.238178  -0.258888  0.00106  2.558451  0.0
