# generated using pymatgen
data_TbH12C9NO10
_symmetry_space_group_name_H-M   'P 1'
_cell_length_a   7.25255725
_cell_length_b   11.60290556
_cell_length_c   18.53344431
_cell_angle_alpha   99.02881807
_cell_angle_beta   90.00061990
_cell_angle_gamma   89.99868176
_symmetry_Int_Tables_number   1
_chemical_formula_structural   TbH12C9NO10
_chemical_formula_sum   'Tb4 H48 C36 N4 O40'
_cell_volume   1540.27878610
_cell_formula_units_Z   4
loop_
 _symmetry_equiv_pos_site_id
 _symmetry_equiv_pos_as_xyz
  1  'x, y, z'
loop_
 _atom_site_type_symbol
 _atom_site_label
 _atom_site_symmetry_multiplicity
 _atom_site_fract_x
 _atom_site_fract_y
 _atom_site_fract_z
 _atom_site_occupancy
 _atom_site_hle17_bader_spin_density
 _atom_site_hle17_ddec_charge
 _atom_site_hle17_ddec_spin_density
 _atom_site_hle17_ddec_sum_bond_order
 _atom_site_hle17_magmom
 _atom_site_hse06_10hf_bader_spin_density
 _atom_site_hse06_10hf_ddec_charge
 _atom_site_hse06_10hf_ddec_spin_density
 _atom_site_hse06_10hf_ddec_sum_bond_order
 _atom_site_hse06_10hf_magmom
 _atom_site_hse06_bader_spin_density
 _atom_site_hse06_ddec_charge
 _atom_site_hse06_ddec_spin_density
 _atom_site_hse06_ddec_sum_bond_order
 _atom_site_hse06_magmom
 _atom_site_pbe_bader_spin_density
 _atom_site_pbe_cm5_charge
 _atom_site_pbe_ddec_charge
 _atom_site_pbe_ddec_spin_density
 _atom_site_pbe_ddec_sum_bond_order
 _atom_site_pbe_magmom
Tb  Tb0  1  0.25651033  0.30167913  0.36700540  1  0  2.30644  0  1.595627  0  0  2.235292  0  1.921633  0  0  2.277853  0  1.881599  0  0  1.493539  2.128331  0  2.090245  0
Tb  Tb1  1  0.75652027  0.19831427  0.13298775  1  0  2.306379  0  1.595622  0  0  2.235218  0  1.921644  0  0  2.277782  0  1.881606  0  0  1.493503  2.128203  0  2.090308  0
Tb  Tb2  1  0.74348106  0.69832105  0.63299236  1  0  2.30642  0  1.595597  0  0  2.235285  0  1.921606  0  0  2.277857  0  1.881567  0  0  1.493525  2.128399  0  2.090119  0
Tb  Tb3  1  0.24348491  0.80168162  0.86701233  1  0  2.30641  0  1.595612  0  0  2.235271  0  1.921625  0  0  2.277829  0  1.881587  0  0  1.493538  2.128353  0  2.090166  0
H  H4  1  0.99407143  0.13142598  0.27853266  1  0  0.431072  0  0.871886  0  0  0.401162  0  0.934434  0  0  0.411919  0  0.918629  0  0  0.297173  0.393413  0  0.945406  0
H  H5  1  0.49407158  0.36856514  0.22146396  1  0  0.431049  0  0.871932  0  0  0.401157  0  0.93445  0  0  0.411915  0  0.918642  0  0  0.297168  0.393406  0  0.945429  0
H  H6  1  0.00591307  0.86857693  0.72146965  1  0  0.431153  0  0.871777  0  0  0.401253  0  0.934314  0  0  0.412009  0  0.918508  0  0  0.297249  0.393502  0  0.94529  0
H  H7  1  0.50592946  0.63144023  0.77853263  1  0  0.431011  0  0.871989  0  0  0.401129  0  0.934488  0  0  0.411885  0  0.918685  0  0  0.297166  0.393379  0  0.945464  0
H  H8  1  0.15300570  0.06728751  0.31880417  1  0  0.425495  0  0.885452  0  0  0.394094  0  0.94973  0  0  0.406783  0  0.931345  0  0  0.287278  0.385267  0  0.962207  0
H  H9  1  0.65300551  0.43270575  0.18119609  1  0  0.425538  0  0.885373  0  0  0.394063  0  0.949759  0  0  0.406752  0  0.931376  0  0  0.287267  0.385241  0  0.96223  0
H  H10  1  0.84698156  0.93271619  0.68119498  1  0  0.425417  0  0.885546  0  0  0.394057  0  0.949769  0  0  0.406748  0  0.931382  0  0  0.287261  0.385233  0  0.962237  0
H  H11  1  0.34702173  0.56729284  0.81880746  1  0  0.425464  0  0.885466  0  0  0.393995  0  0.949854  0  0  0.406682  0  0.931471  0  0  0.287218  0.385169  0  0.962328  0
H  H12  1  0.87300633  0.42765948  0.36106430  1  0  0.454067  0  0.7896  0  0  0.440726  0  0.835078  0  0  0.448886  0  0.823528  0  0  0.341956  0.434179  0  0.841872  0
H  H13  1  0.37302209  0.07232969  0.13892734  1  0  0.45396  0  0.789619  0  0  0.440628  0  0.835084  0  0  0.448786  0  0.823633  0  0  0.341882  0.434075  0  0.841877  0
H  H14  1  0.12696576  0.57233204  0.63893539  1  0  0.453936  0  0.789649  0  0  0.440599  0  0.835119  0  0  0.448757  0  0.823679  0  0  0.341903  0.434049  0  0.841906  0
H  H15  1  0.62698861  0.92766533  0.86107266  1  0  0.453934  0  0.789714  0  0  0.440608  0  0.835154  0  0  0.448763  0  0.823677  0  0  0.34191  0.434057  0  0.841948  0
H  H16  1  0.92182288  0.33895630  0.28970247  1  0  0.446492  0  0.851638  0  0  0.414608  0  0.916617  0  0  0.426183  0  0.899678  0  0  0.310245  0.406392  0  0.928273  0
H  H17  1  0.42183317  0.16103997  0.21028676  1  0  0.446586  0  0.851516  0  0  0.414685  0  0.916508  0  0  0.426277  0  0.899551  0  0  0.310309  0.406467  0  0.928164  0
H  H18  1  0.07816989  0.66104909  0.71029467  1  0  0.446471  0  0.851683  0  0  0.414557  0  0.916693  0  0  0.426152  0  0.899733  0  0  0.31021  0.406343  0  0.928342  0
H  H19  1  0.57816236  0.83895938  0.78971254  1  0  0.446585  0  0.851527  0  0  0.414689  0  0.916507  0  0  0.426284  0  0.899547  0  0  0.310308  0.406474  0  0.928159  0
H  H20  1  0.27381082  0.54532601  0.32177508  1  0  0.455561  0  0.795621  0  0  0.438472  0  0.839449  0  0  0.446782  0  0.827296  0  0  0.337247  0.431846  0  0.848993  0
H  H21  1  0.77382904  0.95467948  0.17822116  1  0  0.455551  0  0.79562  0  0  0.438449  0  0.83948  0  0  0.446758  0  0.827329  0  0  0.337299  0.431811  0  0.849042  0
H  H22  1  0.72618333  0.45466632  0.67822199  1  0  0.455583  0  0.795557  0  0  0.438498  0  0.839408  0  0  0.446806  0  0.827259  0  0  0.337262  0.431869  0  0.848954  0
H  H23  1  0.22617752  0.04531814  0.82177853  1  0  0.455573  0  0.795576  0  0  0.438471  0  0.839448  0  0  0.446779  0  0.827296  0  0  0.337308  0.431831  0  0.84901  0
H  H24  1  0.28012661  0.56875778  0.40989264  1  0  0.445128  0  0.848867  0  0  0.413879  0  0.910811  0  0  0.424136  0  0.895844  0  0  0.303157  0.406221  0  0.921855  0
H  H25  1  0.78013226  0.93123545  0.09010415  1  0  0.44511  0  0.848869  0  0  0.413892  0  0.910777  0  0  0.424145  0  0.895816  0  0  0.303179  0.406232  0  0.921825  0
H  H26  1  0.71989098  0.43123714  0.59010357  1  0  0.445088  0  0.84891  0  0  0.41389  0  0.910789  0  0  0.424142  0  0.895829  0  0  0.303131  0.406231  0  0.921834  0
H  H27  1  0.21985914  0.06876041  0.90989484  1  0  0.445171  0  0.848798  0  0  0.413945  0  0.910717  0  0  0.424196  0  0.895762  0  0  0.303186  0.406283  0  0.921766  0
H  H28  1  0.18256110  0.47944964  0.49639198  1  0  0.427411  0  0.87505  0  0  0.395331  0  0.940267  0  0  0.407087  0  0.922856  0  0  0.298221  0.386691  0  0.952881  0
H  H29  1  0.68256443  0.02054223  0.00360396  1  0  0.42736  0  0.875085  0  0  0.395322  0  0.940259  0  0  0.407068  0  0.922849  0  0  0.298277  0.386679  0  0.952879  0
H  H30  1  0.81743029  0.52055053  0.50360523  1  0  0.427392  0  0.875073  0  0  0.395307  0  0.940302  0  0  0.407063  0  0.92289  0  0  0.298222  0.386664  0  0.952922  0
H  H31  1  0.31744213  0.97945619  0.99639310  1  0  0.427378  0  0.875076  0  0  0.39532  0  0.940302  0  0  0.407056  0  0.922896  0  0  0.298252  0.386676  0  0.952924  0
H  H32  1  0.02185822  0.38117790  0.49587837  1  0  0.434283  0  0.864125  0  0  0.402766  0  0.928926  0  0  0.413402  0  0.91328  0  0  0.301339  0.395177  0  0.939754  0
H  H33  1  0.52186895  0.11882125  0.00411215  1  0  0.434246  0  0.864187  0  0  0.402742  0  0.92896  0  0  0.413375  0  0.913326  0  0  0.301381  0.395146  0  0.939794  0
H  H34  1  0.97813593  0.61882224  0.50411776  1  0  0.434295  0  0.864119  0  0  0.402771  0  0.928924  0  0  0.413412  0  0.913276  0  0  0.301353  0.395187  0  0.939738  0
H  H35  1  0.47813899  0.88117716  0.99588437  1  0  0.434216  0  0.864222  0  0  0.402702  0  0.929015  0  0  0.413338  0  0.913375  0  0  0.301351  0.395116  0  0.939836  0
H  H36  1  0.26758733  0.82642916  0.43836964  1  0  0.109478  0  0.935094  0  0  0.119281  0  0.995209  0  0  0.123431  0  0.991357  0  0  0.114037  0.11616  0  0.99821  0
H  H37  1  0.76759072  0.67356791  0.06163499  1  0  0.109446  0  0.935178  0  0  0.119248  0  0.995286  0  0  0.123398  0  0.991434  0  0  0.114045  0.116116  0  0.998287  0
H  H38  1  0.73239303  0.17357718  0.56163082  1  0  0.109449  0  0.935138  0  0  0.119282  0  0.995224  0  0  0.123433  0  0.991371  0  0  0.114017  0.116151  0  0.998225  0
H  H39  1  0.23244480  0.32642893  0.93836840  1  0  0.109626  0  0.934985  0  0  0.119284  0  0.995258  0  0  0.12343  0  0.991405  0  0  0.113962  0.116157  0  0.99826  0
H  H40  1  0.18145003  0.20811814  0.65243135  1  0  0.121072  0  0.935503  0  0  0.139497  0  0.994162  0  0  0.142122  0  0.99206  0  0  0.093903  0.13753  0  0.995857  0
H  H41  1  0.68146788  0.29189558  0.84756564  1  0  0.121059  0  0.935511  0  0  0.139488  0  0.994177  0  0  0.142116  0  0.992067  0  0  0.093886  0.137526  0  0.995883  0
H  H42  1  0.81854826  0.79189264  0.34757220  1  0  0.121029  0  0.935503  0  0  0.13948  0  0.994137  0  0  0.142105  0  0.992035  0  0  0.093924  0.137519  0  0.995832  0
H  H43  1  0.31852765  0.70810732  0.15243614  1  0  0.121118  0  0.935537  0  0  0.139547  0  0.994177  0  0  0.142173  0  0.992069  0  0  0.093933  0.137575  0  0.995889  0
H  H44  1  0.07237559  0.20783298  0.56538221  1  0  0.123325  0  0.952371  0  0  0.142857  0  1.015619  0  0  0.144483  0  1.014986  0  0  0.096037  0.141569  0  1.016454  0
H  H45  1  0.57238892  0.29217167  0.93461083  1  0  0.12329  0  0.952192  0  0  0.142806  0  1.015494  0  0  0.144431  0  1.01486  0  0  0.096024  0.141515  0  1.01634  0
H  H46  1  0.92762407  0.79216994  0.43462065  1  0  0.123317  0  0.952275  0  0  0.142828  0  1.015553  0  0  0.144453  0  1.014923  0  0  0.09604  0.141542  0  1.01639  0
H  H47  1  0.42760799  0.70784255  0.06539141  1  0  0.123367  0  0.952249  0  0  0.142842  0  1.015558  0  0  0.144467  0  1.014926  0  0  0.096022  0.141547  0  1.016405  0
H  H48  1  0.30804374  0.23832891  0.57396246  1  0  0.133383  0  0.931172  0  0  0.154046  0  0.988228  0  0  0.156086  0  0.987029  0  0  0.099951  0.152493  0  0.989392  0
H  H49  1  0.80806762  0.26167521  0.92603312  1  0  0.133365  0  0.931214  0  0  0.15405  0  0.988254  0  0  0.156087  0  0.987061  0  0  0.100004  0.152501  0  0.989422  0
H  H50  1  0.69195178  0.76167051  0.42603954  1  0  0.13351  0  0.931229  0  0  0.154152  0  0.988292  0  0  0.156197  0  0.987083  0  0  0.100019  0.152597  0  0.989468  0
H  H51  1  0.19192791  0.73832678  0.07396749  1  0  0.133412  0  0.931067  0  0  0.154088  0  0.988114  0  0  0.156123  0  0.986924  0  0  0.100005  0.152534  0  0.98928  0
C  C52  1  0.23889631  0.05806513  0.57480368  1  0  0.336917  0  3.657483  0  0  0.337398  0  3.910311  0  0  0.348133  0  3.927873  0  0  0.142206  0.330224  0  3.898933  0
C  C53  1  0.73891073  0.44193833  0.92519749  1  0  0.337062  0  3.657481  0  0  0.337537  0  3.91036  0  0  0.34827  0  3.927927  0  0  0.142226  0.330355  0  3.898996  0
C  C54  1  0.76108956  0.94193177  0.42520188  1  0  0.337075  0  3.65742  0  0  0.33769  0  3.910226  0  0  0.34843  0  3.927783  0  0  0.142336  0.330501  0  3.898867  0
C  C55  1  0.26111238  0.55806710  0.07480127  1  0  0.337071  0  3.657537  0  0  0.337575  0  3.91042  0  0  0.34831  0  3.927985  0  0  0.14216  0.330397  0  3.899047  0
C  C56  1  0.24552252  0.99559384  0.50269502  1  0  -0.166226  0  3.662059  0  0  -0.147307  0  3.900007  0  0  -0.160531  0  3.923843  0  0  -0.012463  -0.139538  0  3.885469  0
C  C57  1  0.74553581  0.50440439  0.99730766  1  0  -0.166369  0  3.661974  0  0  -0.147496  0  3.899982  0  0  -0.160728  0  3.92383  0  0  -0.012486  -0.139719  0  3.885432  0
C  C58  1  0.75445233  0.00440826  0.49730992  1  0  -0.166168  0  3.661587  0  0  -0.147658  0  3.899949  0  0  -0.160888  0  3.923787  0  0  -0.012555  -0.139873  0  3.885407  0
C  C59  1  0.25450798  0.49559327  0.00269365  1  0  -0.166085  0  3.661928  0  0  -0.147379  0  3.900051  0  0  -0.160609  0  3.92389  0  0  -0.012304  -0.1396  0  3.885507  0
C  C60  1  0.27046342  0.87495644  0.49370249  1  0  -0.010132  0  3.70001  0  0  -0.052018  0  3.960269  0  0  -0.046088  0  3.976773  0  0  -0.057463  -0.055672  0  3.949543  0
C  C61  1  0.77048777  0.62504321  0.00630239  1  0  -0.009985  0  3.69987  0  0  -0.051879  0  3.960159  0  0  -0.045954  0  3.976679  0  0  -0.057485  -0.055531  0  3.949421  0
C  C62  1  0.72951005  0.12504644  0.50629874  1  0  -0.01006  0  3.699548  0  0  -0.051881  0  3.95991  0  0  -0.045954  0  3.976422  0  0  -0.057486  -0.055535  0  3.949169  0
C  C63  1  0.22955464  0.37495439  0.99369676  1  0  -0.010204  0  3.699742  0  0  -0.05195  0  3.960004  0  0  -0.046018  0  3.976514  0  0  -0.057308  -0.055609  0  3.949276  0
C  C64  1  0.30400104  0.81824438  0.55338509  1  0  -0.139972  0  3.742854  0  0  -0.132285  0  3.99989  0  0  -0.142319  0  4.01964  0  0  -0.010999  -0.125538  0  3.985875  0
C  C65  1  0.80403395  0.68175319  0.94662264  1  0  -0.139864  0  3.742647  0  0  -0.132147  0  3.999572  0  0  -0.142191  0  4.01935  0  0  -0.01097  -0.1254  0  3.985557  0
C  C66  1  0.69597518  0.18175418  0.44661738  1  0  -0.139885  0  3.742512  0  0  -0.132164  0  3.999431  0  0  -0.142207  0  4.019205  0  0  -0.010882  -0.125408  0  3.98543  0
C  C67  1  0.19599191  0.31824972  0.05337968  1  0  -0.14  0  3.742674  0  0  -0.13221  0  3.999496  0  0  -0.142253  0  4.019267  0  0  -0.011093  -0.125459  0  3.985486  0
C  C68  1  0.30419647  0.88863318  0.62244045  1  0  0.103589  0  3.737513  0  0  0.098116  0  3.994515  0  0  0.103803  0  4.008158  0  0  0.128892  0.094462  0  3.985587  0
C  C69  1  0.80422045  0.61136868  0.87756496  1  0  0.103624  0  3.737314  0  0  0.098067  0  3.994451  0  0  0.103748  0  4.008094  0  0  0.128912  0.094413  0  3.985547  0
C  C70  1  0.69578389  0.11136360  0.37756025  1  0  0.103739  0  3.737288  0  0  0.098249  0  3.994314  0  0  0.103936  0  4.007955  0  0  0.12895  0.094556  0  3.985466  0
C  C71  1  0.19578748  0.38863246  0.12243612  1  0  0.103666  0  3.737271  0  0  0.098138  0  3.994286  0  0  0.103812  0  4.007929  0  0  0.128904  0.094481  0  3.985385  0
C  C72  1  0.19805619  0.18566256  0.59316965  1  0  -0.366875  0  3.70225  0  0  -0.448962  0  3.938532  0  0  -0.45135  0  3.94349  0  0  -0.241384  -0.447321  0  3.9357  0
C  C73  1  0.69807207  0.31434396  0.90682731  1  0  -0.366839  0  3.702139  0  0  -0.448932  0  3.938488  0  0  -0.451318  0  3.94345  0  0  -0.241423  -0.447304  0  3.935689  0
C  C74  1  0.80193244  0.81434129  0.40683545  1  0  -0.367008  0  3.702441  0  0  -0.44909  0  3.938697  0  0  -0.451476  0  3.943646  0  0  -0.24151  -0.447448  0  3.935883  0
C  C75  1  0.30193311  0.68565628  0.09317261  1  0  -0.367053  0  3.702394  0  0  -0.449089  0  3.938703  0  0  -0.451477  0  3.943667  0  0  -0.241467  -0.447459  0  3.935903  0
C  C76  1  0.22709595  0.04974312  0.43428761  1  0  0.691009  0  3.875114  0  0  0.641378  0  4.175157  0  0  0.675377  0  4.16856  0  0  0.220378  0.618227  0  4.176254  0
C  C77  1  0.72710437  0.45025172  0.06571201  1  0  0.691036  0  3.875067  0  0  0.641482  0  4.174997  0  0  0.675483  0  4.168399  0  0  0.220413  0.618322  0  4.176107  0
C  C78  1  0.77288165  0.95025454  0.56571370  1  0  0.69109  0  3.874854  0  0  0.641715  0  4.174632  0  0  0.675715  0  4.168022  0  0  0.220517  0.618555  0  4.175738  0
C  C79  1  0.27294770  0.54973271  0.93428273  1  0  0.690645  0  3.875328  0  0  0.641152  0  4.175221  0  0  0.675152  0  4.168631  0  0  0.220174  0.617993  0  4.176328  0
C  C80  1  0.33360938  0.68882644  0.54082945  1  0  0.726282  0  3.839398  0  0  0.669199  0  4.147763  0  0  0.704616  0  4.13663  0  0  0.236956  0.644547  0  4.153242  0
C  C81  1  0.83362681  0.81117066  0.95917566  1  0  0.725914  0  3.839785  0  0  0.66903  0  4.147831  0  0  0.704437  0  4.136716  0  0  0.236882  0.644376  0  4.153318  0
C  C82  1  0.66636823  0.31117021  0.45916638  1  0  0.726047  0  3.839902  0  0  0.669054  0  4.148114  0  0  0.704456  0  4.136998  0  0  0.23688  0.644404  0  4.153585  0
C  C83  1  0.16638527  0.18883400  0.04082681  1  0  0.72604  0  3.839321  0  0  0.669076  0  4.147461  0  0  0.704479  0  4.136345  0  0  0.236888  0.644406  0  4.152968  0
C  C84  1  0.35095554  0.84551708  0.69285422  1  0  0.714523  0  3.802601  0  0  0.659741  0  4.102638  0  0  0.694831  0  4.089153  0  0  0.255331  0.635037  0  4.107444  0
C  C85  1  0.85097737  0.65448767  0.80715326  1  0  0.714583  0  3.802085  0  0  0.659792  0  4.102228  0  0  0.694908  0  4.088715  0  0  0.255329  0.635055  0  4.107092  0
C  C86  1  0.64903172  0.15447797  0.30714740  1  0  0.714469  0  3.802322  0  0  0.659609  0  4.102487  0  0  0.694699  0  4.089006  0  0  0.255233  0.634891  0  4.10733  0
C  C87  1  0.14901678  0.34551250  0.19284396  1  0  0.714568  0  3.802193  0  0  0.659738  0  4.102341  0  0  0.69486  0  4.088807  0  0  0.255278  0.635004  0  4.107197  0
N  N88  1  0.26592446  0.00286025  0.63266735  1  0  -0.359891  0  3.008541  0  0  -0.340532  0  3.273545  0  0  -0.351757  0  3.28387  0  0  -0.315589  -0.333389  0  3.267199  0
N  N89  1  0.76594076  0.49714550  0.86733576  1  0  -0.360001  0  3.008721  0  0  -0.340632  0  3.273802  0  0  -0.351859  0  3.284134  0  0  -0.315602  -0.3335  0  3.267485  0
N  N90  1  0.73406142  0.99714008  0.36733636  1  0  -0.360074  0  3.008517  0  0  -0.340709  0  3.273482  0  0  -0.351936  0  3.283806  0  0  -0.315621  -0.33356  0  3.267174  0
N  N91  1  0.23406718  0.50285994  0.13266354  1  0  -0.360031  0  3.00827  0  0  -0.340646  0  3.273283  0  0  -0.351872  0  3.283612  0  0  -0.315593  -0.333513  0  3.266968  0
O  O92  1  0.24502971  0.16117379  0.44056923  1  0  -0.77189  0  2.05795  0  0  -0.728751  0  2.318226  0  0  -0.755962  0  2.310235  0  0  -0.427884  -0.697495  0  2.325302  0
O  O93  1  0.74502830  0.33882424  0.05942859  1  0  -0.771858  0  2.058016  0  0  -0.728761  0  2.318289  0  0  -0.755966  0  2.310286  0  0  -0.427864  -0.697496  0  2.325372  0
O  O94  1  0.75495616  0.83883175  0.55943386  1  0  -0.771955  0  2.058312  0  0  -0.728846  0  2.318432  0  0  -0.756096  0  2.310525  0  0  -0.427969  -0.697611  0  2.325524  0
O  O95  1  0.25498929  0.66117154  0.94056716  1  0  -0.771918  0  2.057866  0  0  -0.72881  0  2.318057  0  0  -0.755996  0  2.309999  0  0  -0.427899  -0.697552  0  2.325138  0
O  O96  1  0.19791435  0.98262714  0.37490167  1  0  -0.593848  0  1.90895  0  0  -0.544417  0  2.112057  0  0  -0.568562  0  2.10281  0  0  -0.309185  -0.528014  0  2.118237  0
O  O97  1  0.69792526  0.51737259  0.12510129  1  0  -0.593915  0  1.908734  0  0  -0.544448  0  2.111778  0  0  -0.568596  0  2.102532  0  0  -0.309237  -0.528054  0  2.117975  0
O  O98  1  0.80206601  0.01738112  0.62510544  1  0  -0.593935  0  1.908464  0  0  -0.544547  0  2.111406  0  0  -0.568693  0  2.102161  0  0  -0.30923  -0.528142  0  2.11758  0
O  O99  1  0.30214748  0.48262514  0.87490272  1  0  -0.593559  0  1.909124  0  0  -0.544067  0  2.112101  0  0  -0.568213  0  2.102858  0  0  -0.309038  -0.527673  0  2.118291  0
O  O100  1  0.21969422  0.62788589  0.49688476  1  0  -0.685417  0  2.012063  0  0  -0.608965  0  2.222722  0  0  -0.636412  0  2.209836  0  0  -0.308623  -0.590724  0  2.232804  0
O  O101  1  0.71970244  0.87211264  0.00311711  1  0  -0.685307  0  2.012194  0  0  -0.608959  0  2.222767  0  0  -0.636382  0  2.209859  0  0  -0.308651  -0.590722  0  2.232865  0
O  O102  1  0.78029441  0.37211511  0.50311091  1  0  -0.685472  0  2.012092  0  0  -0.609104  0  2.222746  0  0  -0.636516  0  2.209829  0  0  -0.308711  -0.590861  0  2.232833  0
O  O103  1  0.28030550  0.12788843  0.99688127  1  0  -0.685352  0  2.011942  0  0  -0.608986  0  2.22257  0  0  -0.636398  0  2.209647  0  0  -0.308619  -0.590744  0  2.232676  0
O  O104  1  0.46493257  0.64431105  0.57150730  1  0  -0.691337  0  1.99782  0  0  -0.654  0  2.247571  0  0  -0.67752  0  2.234512  0  0  -0.380762  -0.626974  0  2.259633  0
O  O105  1  0.96494476  0.85568506  0.92849503  1  0  -0.691154  0  1.997998  0  0  -0.65386  0  2.247633  0  0  -0.677389  0  2.234589  0  0  -0.380729  -0.626842  0  2.259713  0
O  O106  1  0.53505054  0.35568299  0.42848829  1  0  -0.691197  0  1.998176  0  0  -0.653857  0  2.247865  0  0  -0.677382  0  2.234821  0  0  -0.38075  -0.626828  0  2.259933  0
O  O107  1  0.03506869  0.14432217  0.07150605  1  0  -0.691224  0  1.997854  0  0  -0.653917  0  2.247549  0  0  -0.677439  0  2.234495  0  0  -0.380756  -0.626868  0  2.259611  0
O  O108  1  0.51228016  0.80530399  0.69933721  1  0  -0.724965  0  2.139889  0  0  -0.672017  0  2.384654  0  0  -0.698975  0  2.373649  0  0  -0.381427  -0.642215  0  2.392544  0
O  O109  1  0.01228892  0.69469746  0.80066695  1  0  -0.724911  0  2.139748  0  0  -0.671952  0  2.384533  0  0  -0.69891  0  2.373503  0  0  -0.381346  -0.642136  0  2.392446  0
O  O110  1  0.48770848  0.19469190  0.30066286  1  0  -0.724907  0  2.139688  0  0  -0.671961  0  2.38454  0  0  -0.698928  0  2.373557  0  0  -0.381332  -0.642137  0  2.392439  0
O  O111  1  0.98770937  0.30530966  0.19932981  1  0  -0.724831  0  2.139797  0  0  -0.67186  0  2.384568  0  0  -0.698821  0  2.373548  0  0  -0.381296  -0.642028  0  2.392476  0
O  O112  1  0.23502034  0.85874872  0.74465983  1  0  -0.696274  0  2.097135  0  0  -0.642284  0  2.335051  0  0  -0.66805  0  2.323106  0  0  -0.34482  -0.615841  0  2.344655  0
O  O113  1  0.73502746  0.64125667  0.75534453  1  0  -0.696344  0  2.096973  0  0  -0.642386  0  2.33493  0  0  -0.668188  0  2.323001  0  0  -0.344874  -0.615936  0  2.344553  0
O  O114  1  0.76496829  0.14124638  0.25534342  1  0  -0.696248  0  2.096938  0  0  -0.642191  0  2.334849  0  0  -0.667964  0  2.322914  0  0  -0.344785  -0.615724  0  2.344456  0
O  O115  1  0.26497220  0.35873568  0.24465308  1  0  -0.696371  0  2.096922  0  0  -0.642357  0  2.334835  0  0  -0.668143  0  2.322891  0  0  -0.344844  -0.615898  0  2.344457  0
O  O116  1  0.12629761  0.13642994  0.29219171  1  0  -0.940672  0  1.873702  0  0  -0.901103  0  2.061121  0  0  -0.920341  0  2.027721  0  0  -0.663461  -0.877612  0  2.088848  0
O  O117  1  0.62629658  0.36356190  0.20780724  1  0  -0.940649  0  1.873635  0  0  -0.901049  0  2.061142  0  0  -0.92029  0  2.027741  0  0  -0.663441  -0.877555  0  2.088872  0
O  O118  1  0.87368965  0.86357114  0.70780721  1  0  -0.940663  0  1.873622  0  0  -0.901161  0  2.061021  0  0  -0.920397  0  2.027619  0  0  -0.663537  -0.877682  0  2.088746  0
O  O119  1  0.37370998  0.63643833  0.79219268  1  0  -0.940592  0  1.873803  0  0  -0.900983  0  2.061267  0  0  -0.92022  0  2.027864  0  0  -0.663394  -0.877501  0  2.088991  0
O  O120  1  0.93867668  0.35554621  0.34389788  1  0  -0.914935  0  1.870277  0  0  -0.881292  0  2.062849  0  0  -0.899198  0  2.03141  0  0  -0.623211  -0.858333  0  2.088678  0
O  O121  1  0.43868748  0.14444636  0.15609163  1  0  -0.914827  0  1.870065  0  0  -0.881199  0  2.062786  0  0  -0.899122  0  2.031393  0  0  -0.62318  -0.858232  0  2.08862  0
O  O122  1  0.06131472  0.64445482  0.65609887  1  0  -0.914725  0  1.870266  0  0  -0.88105  0  2.062947  0  0  -0.898977  0  2.031556  0  0  -0.623109  -0.858102  0  2.088761  0
O  O123  1  0.56131356  0.85555213  0.84390814  1  0  -0.914812  0  1.870168  0  0  -0.881193  0  2.062909  0  0  -0.899116  0  2.03147  0  0  -0.62321  -0.858238  0  2.088737  0
O  O124  1  0.29742856  0.51031427  0.36516293  1  0  -0.913106  0  1.841925  0  0  -0.874774  0  2.012048  0  0  -0.890781  0  1.980141  0  0  -0.630937  -0.853567  0  2.040912  0
O  O125  1  0.79745395  0.98968131  0.13483307  1  0  -0.913106  0  1.841889  0  0  -0.874785  0  2.012024  0  0  -0.890789  0  1.980111  0  0  -0.631036  -0.853573  0  2.040921  0
O  O126  1  0.70258903  0.48968150  0.63483228  1  0  -0.913082  0  1.841851  0  0  -0.87479  0  2.011928  0  0  -0.890793  0  1.980025  0  0  -0.630943  -0.853594  0  2.040791  0
O  O127  1  0.20254571  0.01031458  0.86516701  1  0  -0.913183  0  1.841819  0  0  -0.874844  0  2.011968  0  0  -0.89085  0  1.980057  0  0  -0.631052  -0.853647  0  2.040866  0
O  O128  1  0.15223525  0.39504734  0.48355235  1  0  -0.910057  0  1.866108  0  0  -0.869227  0  2.054003  0  0  -0.888141  0  2.02068  0  0  -0.649591  -0.845592  0  2.082347  0
O  O129  1  0.65225097  0.10495000  0.01643693  1  0  -0.910029  0  1.866147  0  0  -0.869218  0  2.053942  0  0  -0.888126  0  2.020648  0  0  -0.649719  -0.845567  0  2.082314  0
O  O130  1  0.84775614  0.60495375  0.51644656  1  0  -0.910036  0  1.866088  0  0  -0.869158  0  2.053943  0  0  -0.888077  0  2.020612  0  0  -0.649599  -0.845526  0  2.082287  0
O  O131  1  0.34775421  0.89504848  0.98356229  1  0  -0.910035  0  1.866115  0  0  -0.869246  0  2.053916  0  0  -0.888137  0  2.02066  0  0  -0.649691  -0.845616  0  2.082263  0
