# generated using pymatgen
data_CdH32C34(NO)4
_symmetry_space_group_name_H-M   'P 1'
_cell_length_a   8.89371792
_cell_length_b   11.89886849
_cell_length_c   15.92785876
_cell_angle_alpha   99.61842524
_cell_angle_beta   90.00711112
_cell_angle_gamma   111.98930797
_symmetry_Int_Tables_number   1
_chemical_formula_structural   CdH32C34(NO)4
_chemical_formula_sum   'Cd2 H64 C68 N8 O8'
_cell_volume   1537.35149407
_cell_formula_units_Z   2
loop_
 _symmetry_equiv_pos_site_id
 _symmetry_equiv_pos_as_xyz
  1  'x, y, z'
loop_
 _atom_site_type_symbol
 _atom_site_label
 _atom_site_symmetry_multiplicity
 _atom_site_fract_x
 _atom_site_fract_y
 _atom_site_fract_z
 _atom_site_occupancy
 _atom_site_hle17_bader_spin_density
 _atom_site_hle17_ddec_charge
 _atom_site_hle17_ddec_spin_density
 _atom_site_hle17_ddec_sum_bond_order
 _atom_site_hle17_magmom
 _atom_site_hse06_10hf_bader_spin_density
 _atom_site_hse06_10hf_ddec_charge
 _atom_site_hse06_10hf_ddec_spin_density
 _atom_site_hse06_10hf_ddec_sum_bond_order
 _atom_site_hse06_10hf_magmom
 _atom_site_hse06_bader_spin_density
 _atom_site_hse06_ddec_charge
 _atom_site_hse06_ddec_spin_density
 _atom_site_hse06_ddec_sum_bond_order
 _atom_site_hse06_magmom
 _atom_site_pbe_bader_spin_density
 _atom_site_pbe_cm5_charge
 _atom_site_pbe_ddec_charge
 _atom_site_pbe_ddec_spin_density
 _atom_site_pbe_ddec_sum_bond_order
 _atom_site_pbe_magmom
Cd  Cd0  1  0.81318082  0.99981852  0.74996643  1  0  1.085418  0  1.698795  0  0  0.89627  0  2.147896  0  0  0.954424  0  2.097027  0  0  0.767567  0.855745  0  2.181947  0
Cd  Cd1  1  0.18680335  0.00016955  0.25003598  1  0  1.085419  0  1.698827  0  0  0.896258  0  2.147951  0  0  0.954412  0  2.097086  0  0  0.767588  0.855748  0  2.182002  0
H  H2  1  0.94429056  0.82399386  0.79360562  1  0  0.135379  0  0.942738  0  0  0.156278  0  1.00188  0  0  0.158024  0  1.001306  0  0  0.10292  0.155042  0  1.002376  0
H  H3  1  0.12026053  0.17531739  0.70626273  1  0  0.134951  0  0.943624  0  0  0.15611  0  1.002434  0  0  0.157903  0  1.0018  0  0  0.102832  0.154873  0  1.002922  0
H  H4  1  0.05570251  0.17600528  0.20639629  1  0  0.135395  0  0.942746  0  0  0.156302  0  1.001882  0  0  0.158047  0  1.00131  0  0  0.102936  0.155065  0  1.002378  0
H  H5  1  0.87974907  0.82469004  0.29374022  1  0  0.134962  0  0.943591  0  0  0.156182  0  1.002333  0  0  0.157976  0  1.001697  0  0  0.102855  0.154946  0  1.002825  0
H  H6  1  0.03740492  0.79690710  0.88242532  1  0  0.127939  0  0.969571  0  0  0.145378  0  1.034134  0  0  0.146607  0  1.035963  0  0  0.099403  0.14455  0  1.032818  0
H  H7  1  0.24048419  0.20263348  0.61744759  1  0  0.127599  0  0.969776  0  0  0.145043  0  1.034374  0  0  0.146236  0  1.036237  0  0  0.099338  0.144205  0  1.033118  0
H  H8  1  0.96259173  0.20309019  0.11758076  1  0  0.12788  0  0.969703  0  0  0.14539  0  1.034178  0  0  0.146619  0  1.036007  0  0  0.099395  0.144562  0  1.032861  0
H  H9  1  0.75951906  0.79737026  0.38255239  1  0  0.127572  0  0.969789  0  0  0.145027  0  1.034383  0  0  0.146221  0  1.036245  0  0  0.09933  0.14419  0  1.033129  0
H  H10  1  0.15684442  0.85749091  0.79944317  1  0  0.137366  0  0.943034  0  0  0.157511  0  1.000484  0  0  0.159084  0  1.001466  0  0  0.101669  0.156572  0  0.999448  0
H  H11  1  0.29940065  0.14201092  0.70035658  1  0  0.137323  0  0.941638  0  0  0.157455  0  0.999186  0  0  0.158975  0  1.000226  0  0  0.101802  0.156578  0  0.998108  0
H  H12  1  0.84314906  0.14250453  0.20056017  1  0  0.137382  0  0.943035  0  0  0.157522  0  1.000498  0  0  0.159095  0  1.001479  0  0  0.101653  0.156583  0  0.999461  0
H  H13  1  0.70060142  0.85798822  0.29964220  1  0  0.137367  0  0.941687  0  0  0.157471  0  0.999274  0  0  0.158992  0  1.000316  0  0  0.101799  0.156594  0  0.998199  0
H  H14  1  0.96517835  0.28683864  0.87065686  1  0  0.110871  0  0.959112  0  0  0.121674  0  1.017411  0  0  0.124499  0  1.01616  0  0  0.103895  0.119523  0  1.018627  0
H  H15  1  0.67730262  0.71272760  0.62912476  1  0  0.110682  0  0.959192  0  0  0.121334  0  1.017675  0  0  0.124161  0  1.016424  0  0  0.103793  0.119177  0  1.018911  0
H  H16  1  0.03482545  0.71315496  0.12934499  1  0  0.110903  0  0.959171  0  0  0.121694  0  1.01747  0  0  0.124519  0  1.016219  0  0  0.103864  0.119539  0  1.018698  0
H  H17  1  0.32270057  0.28727155  0.37087277  1  0  0.110756  0  0.959279  0  0  0.12139  0  1.017755  0  0  0.124217  0  1.016505  0  0  0.103831  0.119234  0  1.018991  0
H  H18  1  0.10858737  0.46177677  0.99077501  1  0  0.077342  0  0.970889  0  0  0.09065  0  1.029973  0  0  0.093183  0  1.028803  0  0  0.09362  0.088803  0  1.030889  0
H  H19  1  0.64554716  0.53763171  0.50916519  1  0  0.077486  0  0.97124  0  0  0.090346  0  1.030862  0  0  0.092918  0  1.029646  0  0  0.093483  0.088558  0  1.031652  0
H  H20  1  0.89140743  0.53821683  0.00922559  1  0  0.077308  0  0.970873  0  0  0.09061  0  1.029978  0  0  0.093124  0  1.028828  0  0  0.093579  0.088761  0  1.030892  0
H  H21  1  0.35446059  0.46237203  0.49083605  1  0  0.077553  0  0.971145  0  0  0.090349  0  1.03085  0  0  0.092922  0  1.029632  0  0  0.093478  0.088556  0  1.031644  0
H  H22  1  0.29391635  0.44273616  0.09768040  1  0  0.083938  0  0.98601  0  0  0.094962  0  1.046331  0  0  0.096807  0  1.047216  0  0  0.093412  0.093555  0  1.045873  0
H  H23  1  0.84993609  0.55663108  0.40226158  1  0  0.083843  0  0.985011  0  0  0.094834  0  1.045472  0  0  0.096685  0  1.04635  0  0  0.093117  0.093409  0  1.045104  0
H  H24  1  0.70608889  0.55726482  0.90232175  1  0  0.083924  0  0.986005  0  0  0.094923  0  1.04636  0  0  0.096765  0  1.047249  0  0  0.093383  0.093514  0  1.0459  0
H  H25  1  0.15006108  0.44337175  0.59773704  1  0  0.083798  0  0.985027  0  0  0.094806  0  1.04548  0  0  0.096661  0  1.046351  0  0  0.093105  0.093381  0  1.045116  0
H  H26  1  0.34438392  0.24866550  0.09064894  1  0  0.122755  0  0.987104  0  0  0.129564  0  1.051709  0  0  0.13389  0  1.048408  0  0  0.104107  0.126364  0  1.054216  0
H  H27  1  0.09474554  0.75086196  0.40922691  1  0  0.12232  0  0.986585  0  0  0.128816  0  1.05177  0  0  0.133116  0  1.048516  0  0  0.104057  0.125638  0  1.054276  0
H  H28  1  0.65561637  0.75133456  0.90935121  1  0  0.122662  0  0.987174  0  0  0.129519  0  1.051712  0  0  0.133841  0  1.048422  0  0  0.104098  0.126319  0  1.054221  0
H  H29  1  0.90525071  0.24913902  0.59077210  1  0  0.12226  0  0.986516  0  0  0.128773  0  1.051687  0  0  0.133071  0  1.048438  0  0  0.104027  0.125595  0  1.054192  0
H  H30  1  0.21462807  0.89256356  0.98857774  1  0  0.074318  0  0.929169  0  0  0.092421  0  0.987549  0  0  0.092564  0  0.988598  0  0  0.111007  0.092224  0  0.987114  0
H  H31  1  0.32186090  0.10709469  0.51152615  1  0  0.073846  0  0.930301  0  0  0.09209  0  0.988702  0  0  0.092202  0  0.989726  0  0  0.110981  0.09196  0  0.988227  0
H  H32  1  0.78537267  0.10743743  0.01141939  1  0  0.074336  0  0.929208  0  0  0.092427  0  0.987569  0  0  0.092569  0  0.988623  0  0  0.111018  0.092229  0  0.987134  0
H  H33  1  0.67814316  0.89290168  0.48847354  1  0  0.073813  0  0.930307  0  0  0.092037  0  0.988719  0  0  0.092151  0  0.989743  0  0  0.110969  0.091905  0  0.988246  0
H  H34  1  0.27824586  0.02760402  0.06713544  1  0  0.086373  0  0.94853  0  0  0.098907  0  1.015752  0  0  0.099764  0  1.015505  0  0  0.111395  0.098092  0  1.016457  0
H  H35  1  0.25052447  0.97216617  0.43282841  1  0  0.086713  0  0.948755  0  0  0.098974  0  1.016437  0  0  0.099807  0  1.016162  0  0  0.111384  0.098188  0  1.017159  0
H  H36  1  0.72175377  0.97239696  0.93286294  1  0  0.086534  0  0.94842  0  0  0.099007  0  1.01569  0  0  0.099863  0  1.015447  0  0  0.111447  0.098201  0  1.016373  0
H  H37  1  0.74947258  0.02782743  0.56717156  1  0  0.086756  0  0.948723  0  0  0.098949  0  1.016477  0  0  0.099784  0  1.016202  0  0  0.11137  0.098161  0  1.017196  0
H  H38  1  0.51576008  0.12749631  0.98375778  1  0  0.068482  0  0.929463  0  0  0.088594  0  0.988418  0  0  0.089326  0  0.988367  0  0  0.091918  0.087782  0  0.988775  0
H  H39  1  0.38819161  0.87230569  0.51602197  1  0  0.068882  0  0.929195  0  0  0.089158  0  0.988045  0  0  0.089903  0  0.987932  0  0  0.092137  0.088379  0  0.988332  0
H  H40  1  0.48423756  0.87250745  0.01623593  1  0  0.068577  0  0.929476  0  0  0.088684  0  0.98836  0  0  0.089416  0  0.988296  0  0  0.091952  0.087874  0  0.98872  0
H  H41  1  0.61180907  0.12769068  0.48397960  1  0  0.068908  0  0.929158  0  0  0.089189  0  0.988027  0  0  0.08993  0  0.987918  0  0  0.09216  0.088409  0  0.988313  0
H  H42  1  0.45646140  0.99358778  0.90525192  1  0  0.086147  0  0.931863  0  0  0.10368  0  0.989588  0  0  0.104715  0  0.990059  0  0  0.094234  0.102651  0  0.989554  0
H  H43  1  0.46270879  0.00604097  0.59475142  1  0  0.086046  0  0.931495  0  0  0.10383  0  0.989232  0  0  0.104811  0  0.989779  0  0  0.09409  0.102801  0  0.989198  0
H  H44  1  0.54353465  0.00641505  0.09474481  1  0  0.086199  0  0.931827  0  0  0.103699  0  0.989556  0  0  0.104722  0  0.990034  0  0  0.094231  0.102671  0  0.989527  0
H  H45  1  0.53729037  0.99395909  0.40524748  1  0  0.086087  0  0.931456  0  0  0.103828  0  0.989263  0  0  0.104808  0  0.989814  0  0  0.09411  0.1028  0  0.989229  0
H  H46  1  0.38893593  0.69247323  0.87156999  1  0  0.094755  0  0.955782  0  0  0.105126  0  1.017283  0  0  0.10843  0  1.015126  0  0  0.10284  0.102803  0  1.018775  0
H  H47  1  0.69675168  0.30767875  0.62832928  1  0  0.094389  0  0.955873  0  0  0.105149  0  1.016873  0  0  0.108412  0  1.01475  0  0  0.10284  0.102825  0  1.018349  0
H  H48  1  0.61105679  0.30753420  0.12843108  1  0  0.094683  0  0.955735  0  0  0.105043  0  1.01726  0  0  0.108345  0  1.015102  0  0  0.102799  0.10272  0  1.018752  0
H  H49  1  0.30325025  0.69232684  0.37166591  1  0  0.094407  0  0.955854  0  0  0.105161  0  1.016863  0  0  0.108413  0  1.014751  0  0  0.10285  0.102838  0  1.018336  0
H  H50  1  0.10532738  0.54510622  0.88013181  1  0  0.079595  0  0.976634  0  0  0.090905  0  1.037545  0  0  0.093289  0  1.037184  0  0  0.096307  0.089281  0  1.03776  0
H  H51  1  0.56042113  0.45476272  0.61990980  1  0  0.079801  0  0.977218  0  0  0.090977  0  1.038303  0  0  0.093344  0  1.03798  0  0  0.096186  0.089351  0  1.038509  0
H  H52  1  0.89465987  0.45489474  0.11987912  1  0  0.079698  0  0.976896  0  0  0.091008  0  1.037783  0  0  0.093389  0  1.037423  0  0  0.096349  0.089385  0  1.037997  0
H  H53  1  0.43957962  0.54523827  0.38008544  1  0  0.079883  0  0.977203  0  0  0.091061  0  1.038272  0  0  0.093427  0  1.037952  0  0  0.096222  0.089436  0  1.038474  0
H  H54  1  0.89871376  0.49464063  0.75986357  1  0  0.084465  0  0.976312  0  0  0.094294  0  1.038  0  0  0.096202  0  1.038536  0  0  0.096297  0.092662  0  1.038222  0
H  H55  1  0.40445679  0.50504440  0.74024718  1  0  0.085219  0  0.974944  0  0  0.094809  0  1.036797  0  0  0.096725  0  1.037328  0  0  0.096623  0.093188  0  1.03699  0
H  H56  1  0.10127646  0.50536403  0.24014155  1  0  0.084413  0  0.976257  0  0  0.094226  0  1.037967  0  0  0.096133  0  1.038507  0  0  0.096302  0.092622  0  1.038162  0
H  H57  1  0.59554911  0.49495566  0.25975109  1  0  0.085262  0  0.975028  0  0  0.09486  0  1.036861  0  0  0.096773  0  1.037389  0  0  0.096638  0.093241  0  1.037055  0
H  H58  1  0.97553076  0.59198016  0.63117101  1  0  0.086766  0  0.966409  0  0  0.095718  0  1.029055  0  0  0.097562  0  1.030438  0  0  0.097514  0.094404  0  1.028196  0
H  H59  1  0.38463206  0.40791673  0.86903537  1  0  0.086358  0  0.966927  0  0  0.095485  0  1.029218  0  0  0.097321  0  1.030597  0  0  0.09768  0.09422  0  1.028279  0
H  H60  1  0.02445346  0.40801252  0.36883387  1  0  0.086736  0  0.966434  0  0  0.095641  0  1.029143  0  0  0.097481  0  1.030525  0  0  0.097477  0.094324  0  1.028285  0
H  H61  1  0.61537411  0.59208610  0.13096261  1  0  0.086341  0  0.96688  0  0  0.095462  0  1.029193  0  0  0.097293  0  1.030583  0  0  0.09769  0.094197  0  1.028252  0
H  H62  1  0.26056901  0.73924988  0.62368214  1  0  0.099453  0  0.956759  0  0  0.106528  0  1.022739  0  0  0.110301  0  1.020213  0  0  0.10166  0.104008  0  1.024262  0
H  H63  1  0.52266440  0.26100267  0.87640517  1  0  0.099863  0  0.956397  0  0  0.106857  0  1.022392  0  0  0.110636  0  1.019879  0  0  0.101863  0.104303  0  1.023994  0
H  H64  1  0.73942937  0.26074188  0.37632387  1  0  0.099661  0  0.956535  0  0  0.106708  0  1.022529  0  0  0.110479  0  1.020005  0  0  0.101763  0.104194  0  1.024052  0
H  H65  1  0.47733885  0.73900108  0.12358980  1  0  0.1  0  0.956206  0  0  0.106961  0  1.022249  0  0  0.110741  0  1.019733  0  0  0.101912  0.104406  0  1.02385  0
C  C66  1  0.05380256  0.85950965  0.83689859  1  0  -0.402242  0  3.718928  0  0  -0.483272  0  3.957717  0  0  -0.488558  0  3.964719  0  0  -0.234452  -0.47972  0  3.952451  0
C  C67  1  0.19422351  0.13992458  0.66291417  1  0  -0.401616  0  3.717939  0  0  -0.482526  0  3.956505  0  0  -0.487777  0  3.96355  0  0  -0.234131  -0.478971  0  3.951219  0
C  C68  1  0.94619250  0.14048672  0.16310423  1  0  -0.402202  0  3.719013  0  0  -0.4833  0  3.957783  0  0  -0.488587  0  3.964781  0  0  -0.234445  -0.479749  0  3.952513  0
C  C69  1  0.80577499  0.86007640  0.33708547  1  0  -0.401591  0  3.717922  0  0  -0.482576  0  3.956462  0  0  -0.487827  0  3.963508  0  0  -0.234139  -0.479021  0  3.951186  0
C  C70  1  0.08350423  0.98642560  0.88073654  1  0  0.418114  0  3.68239  0  0  0.391174  0  3.955815  0  0  0.411903  0  3.966326  0  0  0.235675  0.377654  0  3.947973  0
C  C71  1  0.09664658  0.01306404  0.61904959  1  0  0.419401  0  3.68215  0  0  0.390916  0  3.956682  0  0  0.411681  0  3.967156  0  0  0.234961  0.377313  0  3.948879  0
C  C72  1  0.91649288  0.01357262  0.11926338  1  0  0.418069  0  3.682409  0  0  0.39115  0  3.955814  0  0  0.411878  0  3.966322  0  0  0.235682  0.377631  0  3.947972  0
C  C73  1  0.90335106  0.98693970  0.38094914  1  0  0.419284  0  3.682236  0  0  0.390901  0  3.956685  0  0  0.411665  0  3.967159  0  0  0.234945  0.377297  0  3.948886  0
C  C74  1  0.18726150  0.16249546  0.97410806  1  0  0.101358  0  3.783012  0  0  0.09066  0  4.031675  0  0  0.094555  0  4.054361  0  0  0.090492  0.087968  0  4.016286  0
C  C75  1  0.02403643  0.83695904  0.52574373  1  0  0.102374  0  3.783025  0  0  0.090622  0  4.031963  0  0  0.094528  0  4.054613  0  0  0.090289  0.08789  0  4.016565  0
C  C76  1  0.81274825  0.83750553  0.02589032  1  0  0.101324  0  3.782892  0  0  0.090669  0  4.031469  0  0  0.094555  0  4.054169  0  0  0.090471  0.087975  0  4.016085  0
C  C77  1  0.97596948  0.16304102  0.47425893  1  0  0.10258  0  3.782791  0  0  0.090877  0  4.031712  0  0  0.094785  0  4.054362  0  0  0.090449  0.088144  0  4.016312  0
C  C78  1  0.07900131  0.17147485  0.91274594  1  0  0.151122  0  3.853242  0  0  0.144212  0  4.107759  0  0  0.148457  0  4.131164  0  0  0.081949  0.141206  0  4.092092  0
C  C79  1  0.90673631  0.82805326  0.58705481  1  0  0.150961  0  3.852407  0  0  0.143855  0  4.107531  0  0  0.148116  0  4.130884  0  0  0.081709  0.140967  0  4.091719  0
C  C80  1  0.92101253  0.82852983  0.08724977  1  0  0.151077  0  3.853226  0  0  0.144174  0  4.107725  0  0  0.148419  0  4.131133  0  0  0.08187  0.141173  0  4.09205  0
C  C81  1  0.09326913  0.17194587  0.41294774  1  0  0.150782  0  3.852434  0  0  0.143704  0  4.107496  0  0  0.147963  0  4.130851  0  0  0.081583  0.140816  0  4.091686  0
C  C82  1  0.04898118  0.27966355  0.91741248  1  0  -0.148133  0  3.755822  0  0  -0.166394  0  4.009374  0  0  -0.168425  0  4.02882  0  0  -0.096878  -0.165288  0  3.996725  0
C  C83  1  0.76834048  0.71982548  0.58243817  1  0  -0.146638  0  3.754073  0  0  -0.164518  0  4.007352  0  0  -0.166533  0  4.026759  0  0  -0.095723  -0.163422  0  3.994698  0
C  C84  1  0.95103624  0.72033928  0.08258551  1  0  -0.148207  0  3.75587  0  0  -0.166454  0  4.009384  0  0  -0.168483  0  4.028824  0  0  -0.096802  -0.16535  0  3.996736  0
C  C85  1  0.23166338  0.28017274  0.41755923  1  0  -0.146739  0  3.754103  0  0  -0.1646  0  4.007321  0  0  -0.166613  0  4.026727  0  0  -0.095793  -0.163508  0  3.994672  0
C  C86  1  0.12905653  0.37599752  0.98462711  1  0  -0.098885  0  3.828647  0  0  -0.116459  0  4.088033  0  0  -0.119376  0  4.110705  0  0  -0.106299  -0.114249  0  4.072446  0
C  C87  1  0.75198522  0.62341252  0.51532053  1  0  -0.100204  0  3.829564  0  0  -0.117486  0  4.089021  0  0  -0.120449  0  4.111669  0  0  -0.106461  -0.115231  0  4.073435  0
C  C88  1  0.87096901  0.62400809  0.01536683  1  0  -0.098758  0  3.828708  0  0  -0.116334  0  4.088061  0  0  -0.119236  0  4.110738  0  0  -0.106196  -0.114119  0  4.072461  0
C  C89  1  0.24802161  0.37658939  0.48467608  1  0  -0.100261  0  3.829547  0  0  -0.1175  0  4.088991  0  0  -0.120464  0  4.11164  0  0  -0.106462  -0.115245  0  4.073406  0
C  C90  1  0.23578751  0.36574106  0.04559462  1  0  -0.078671  0  3.79908  0  0  -0.092433  0  4.048775  0  0  -0.094272  0  4.071678  0  0  -0.10297  -0.090905  0  4.032694  0
C  C91  1  0.86886417  0.63368450  0.45429126  1  0  -0.077498  0  3.799224  0  0  -0.091042  0  4.04825  0  0  -0.092892  0  4.071183  0  0  -0.102135  -0.089663  0  4.032572  0
C  C92  1  0.76422428  0.63426177  0.95440463  1  0  -0.078676  0  3.798849  0  0  -0.092407  0  4.04856  0  0  -0.094243  0  4.071457  0  0  -0.102944  -0.090875  0  4.032472  0
C  C93  1  0.13115033  0.36631925  0.54570810  1  0  -0.077462  0  3.799212  0  0  -0.091009  0  4.048195  0  0  -0.092858  0  4.071129  0  0  -0.102145  -0.089633  0  4.03252  0
C  C94  1  0.26738375  0.25871765  0.04148568  1  0  -0.150909  0  3.742341  0  0  -0.167315  0  3.992211  0  0  -0.170588  0  4.011271  0  0  -0.097207  -0.164877  0  3.979064  0
C  C95  1  0.00762688  0.74072525  0.45835664  1  0  -0.151141  0  3.743591  0  0  -0.1672  0  3.993806  0  0  -0.170455  0  4.012831  0  0  -0.097995  -0.164933  0  3.980887  0
C  C96  1  0.73263280  0.74128795  0.95850826  1  0  -0.150798  0  3.742064  0  0  -0.16725  0  3.991915  0  0  -0.170513  0  4.010955  0  0  -0.097193  -0.164816  0  3.978772  0
C  C97  1  0.99238536  0.25927849  0.54164648  1  0  -0.151119  0  3.743332  0  0  -0.167205  0  3.993549  0  0  -0.170461  0  4.012577  0  0  -0.097968  -0.164939  0  3.980631  0
C  C98  1  0.27940576  0.99288888  0.99903299  1  0  0.012368  0  3.620144  0  0  -0.047526  0  3.876798  0  0  -0.043048  0  3.888398  0  0  -0.054251  -0.050384  0  3.868998  0
C  C99  1  0.28632003  0.00678827  0.50094739  1  0  0.013372  0  3.618569  0  0  -0.047318  0  3.876058  0  0  -0.042674  0  3.887311  0  0  -0.054231  -0.050335  0  3.868524  0
C  C100  1  0.72059790  0.00711118  0.00096527  1  0  0.012163  0  3.620272  0  0  -0.047722  0  3.876888  0  0  -0.043243  0  3.888469  0  0  -0.054353  -0.05058  0  3.869095  0
C  C101  1  0.71368383  0.99320995  0.49905064  1  0  0.013343  0  3.618606  0  0  -0.047216  0  3.876046  0  0  -0.042582  0  3.887313  0  0  -0.054201  -0.050235  0  3.868512  0
C  C102  1  0.45398628  0.02653638  0.97373462  1  0  -0.119988  0  3.669448  0  0  -0.161465  0  3.931207  0  0  -0.162845  0  3.944313  0  0  -0.162422  -0.160335  0  3.922587  0
C  C103  1  0.42735992  0.97326629  0.52622216  1  0  -0.120457  0  3.666206  0  0  -0.162288  0  3.929434  0  0  -0.163691  0  3.94248  0  0  -0.162589  -0.161119  0  3.920838  0
C  C104  1  0.54602121  0.97346461  0.02626313  1  0  -0.120272  0  3.669657  0  0  -0.161584  0  3.931216  0  0  -0.162932  0  3.944303  0  0  -0.162435  -0.160458  0  3.922603  0
C  C105  1  0.57264077  0.02673008  0.47377690  1  0  -0.120476  0  3.666163  0  0  -0.162341  0  3.929404  0  0  -0.163736  0  3.942442  0  0  -0.162641  -0.161172  0  3.92081  0
C  C106  1  0.51134023  0.81401813  0.74166795  1  0  0.615454  0  3.958644  0  0  0.568773  0  4.246703  0  0  0.602744  0  4.241454  0  0  0.186425  0.545924  0  4.249185  0
C  C107  1  0.69770470  0.18587439  0.75825548  1  0  0.615389  0  3.960357  0  0  0.56835  0  4.249158  0  0  0.602333  0  4.243908  0  0  0.186078  0.545484  0  4.251706  0
C  C108  1  0.48863571  0.18597824  0.25833425  1  0  0.615481  0  3.959048  0  0  0.568807  0  4.247076  0  0  0.602779  0  4.241824  0  0  0.186443  0.54596  0  4.249563  0
C  C109  1  0.30229461  0.81411924  0.24173632  1  0  0.61549  0  3.959858  0  0  0.568449  0  4.248645  0  0  0.602431  0  4.243394  0  0  0.186103  0.545586  0  4.251191  0
C  C110  1  0.34183461  0.72378078  0.74670207  1  0  -0.074314  0  3.781789  0  0  -0.04887  0  4.011313  0  0  -0.056986  0  4.034154  0  0  -0.022948  -0.043393  0  3.99553  0
C  C111  1  0.61881816  0.27629828  0.75325620  1  0  -0.074468  0  3.782459  0  0  -0.049331  0  4.012785  0  0  -0.057435  0  4.035605  0  0  -0.022393  -0.043818  0  3.996921  0
C  C112  1  0.65814701  0.27622018  0.25330510  1  0  -0.074192  0  3.781486  0  0  -0.048753  0  4.011008  0  0  -0.056866  0  4.033848  0  0  -0.022967  -0.043289  0  3.995244  0
C  C113  1  0.38118458  0.72369994  0.24674121  1  0  -0.074474  0  3.782362  0  0  -0.049362  0  4.012712  0  0  -0.057465  0  4.035527  0  0  -0.022405  -0.043851  0  3.996851  0
C  C114  1  0.29757252  0.66912522  0.81915209  1  0  -0.078865  0  3.752332  0  0  -0.101545  0  3.997247  0  0  -0.100937  0  4.016937  0  0  -0.085671  -0.101639  0  3.983651  0
C  C115  1  0.62882140  0.33085980  0.68079389  1  0  -0.078413  0  3.752707  0  0  -0.101205  0  3.997658  0  0  -0.100558  0  4.017357  0  0  -0.085996  -0.101307  0  3.984078  0
C  C116  1  0.70240951  0.33087206  0.18085462  1  0  -0.07865  0  3.752049  0  0  -0.101306  0  3.996963  0  0  -0.100693  0  4.016646  0  0  -0.085594  -0.101399  0  3.98337  0
C  C117  1  0.37118384  0.66914119  0.31920450  1  0  -0.078242  0  3.752602  0  0  -0.101002  0  3.997527  0  0  -0.100346  0  4.01723  0  0  -0.085888  -0.101102  0  3.983945  0
C  C118  1  0.13894955  0.58679771  0.82356000  1  0  -0.081628  0  3.786342  0  0  -0.090505  0  4.03089  0  0  -0.094331  0  4.053227  0  0  -0.093301  -0.088062  0  4.015739  0
C  C119  1  0.55241392  0.41305378  0.67645702  1  0  -0.081809  0  3.787365  0  0  -0.090667  0  4.032031  0  0  -0.09448  0  4.054349  0  0  -0.093473  -0.088257  0  4.016966  0
C  C120  1  0.86103478  0.41320417  0.17644917  1  0  -0.082077  0  3.786764  0  0  -0.090976  0  4.031336  0  0  -0.094799  0  4.053674  0  0  -0.093499  -0.088535  0  4.016197  0
C  C121  1  0.44759654  0.58695090  0.32353868  1  0  -0.082082  0  3.787825  0  0  -0.09096  0  4.032487  0  0  -0.094775  0  4.054806  0  0  -0.093638  -0.088546  0  4.017414  0
C  C122  1  0.02285108  0.55856315  0.75606811  1  0  -0.054284  0  3.742131  0  0  -0.066242  0  3.980554  0  0  -0.066118  0  4.000946  0  0  -0.085013  -0.066213  0  3.967289  0
C  C123  1  0.46471096  0.44120918  0.74401649  1  0  -0.056079  0  3.742331  0  0  -0.067815  0  3.980934  0  0  -0.067701  0  4.00131  0  0  -0.086038  -0.067788  0  3.967708  0
C  C124  1  0.97714225  0.44143875  0.24393666  1  0  -0.054029  0  3.74186  0  0  -0.065949  0  3.980244  0  0  -0.065824  0  4.000634  0  0  -0.084898  -0.065948  0  3.966966  0
C  C125  1  0.53529270  0.55879088  0.25597926  1  0  -0.056119  0  3.742767  0  0  -0.067839  0  3.981311  0  0  -0.067717  0  4.001677  0  0  -0.085998  -0.06781  0  3.968082  0
C  C126  1  0.06591923  0.61292692  0.68375407  1  0  -0.076299  0  3.772887  0  0  -0.083477  0  4.015523  0  0  -0.08679  0  4.037153  0  0  -0.090447  -0.081178  0  4.00095  0
C  C127  1  0.45384196  0.38698021  0.81636232  1  0  -0.074224  0  3.774003  0  0  -0.081393  0  4.016155  0  0  -0.084668  0  4.037773  0  0  -0.088778  -0.079182  0  4.001665  0
C  C128  1  0.93407180  0.38707037  0.31625013  1  0  -0.076226  0  3.772747  0  0  -0.083375  0  4.015347  0  0  -0.086679  0  4.036969  0  0  -0.09044  -0.081078  0  4.000777  0
C  C129  1  0.54616308  0.61302262  0.18363504  1  0  -0.074086  0  3.774097  0  0  -0.081262  0  4.016215  0  0  -0.084536  0  4.037828  0  0  -0.088709  -0.079048  0  4.001717  0
C  C130  1  0.22477876  0.69514977  0.67914782  1  0  -0.079182  0  3.736847  0  0  -0.102147  0  3.980498  0  0  -0.101521  0  3.99917  0  0  -0.084737  -0.102495  0  3.967618  0
C  C131  1  0.53075857  0.30502839  0.82092486  1  0  -0.080105  0  3.737645  0  0  -0.102933  0  3.981667  0  0  -0.10235  0  4.000373  0  0  -0.086033  -0.103291  0  3.968835  0
C  C132  1  0.77521048  0.30484843  0.32085963  1  0  -0.079567  0  3.736666  0  0  -0.1025  0  3.980311  0  0  -0.101876  0  3.998979  0  0  -0.084823  -0.102853  0  3.967441  0
C  C133  1  0.46924872  0.69497444  0.17907250  1  0  -0.080336  0  3.737618  0  0  -0.103134  0  3.981663  0  0  -0.102551  0  4.000368  0  0  -0.086155  -0.103485  0  3.968822  0
N  N134  1  0.01649124  0.06017398  0.85581734  1  0  -0.505584  0  3.155624  0  0  -0.43819  0  3.435481  0  0  -0.462628  0  3.448869  0  0  -0.360164  -0.421659  0  3.425994  0
N  N135  1  0.95564580  0.93940141  0.64392487  1  0  -0.50635  0  3.153861  0  0  -0.438563  0  3.43416  0  0  -0.463009  0  3.447507  0  0  -0.359859  -0.421956  0  3.424636  0
N  N136  1  0.98350996  0.93982792  0.14418179  1  0  -0.505557  0  3.155678  0  0  -0.438186  0  3.435531  0  0  -0.462623  0  3.448919  0  0  -0.360182  -0.421659  0  3.426048  0
N  N137  1  0.04435269  0.06059957  0.35607540  1  0  -0.506221  0  3.153954  0  0  -0.438454  0  3.434198  0  0  -0.4629  0  3.447547  0  0  -0.359816  -0.421853  0  3.424683  0
N  N138  1  0.18649835  0.04413417  0.95224387  1  0  -0.164978  0  3.451504  0  0  -0.085109  0  3.678397  0  0  -0.102497  0  3.700865  0  0  -0.237872  -0.073409  0  3.662474  0
N  N139  1  0.14196233  0.95529841  0.54763785  1  0  -0.167324  0  3.452143  0  0  -0.084804  0  3.677381  0  0  -0.102256  0  3.699783  0  0  -0.237412  -0.073108  0  3.661562  0
N  N140  1  0.81349922  0.95586496  0.04775742  1  0  -0.164858  0  3.451342  0  0  -0.085003  0  3.678172  0  0  -0.102387  0  3.700642  0  0  -0.23783  -0.073301  0  3.662252  0
N  N141  1  0.85804178  0.04470256  0.45236493  1  0  -0.167346  0  3.452366  0  0  -0.084967  0  3.677664  0  0  -0.102417  0  3.700067  0  0  -0.237459  -0.073271  0  3.661846  0
O  O142  1  0.61845537  0.83249618  0.80200393  1  0  -0.653303  0  1.975563  0  0  -0.589516  0  2.217438  0  0  -0.618253  0  2.208079  0  0  -0.336554  -0.569257  0  2.222967  0
O  O143  1  0.78639519  0.16741650  0.69796731  1  0  -0.653346  0  1.974417  0  0  -0.589155  0  2.216066  0  0  -0.617884  0  2.206719  0  0  -0.336112  -0.568821  0  2.221689  0
O  O144  1  0.38150805  0.16750662  0.19800598  1  0  -0.653333  0  1.975719  0  0  -0.589526  0  2.217581  0  0  -0.618266  0  2.208225  0  0  -0.336588  -0.569268  0  2.223111  0
O  O145  1  0.21361303  0.83258817  0.30202714  1  0  -0.653471  0  1.974274  0  0  -0.589274  0  2.215975  0  0  -0.618006  0  2.206624  0  0  -0.336192  -0.568938  0  2.221598  0
O  O146  1  0.54347908  0.86972948  0.67856542  1  0  -0.629774  0  1.946684  0  0  -0.574788  0  2.183409  0  0  -0.60211  0  2.175681  0  0  -0.329454  -0.555871  0  2.188094  0
O  O147  1  0.67365935  0.13001281  0.82128416  1  0  -0.629825  0  1.946223  0  0  -0.574748  0  2.18322  0  0  -0.602018  0  2.175399  0  0  -0.329539  -0.555939  0  2.187984  0
O  O148  1  0.45650687  0.13025767  0.32143311  1  0  -0.629794  0  1.946951  0  0  -0.574823  0  2.183687  0  0  -0.602142  0  2.175959  0  0  -0.329424  -0.555907  0  2.188382  0
O  O149  1  0.32632702  0.86997068  0.17870323  1  0  -0.629866  0  1.94594  0  0  -0.574795  0  2.182949  0  0  -0.602062  0  2.175135  0  0  -0.329517  -0.555981  0  2.187711  0
