# generated using pymatgen
data_ZnH16C24(NO2)2
_symmetry_space_group_name_H-M   'P 1'
_cell_length_a   10.30790400
_cell_length_b   11.80561894
_cell_length_c   19.62224369
_cell_angle_alpha   89.99999626
_cell_angle_beta   90.00024096
_cell_angle_gamma   91.36153028
_symmetry_Int_Tables_number   1
_chemical_formula_structural   ZnH16C24(NO2)2
_chemical_formula_sum   'Zn4 H64 C96 N8 O16'
_cell_volume   2387.17995233
_cell_formula_units_Z   4
loop_
 _symmetry_equiv_pos_site_id
 _symmetry_equiv_pos_as_xyz
  1  'x, y, z'
loop_
 _atom_site_type_symbol
 _atom_site_label
 _atom_site_symmetry_multiplicity
 _atom_site_fract_x
 _atom_site_fract_y
 _atom_site_fract_z
 _atom_site_occupancy
 _atom_site_pbe_bader_charge
 _atom_site_pbe_bader_spin_density
 _atom_site_pbe_cm5_charge
 _atom_site_pbe_ddec_charge
 _atom_site_pbe_ddec_spin_density
 _atom_site_pbe_ddec_sum_bond_order
 _atom_site_pbe_magmom
Zn  Zn0  1  0.95981601  0.53981006  0.14914507  1  1.241632  0  0.690953  0.749267  0  2.389791  0
Zn  Zn1  1  0.54018517  0.46019128  0.64914400  1  1.241726  0  0.690968  0.749308  0  2.389835  0
Zn  Zn2  1  0.04018465  0.46019031  0.85085534  1  1.241595  0  0.690953  0.749301  0  2.389732  0
Zn  Zn3  1  0.45981246  0.53980660  0.35085488  1  1.241575  0  0.690966  0.749259  0  2.389924  0
H  H4  1  0.94671702  0.73755286  0.65503827  1  0.114493  0  0.103298  0.104773  0  1.009346  0
H  H5  1  0.55328630  0.26245184  0.15503742  1  0.114536  0  0.103338  0.104904  0  1.00926  0
H  H6  1  0.05328065  0.26244586  0.34496265  1  0.114475  0  0.103338  0.104833  0  1.009354  0
H  H7  1  0.44671443  0.73755023  0.84496247  1  0.11453  0  0.103313  0.104844  0  1.009308  0
H  H8  1  0.11028328  0.83249228  0.57766443  1  0.099732  0  0.098788  0.096938  0  1.020967  0
H  H9  1  0.38972171  0.16751211  0.07766434  1  0.099825  0  0.098779  0.096968  0  1.020978  0
H  H10  1  0.88971439  0.16750644  0.42233649  1  0.099693  0  0.098803  0.096967  0  1.020945  0
H  H11  1  0.61028282  0.83248821  0.92233505  1  0.099792  0  0.098792  0.096959  0  1.020979  0
H  H12  1  0.11684954  0.77999304  0.45574973  1  0.056948  0  0.101438  0.094046  0  1.038373  0
H  H13  1  0.38315716  0.22000459  0.95574893  1  0.056799  0  0.101431  0.09407  0  1.038422  0
H  H14  1  0.88315375  0.22000136  0.54425220  1  0.05704  0  0.101414  0.094033  0  1.038409  0
H  H15  1  0.61684636  0.77999489  0.04425046  1  0.057001  0  0.101434  0.0941  0  1.038352  0
H  H16  1  0.81440687  0.52787931  0.49074040  1  0.125767  0  0.105158  0.104904  0  1.037245  0
H  H17  1  0.68559511  0.47212291  0.99073863  1  0.125691  0  0.105165  0.104866  0  1.037317  0
H  H18  1  0.18559362  0.47211768  0.50926001  1  0.125815  0  0.105155  0.104927  0  1.037152  0
H  H19  1  0.31440466  0.52787917  0.00926075  1  0.125736  0  0.105162  0.104883  0  1.037354  0
H  H20  1  0.77882524  0.53632778  0.38975191  1  0.09983  0  0.106547  0.114858  0  1.045619  0
H  H21  1  0.72117687  0.46367358  0.88975124  1  0.099796  0  0.106568  0.114882  0  1.045693  0
H  H22  1  0.22117449  0.46367346  0.61024850  1  0.099806  0  0.106573  0.114875  0  1.04566  0
H  H23  1  0.27882192  0.53632852  0.11024764  1  0.099781  0  0.106549  0.114888  0  1.045625  0
H  H24  1  0.79062221  0.48222824  0.26731333  1  0.17985  0  0.115091  0.096102  0  1.052824  0
H  H25  1  0.70937905  0.51777565  0.76731365  1  0.179839  0  0.115071  0.096041  0  1.052833  0
H  H26  1  0.20937561  0.51777387  0.73268657  1  0.179886  0  0.115085  0.096107  0  1.052806  0
H  H27  1  0.29062068  0.48222558  0.23268523  1  0.179798  0  0.115074  0.096048  0  1.052856  0
H  H28  1  0.15891138  0.69698623  0.36572746  1  0.100502  0  0.112197  0.128515  0  1.007334  0
H  H29  1  0.34109266  0.30301143  0.86572502  1  0.100538  0  0.112208  0.12856  0  1.007305  0
H  H30  1  0.84109105  0.30301073  0.63427244  1  0.10052  0  0.11219  0.128516  0  1.007358  0
H  H31  1  0.65890807  0.69699064  0.13427385  1  0.100307  0  0.112204  0.128574  0  1.007293  0
H  H32  1  0.14347736  0.65235556  0.24360226  1  0.087532  0  0.121462  0.091204  0  0.991191  0
H  H33  1  0.35652681  0.34764462  0.74359986  1  0.087532  0  0.12147  0.091208  0  0.991213  0
H  H34  1  0.85652419  0.34764311  0.75639814  1  0.087516  0  0.121472  0.091218  0  0.991231  0
H  H35  1  0.64347284  0.65235492  0.25639901  1  0.087548  0  0.121465  0.091211  0  0.991217  0
H  H36  1  0.00311831  0.97205397  0.13704293  1  0.088849  0  0.104618  0.10789  0  1.013662  0
H  H37  1  0.49688412  0.02794792  0.63704137  1  0.088381  0  0.10461  0.10785  0  1.013683  0
H  H38  1  0.99688153  0.02794981  0.86295900  1  0.088508  0  0.104608  0.107857  0  1.013676  0
H  H39  1  0.50311843  0.97205158  0.36295649  1  0.088691  0  0.104639  0.107927  0  1.013645  0
H  H40  1  0.24820066  0.10094153  0.97451014  1  0.058617  0  0.101311  0.095805  0  1.038742  0
H  H41  1  0.25179778  0.89906301  0.47450717  1  0.058569  0  0.101286  0.095797  0  1.038712  0
H  H42  1  0.75179915  0.89906140  0.02549282  1  0.058613  0  0.101321  0.095838  0  1.038767  0
H  H43  1  0.74819900  0.10093742  0.52549375  1  0.058604  0  0.101296  0.095803  0  1.038656  0
H  H44  1  0.29118958  0.90504700  0.93888734  1  0.08388  0  0.100901  0.101862  0  1.00238  0
H  H45  1  0.20880765  0.09495840  0.43888684  1  0.08377  0  0.100899  0.101819  0  1.002396  0
H  H46  1  0.70880930  0.09495679  0.06111409  1  0.083782  0  0.100903  0.101835  0  1.002364  0
H  H47  1  0.79118412  0.90503871  0.56111458  1  0.083801  0  0.100882  0.101806  0  1.002382  0
H  H48  1  0.19243621  0.74228397  0.00341113  1  0.121238  0  0.099942  0.102098  0  1.037824  0
H  H49  1  0.30756816  0.25771956  0.50341015  1  0.121229  0  0.09996  0.102081  0  1.037832  0
H  H50  1  0.80756558  0.25771978  0.99658979  1  0.121212  0  0.099947  0.102068  0  1.037812  0
H  H51  1  0.69242850  0.74227833  0.49658924  1  0.12115  0  0.099971  0.102085  0  1.037821  0
H  H52  1  0.06690565  0.12559148  0.18988661  1  0.044917  0  0.113223  0.122308  0  0.989845  0
H  H53  1  0.43310194  0.87440780  0.68988335  1  0.044995  0  0.113166  0.122271  0  0.989915  0
H  H54  1  0.93309986  0.87440882  0.81011583  1  0.044974  0  0.113189  0.122262  0  0.989839  0
H  H55  1  0.56689666  0.12559006  0.31011400  1  0.044907  0  0.113209  0.122264  0  0.989849  0
H  H56  1  0.01928262  0.32296049  0.22370328  1  0.130637  0  0.120047  0.088685  0  0.997356  0
H  H57  1  0.48072136  0.67703885  0.72369962  1  0.130785  0  0.120044  0.088665  0  0.997375  0
H  H58  1  0.98072192  0.67703983  0.77629916  1  0.130705  0  0.120052  0.088696  0  0.997333  0
H  H59  1  0.51927142  0.32295910  0.27629925  1  0.130723  0  0.120062  0.088675  0  0.997493  0
H  H60  1  0.09711463  0.44322588  0.02890098  1  0.129894  0  0.120479  0.095665  0  0.999978  0
H  H61  1  0.40288684  0.55677346  0.52889715  1  0.129805  0  0.120473  0.095629  0  0.999951  0
H  H62  1  0.90288983  0.55677274  0.97110198  1  0.129819  0  0.120467  0.095615  0  0.999962  0
H  H63  1  0.59711362  0.44322267  0.47110122  1  0.129767  0  0.120488  0.095664  0  0.99995  0
H  H64  1  0.14642883  0.25273512  0.98682462  1  0.107522  0  0.110701  0.120816  0  1.02458  0
H  H65  1  0.35357245  0.74726600  0.48682086  1  0.107429  0  0.110669  0.120849  0  1.02452  0
H  H66  1  0.85357369  0.74726354  0.01317783  1  0.107483  0  0.1107  0.120853  0  1.024529  0
H  H67  1  0.64643099  0.25273179  0.51317598  1  0.107489  0  0.110692  0.120866  0  1.024506  0
C  C68  1  0.76837210  0.57695089  0.62196285  1  1.554918  0  0.195592  0.55744  0  4.238493  0
C  C69  1  0.73163128  0.42306059  0.12195985  1  1.554621  0  0.195601  0.55743  0  4.238434  0
C  C70  1  0.23162092  0.42305215  0.37803653  1  1.554979  0  0.195359  0.557325  0  4.238547  0
C  C71  1  0.26836861  0.57694404  0.87803903  1  1.555303  0  0.195679  0.557531  0  4.238375  0
C  C72  1  0.87109676  0.62817032  0.57637746  1  0.061366  0  -0.018195  -0.031161  0  3.977877  0
C  C73  1  0.62890602  0.37183607  0.07637576  1  0.061129  0  -0.018104  -0.031211  0  3.977911  0
C  C74  1  0.12889900  0.37182928  0.42362193  1  0.061298  0  -0.018161  -0.031122  0  3.97783  0
C  C75  1  0.37109476  0.62816685  0.92362312  1  0.061159  0  -0.018163  -0.031223  0  3.977848  0
C  C76  1  0.95504362  0.71331887  0.60166620  1  -0.132323  0  -0.079235  -0.086286  0  3.962856  0
C  C77  1  0.54496215  0.28668493  0.10166584  1  -0.132294  0  -0.079371  -0.086422  0  3.962967  0
C  C78  1  0.04495400  0.28667901  0.39833421  1  -0.132429  0  -0.079213  -0.086297  0  3.962862  0
C  C79  1  0.45504053  0.71331711  0.89833457  1  -0.132288  0  -0.079286  -0.086399  0  3.963004  0
C  C80  1  0.04496205  0.76597198  0.55839796  1  -0.025306  0  -0.093221  -0.086982  0  4.031862  0
C  C81  1  0.45504082  0.23403158  0.05839699  1  -0.025267  0  -0.093159  -0.086958  0  4.032105  0
C  C82  1  0.95503465  0.23402675  0.44160296  1  -0.025439  0  -0.093238  -0.086992  0  4.031881  0
C  C83  1  0.54496081  0.76596878  0.94160291  1  -0.02527  0  -0.093188  -0.086939  0  4.031988  0
C  C84  1  0.04949780  0.73564977  0.48978603  1  -0.051718  0  -0.08018  -0.110511  0  3.954794  0
C  C85  1  0.45050730  0.26434959  0.98978486  1  -0.05157  0  -0.080214  -0.110636  0  3.954969  0
C  C86  1  0.95050261  0.26434552  0.51021539  1  -0.051616  0  -0.080171  -0.110545  0  3.954822  0
C  C87  1  0.54949622  0.73564990  0.01021554  1  -0.051795  0  -0.080211  -0.110633  0  3.95488  0
C  C88  1  0.96661308  0.65043993  0.46333443  1  0.019942  0  -0.006111  0.056189  0  3.98782  0
C  C89  1  0.53338958  0.34956058  0.96333334  1  0.019958  0  -0.006123  0.056273  0  3.987806  0
C  C90  1  0.03338750  0.34955875  0.53666547  1  0.020065  0  -0.00613  0.056191  0  3.987812  0
C  C91  1  0.46660914  0.65043982  0.03666706  1  0.019973  0  -0.006135  0.05622  0  3.987924  0
C  C92  1  0.87906006  0.59605164  0.50811259  1  -0.153727  0  -0.074203  -0.123205  0  3.919681  0
C  C93  1  0.62094392  0.40395048  0.00811087  1  -0.153722  0  -0.074207  -0.123144  0  3.919831  0
C  C94  1  0.12093951  0.40394621  0.49188781  1  -0.153748  0  -0.074171  -0.123186  0  3.919564  0
C  C95  1  0.37905677  0.59605074  0.99188851  1  -0.153765  0  -0.074183  -0.123119  0  3.919822  0
C  C96  1  0.96837621  0.62129068  0.39024850  1  -0.017472  0  0.020992  0.123723  0  3.950665  0
C  C97  1  0.53162676  0.37870813  0.89024792  1  -0.01744  0  0.020996  0.12368  0  3.950606  0
C  C98  1  0.03162522  0.37870545  0.60975191  1  -0.017535  0  0.020961  0.123643  0  3.950629  0
C  C99  1  0.46837394  0.62129309  0.10975198  1  -0.017565  0  0.020992  0.123674  0  3.950675  0
C  C100  1  0.86440495  0.56037614  0.36036597  1  0.016393  0  -0.08083  -0.163887  0  3.931106  0
C  C101  1  0.63559802  0.43962775  0.86036511  1  0.016378  0  -0.080825  -0.163885  0  3.93106  0
C  C102  1  0.13559482  0.43962595  0.63963393  1  0.016431  0  -0.080838  -0.163858  0  3.930952  0
C  C103  1  0.36440175  0.56037434  0.13963428  1  0.016487  0  -0.080813  -0.163835  0  3.930907  0
C  C104  1  0.86733270  0.53266687  0.29186616  1  0.387214  0  0.041404  0.081902  0  3.942816  0
C  C105  1  0.63266864  0.46733448  0.79186529  1  0.387195  0  0.041497  0.082035  0  3.94283  0
C  C106  1  0.13266698  0.46733352  0.70813425  1  0.387172  0  0.041422  0.081932  0  3.942785  0
C  C107  1  0.36732919  0.53266763  0.20813409  1  0.387232  0  0.041418  0.081955  0  3.942739  0
C  C108  1  0.07179473  0.65330118  0.34698129  1  0.018703  0  -0.076654  -0.16269  0  3.909555  0
C  C109  1  0.42820734  0.34669905  0.84698058  1  0.018622  0  -0.076709  -0.162804  0  3.909644  0
C  C110  1  0.92820580  0.34669665  0.65301861  1  0.018656  0  -0.076699  -0.162745  0  3.909676  0
C  C111  1  0.57178959  0.65330477  0.15301932  1  0.018937  0  -0.07668  -0.162814  0  3.909702  0
C  C112  1  0.06586263  0.62612540  0.27831227  1  0.448929  0  0.050442  0.102546  0  3.935439  0
C  C113  1  0.43414076  0.37387310  0.77831107  1  0.449078  0  0.05037  0.102452  0  3.935385  0
C  C114  1  0.93413685  0.37387075  0.72168762  1  0.448937  0  0.050473  0.10259  0  3.935441  0
C  C115  1  0.56585989  0.62612727  0.22168832  1  0.448943  0  0.050421  0.10256  0  3.935441  0
C  C116  1  0.02226654  0.75194138  0.10872356  1  1.535058  0  0.191408  0.554173  0  4.241929  0
C  C117  1  0.47773757  0.24805964  0.60872042  1  1.53523  0  0.191445  0.554237  0  4.241762  0
C  C118  1  0.97773124  0.24805989  0.89127786  1  1.535029  0  0.191391  0.554222  0  4.242041  0
C  C119  1  0.52226006  0.75193824  0.39127744  1  1.535243  0  0.19136  0.554081  0  4.242021  0
C  C120  1  0.09303262  0.84878223  0.07427702  1  -0.054288  0  -0.01923  -0.030576  0  3.980057  0
C  C121  1  0.40697126  0.15121963  0.57427474  1  -0.05406  0  -0.019204  -0.030702  0  3.980131  0
C  C122  1  0.90696811  0.15121984  0.92572492  1  -0.054048  0  -0.01925  -0.030733  0  3.980129  0
C  C123  1  0.59302641  0.84877910  0.42572363  1  -0.054109  0  -0.019134  -0.030606  0  3.979843  0
C  C124  1  0.07059360  0.95981260  0.09506412  1  -0.003248  0  -0.077653  -0.132099  0  3.927272  0
C  C125  1  0.42940939  0.04018758  0.59506189  1  -0.002936  0  -0.077656  -0.131948  0  3.927075  0
C  C126  1  0.92940810  0.04018946  0.90493884  1  -0.003086  0  -0.077619  -0.131914  0  3.927115  0
C  C127  1  0.57059122  0.95981195  0.40493648  1  -0.003178  0  -0.077693  -0.132063  0  3.927082  0
C  C128  1  0.12897430  0.05247744  0.06106044  1  -0.002286  0  -0.011148  0.045029  0  4.003603  0
C  C129  1  0.37102750  0.94752360  0.56105805  1  -0.002529  0  -0.011134  0.044933  0  4.003722  0
C  C130  1  0.87102837  0.94752460  0.93894150  1  -0.002424  0  -0.011122  0.044915  0  4.003698  0
C  C131  1  0.62897405  0.05247506  0.43894031  1  -0.002509  0  -0.01113  0.044974  0  4.003699  0
C  C132  1  0.20624833  0.03071849  0.00361959  1  -0.039154  0  -0.080977  -0.109877  0  3.959561  0
C  C133  1  0.29375313  0.96928509  0.50361754  1  -0.038873  0  -0.080972  -0.109882  0  3.959708  0
C  C134  1  0.79375438  0.96928440  0.99638336  1  -0.038991  0  -0.081022  -0.109936  0  3.959708  0
C  C135  1  0.70624547  0.03071277  0.49638133  1  -0.038926  0  -0.080999  -0.109912  0  3.959696  0
C  C136  1  0.22995202  0.92023659  0.98307335  1  -0.046416  0  -0.09095  -0.0799  0  4.010783  0
C  C137  1  0.27004741  0.07976709  0.48307146  1  -0.046374  0  -0.090952  -0.079799  0  4.010736  0
C  C138  1  0.77004779  0.07976634  0.01692859  1  -0.046395  0  -0.090983  -0.079869  0  4.010741  0
C  C139  1  0.72995126  0.92023247  0.51692742  1  -0.046312  0  -0.090936  -0.079793  0  4.010854  0
C  C140  1  0.17509888  0.82906130  0.01885430  1  -0.068449  0  -0.079652  -0.078116  0  3.946487  0
C  C141  1  0.32490557  0.17094139  0.51885234  1  -0.068456  0  -0.079632  -0.078069  0  3.946511  0
C  C142  1  0.82490480  0.17094157  0.98114866  1  -0.068496  0  -0.0796  -0.077998  0  3.946399  0
C  C143  1  0.67509404  0.82905731  0.48114705  1  -0.068421  0  -0.079675  -0.07809  0  3.946361  0
C  C144  1  0.10748783  0.16946696  0.08424380  1  -0.016786  0  0.01881  0.116477  0  3.97659  0
C  C145  1  0.39251702  0.83053319  0.58424044  1  -0.016901  0  0.018877  0.116664  0  3.976432  0
C  C146  1  0.89251771  0.83053419  0.91575865  1  -0.017247  0  0.018873  0.116654  0  3.976414  0
C  C147  1  0.60748445  0.16946378  0.41575639  1  -0.016836  0  0.018837  0.116533  0  3.976617  0
C  C148  1  0.07342452  0.19298637  0.15208360  1  -0.001366  0  -0.080267  -0.173735  0  3.929984  0
C  C149  1  0.42658176  0.80701207  0.65208084  1  -0.001629  0  -0.080303  -0.173855  0  3.930027  0
C  C150  1  0.92658192  0.80701307  0.84791935  1  -0.001318  0  -0.080294  -0.173756  0  3.929935  0
C  C151  1  0.57341680  0.19298495  0.34791702  1  -0.001308  0  -0.080233  -0.173575  0  3.929827  0
C  C152  1  0.04755020  0.30302843  0.17165728  1  0.459576  0  0.05242  0.112532  0  3.950453  0
C  C153  1  0.45245425  0.69696919  0.67165355  1  0.459192  0  0.052492  0.112689  0  3.950301  0
C  C154  1  0.95245333  0.69697105  0.82834517  1  0.459244  0  0.052426  0.112564  0  3.950423  0
C  C155  1  0.54754042  0.30302788  0.32834430  1  0.459194  0  0.052396  0.112533  0  3.950486  0
C  C156  1  0.09185163  0.37051807  0.06322834  1  0.435112  0  0.04865  0.099245  0  3.925026  0
C  C157  1  0.40815108  0.62948126  0.56322554  1  0.435102  0  0.048633  0.099299  0  3.925033  0
C  C158  1  0.90815097  0.62948228  0.93677309  1  0.435118  0  0.048625  0.099295  0  3.924954  0
C  C159  1  0.59185035  0.37051486  0.43677334  1  0.435275  0  0.048583  0.099295  0  3.925087  0
C  C160  1  0.11968711  0.26297573  0.04005467  1  -0.004073  0  -0.079235  -0.169644  0  3.934409  0
C  C161  1  0.38031452  0.73702531  0.54005079  1  -0.003631  0  -0.079241  -0.169809  0  3.934342  0
C  C162  1  0.88031645  0.73702460  0.95994777  1  -0.003613  0  -0.079247  -0.169777  0  3.934413  0
C  C163  1  0.61968594  0.26297083  0.45994605  1  -0.004085  0  -0.079263  -0.169828  0  3.934646  0
N  N164  1  0.05436607  0.39089737  0.12790337  1  -1.257951  0  -0.336387  -0.247514  0  3.563405  0
N  N165  1  0.44563420  0.60910115  0.62789963  1  -1.257609  0  -0.336397  -0.247589  0  3.563476  0
N  N166  1  0.94563749  0.60910296  0.87209857  1  -1.257616  0  -0.33637  -0.247558  0  3.563374  0
N  N167  1  0.55436048  0.39089592  0.37209924  1  -1.257549  0  -0.336346  -0.247584  0  3.56341  0
N  N168  1  0.96603922  0.56602779  0.25073591  1  -1.249943  0  -0.3362  -0.235495  0  3.606331  0
N  N169  1  0.53396284  0.43397525  0.75073584  1  -1.250159  0  -0.336212  -0.23545  0  3.606183  0
N  N170  1  0.03395953  0.43397346  0.74926399  1  -1.24992  0  -0.336219  -0.235543  0  3.606303  0
N  N171  1  0.46603879  0.56602511  0.24926355  1  -1.249965  0  -0.336196  -0.235531  0  3.606195  0
O  O172  1  0.69826358  0.49505217  0.59543625  1  -1.161521  0  -0.33641  -0.554965  0  2.318582  0
O  O173  1  0.80173753  0.50495679  0.09543187  1  -1.160654  0  -0.336364  -0.554882  0  2.318295  0
O  O174  1  0.30173405  0.50494571  0.40456416  1  -1.161493  0  -0.336384  -0.554866  0  2.318523  0
O  O175  1  0.19826510  0.49504440  0.90456599  1  -1.161639  0  -0.336371  -0.554912  0  2.318395  0
O  O176  1  0.75306937  0.61615059  0.68060496  1  -1.181784  0  -0.328458  -0.564605  0  2.147595  0
O  O177  1  0.74693653  0.38386340  0.18060301  1  -1.182215  0  -0.328465  -0.564586  0  2.147784  0
O  O178  1  0.24691807  0.38385761  0.31939239  1  -1.18179  0  -0.328281  -0.564576  0  2.147566  0
O  O179  1  0.25306145  0.61614210  0.81939689  1  -1.1819  0  -0.328566  -0.564689  0  2.147726  0
O  O180  1  0.07262152  0.65251403  0.10093195  1  -1.169953  0  -0.340668  -0.561484  0  2.298481  0
O  O181  1  0.42738257  0.34748783  0.60093175  1  -1.169957  0  -0.340732  -0.561572  0  2.298413  0
O  O182  1  0.92737917  0.34748719  0.89906998  1  -1.170018  0  -0.340697  -0.561529  0  2.298443  0
O  O183  1  0.57261805  0.65251170  0.39906611  1  -1.169943  0  -0.340727  -0.56153  0  2.298465  0
O  O184  1  0.91939647  0.76848657  0.14085035  1  -1.171282  0  -0.340019  -0.562287  0  2.076894  0
O  O185  1  0.58061054  0.23151637  0.64084530  1  -1.171468  0  -0.340028  -0.562258  0  2.07683  0
O  O186  1  0.08059941  0.23151557  0.85914954  1  -1.171186  0  -0.339972  -0.562266  0  2.077009  0
O  O187  1  0.41938705  0.76848066  0.35915205  1  -1.171555  0  -0.339976  -0.562179  0  2.076904  0
