# generated using pymatgen
data_CaH24C18(NO3)2
_symmetry_space_group_name_H-M   'P 1'
_cell_length_a   7.63595717
_cell_length_b   15.07904478
_cell_length_c   16.75485082
_cell_angle_alpha   89.99998306
_cell_angle_beta   99.04880054
_cell_angle_gamma   89.99995116
_symmetry_Int_Tables_number   1
_chemical_formula_structural   CaH24C18(NO3)2
_chemical_formula_sum   'Ca4 H96 C72 N8 O24'
_cell_volume   1905.19335798
_cell_formula_units_Z   4
loop_
 _symmetry_equiv_pos_site_id
 _symmetry_equiv_pos_as_xyz
  1  'x, y, z'
loop_
 _atom_site_type_symbol
 _atom_site_label
 _atom_site_symmetry_multiplicity
 _atom_site_fract_x
 _atom_site_fract_y
 _atom_site_fract_z
 _atom_site_occupancy
 _atom_site_pbe_bader_charge
 _atom_site_pbe_bader_spin_density
 _atom_site_pbe_cm5_charge
 _atom_site_pbe_ddec_charge
 _atom_site_pbe_ddec_spin_density
 _atom_site_pbe_ddec_sum_bond_order
 _atom_site_pbe_magmom
Ca  Ca0  1  0.50495927  0.21406314  0.24946691  1  1.63583  0  0.865911  1.371219  0  1.503494  0
Ca  Ca1  1  0.99504346  0.71406612  0.75053294  1  1.635829  0  0.865915  1.371204  0  1.503529  0
Ca  Ca2  1  0.49504042  0.78593749  0.75053082  1  1.635893  0  0.865952  1.371268  0  1.50349  0
Ca  Ca3  1  0.00496280  0.28593584  0.24946887  1  1.635785  0  0.865917  1.371194  0  1.503582  0
H  H4  1  0.33268488  0.04500597  0.80055928  1  0.112001  0  0.114181  0.130026  0  0.994408  0
H  H5  1  0.16732008  0.54500594  0.19944180  1  0.111898  0  0.114171  0.130007  0  0.994424  0
H  H6  1  0.66731082  0.95499533  0.19943875  1  0.112049  0  0.114148  0.130026  0  0.994417  0
H  H7  1  0.83267954  0.45499337  0.80056011  1  0.111971  0  0.114155  0.130008  0  0.994456  0
H  H8  1  0.50769022  0.02580907  0.93575935  1  0.094368  0  0.113715  0.075971  0  1.038103  0
H  H9  1  0.99231417  0.52580762  0.06424127  1  0.094424  0  0.113722  0.075951  0  1.038134  0
H  H10  1  0.49229884  0.97418958  0.06423878  1  0.094374  0  0.113733  0.075927  0  1.03816  0
H  H11  1  0.00768544  0.47418970  0.93576183  1  0.094383  0  0.113732  0.076004  0  1.038151  0
H  H12  1  0.31680567  0.25901965  0.02104862  1  0.131967  0  0.122196  0.099222  0  1.016921  0
H  H13  1  0.18318827  0.75902136  0.97895337  1  0.131959  0  0.122184  0.099208  0  1.016957  0
H  H14  1  0.68318336  0.74097767  0.97895130  1  0.131927  0  0.122198  0.099234  0  1.016933  0
H  H15  1  0.81681137  0.24097596  0.02104734  1  0.131912  0  0.122166  0.099201  0  1.016924  0
H  H16  1  0.13339180  0.29029077  0.88630768  1  0.08087  0  0.09926  0.101592  0  1.054181  0
H  H17  1  0.36660475  0.79029200  0.11369330  1  0.080884  0  0.099286  0.101675  0  1.054189  0
H  H18  1  0.86660256  0.70970854  0.11369085  1  0.080855  0  0.099274  0.101646  0  1.054162  0
H  H19  1  0.63339489  0.20970531  0.88630741  1  0.080766  0  0.099287  0.101675  0  1.054075  0
H  H20  1  0.17720612  0.16862459  0.70156033  1  0.027157  0  0.095133  0.096613  0  0.992072  0
H  H21  1  0.32279334  0.66862380  0.29843910  1  0.027144  0  0.095119  0.096628  0  0.992067  0
H  H22  1  0.82278692  0.83137671  0.29843809  1  0.02714  0  0.09511  0.0966  0  0.99206  0
H  H23  1  0.67721162  0.33137418  0.70156141  1  0.026868  0  0.09512  0.096593  0  0.992066  0
H  H24  1  0.06706554  0.25587549  0.74397896  1  0.033876  0  0.092613  0.09226  0  1.002177  0
H  H25  1  0.43293637  0.75587400  0.25602303  1  0.033912  0  0.092625  0.09228  0  1.002157  0
H  H26  1  0.93293280  0.74412713  0.25601987  1  0.033875  0  0.092651  0.092334  0  1.002143  0
H  H27  1  0.56706460  0.24412464  0.74397778  1  0.033873  0  0.092613  0.092241  0  1.002171  0
H  H28  1  0.96914827  0.05853256  0.75066315  1  0.063282  0  0.104916  0.110463  0  0.9768  0
H  H29  1  0.53085206  0.55853125  0.24933835  1  0.063212  0  0.104963  0.11053  0  0.976758  0
H  H30  1  0.03084873  0.94146808  0.24933676  1  0.06324  0  0.104933  0.110449  0  0.976861  0
H  H31  1  0.46915157  0.44146806  0.75066207  1  0.06327  0  0.104934  0.110439  0  0.976838  0
H  H32  1  0.86001431  0.14547442  0.79196962  1  0.051888  0  0.097724  0.101685  0  0.994222  0
H  H33  1  0.63998586  0.64547307  0.20803185  1  0.051928  0  0.09775  0.101717  0  0.994215  0
H  H34  1  0.13998401  0.85452754  0.20803100  1  0.051953  0  0.097749  0.101712  0  0.994215  0
H  H35  1  0.36001644  0.35452690  0.79196846  1  0.051927  0  0.097759  0.101709  0  0.994199  0
H  H36  1  0.94754358  0.24567109  0.61245369  1  0.081707  0  0.099654  0.098927  0  1.074986  0
H  H37  1  0.55245109  0.74566641  0.38754853  1  0.081797  0  0.099598  0.098792  0  1.074929  0
H  H38  1  0.05245213  0.75433087  0.38754434  1  0.081732  0  0.099661  0.098935  0  1.075022  0
H  H39  1  0.44754322  0.25433090  0.61245358  1  0.081795  0  0.099648  0.098903  0  1.074991  0
H  H40  1  0.73672722  0.24953347  0.48294913  1  0.133334  0  0.122834  0.097513  0  1.001888  0
H  H41  1  0.76326744  0.74952667  0.51705309  1  0.133298  0  0.122878  0.097564  0  1.001925  0
H  H42  1  0.26326982  0.75046384  0.51704840  1  0.133463  0  0.122839  0.097521  0  1.00188  0
H  H43  1  0.23672688  0.25046998  0.48294782  1  0.133471  0  0.122827  0.097525  0  1.001952  0
H  H44  1  0.43799063  0.04513000  0.55714632  1  0.094758  0  0.113413  0.077982  0  1.02196  0
H  H45  1  0.06201175  0.54512994  0.44285038  1  0.094747  0  0.113433  0.078  0  1.021861  0
H  H46  1  0.56201301  0.95486600  0.44285349  1  0.094813  0  0.113405  0.077967  0  1.0219  0
H  H47  1  0.93798792  0.45487202  0.55714854  1  0.094704  0  0.113439  0.077984  0  1.021824  0
H  H48  1  0.63520082  0.03082399  0.68835143  1  0.101836  0  0.115915  0.135645  0  0.995485  0
H  H49  1  0.86480360  0.53082583  0.31164621  1  0.10177  0  0.115946  0.13567  0  0.995457  0
H  H50  1  0.36480014  0.96917731  0.31164938  1  0.101816  0  0.115893  0.135622  0  0.995537  0
H  H51  1  0.13520139  0.46917746  0.68835192  1  0.101773  0  0.115899  0.135597  0  0.995515  0
H  H52  1  0.61101363  0.50043274  0.13920139  1  0.023684  0  0.095334  0.101601  0  1.010338  0
H  H53  1  0.88897751  0.00043670  0.86080003  1  0.023657  0  0.095321  0.10162  0  1.010306  0
H  H54  1  0.38899138  0.49956723  0.86079614  1  0.023635  0  0.095306  0.101576  0  1.010334  0
H  H55  1  0.11101676  0.99956791  0.13920386  1  0.02365  0  0.095299  0.10155  0  1.010373  0
H  H56  1  0.75197462  0.44017558  0.08611012  1  0.057025  0  0.098317  0.107564  0  1.027129  0
H  H57  1  0.74802102  0.94017728  0.91389272  1  0.056946  0  0.098315  0.107581  0  1.02715  0
H  H58  1  0.24802507  0.55982372  0.91388762  1  0.057048  0  0.098321  0.107538  0  1.02714  0
H  H59  1  0.25197723  0.05982468  0.08611206  1  0.056995  0  0.098295  0.107472  0  1.027168  0
H  H60  1  0.65247061  0.54372314  0.96414498  1  0.032733  0  0.086301  0.07937  0  1.005523  0
H  H61  1  0.84753102  0.04372406  0.03585961  1  0.032763  0  0.086336  0.07938  0  1.005485  0
H  H62  1  0.34752901  0.45627749  0.03585693  1  0.032704  0  0.086317  0.079373  0  1.005497  0
H  H63  1  0.15246726  0.95627790  0.96414279  1  0.032762  0  0.086287  0.079357  0  1.005511  0
H  H64  1  0.50875275  0.59958826  0.01971202  1  -0.00016  0  0.081705  0.070283  0  1.009021  0
H  H65  1  0.99124352  0.09958949  0.98028917  1  -0.000171  0  0.081712  0.070306  0  1.009001  0
H  H66  1  0.49124292  0.40041171  0.98028780  1  -0.000166  0  0.081708  0.070293  0  1.009014  0
H  H67  1  0.00875609  0.90041379  0.01971333  1  -0.000111  0  0.081709  0.070267  0  1.009083  0
H  H68  1  0.38410694  0.50101966  0.35783267  1  0.022326  0  0.095879  0.106689  0  0.988871  0
H  H69  1  0.11590345  0.00102381  0.64216644  1  0.022357  0  0.095869  0.106676  0  0.988856  0
H  H70  1  0.61590198  0.49897898  0.64216934  1  0.022261  0  0.095873  0.106699  0  0.98888  0
H  H71  1  0.88409759  0.99898014  0.35783020  1  0.022281  0  0.095877  0.106683  0  0.988925  0
H  H72  1  0.25626654  0.43759988  0.41471387  1  0.049801  0  0.098908  0.106881  0  1.023833  0
H  H73  1  0.24374172  0.93760434  0.58528615  1  0.049689  0  0.098932  0.106926  0  1.023945  0
H  H74  1  0.74373838  0.56239611  0.58528903  1  0.04976  0  0.098895  0.106852  0  1.023869  0
H  H75  1  0.75626328  0.06239762  0.41471198  1  0.049765  0  0.098892  0.10685  0  1.023846  0
H  H76  1  0.65666375  0.47475201  0.45679167  1  0.037764  0  0.083991  0.075228  0  1.016438  0
H  H77  1  0.84334511  0.97475445  0.54321037  1  0.037863  0  0.083971  0.07517  0  1.016436  0
H  H78  1  0.34334517  0.52524133  0.54320974  1  0.037597  0  0.084014  0.075275  0  1.016432  0
H  H79  1  0.15665722  0.02524221  0.45678816  1  0.037559  0  0.08398  0.07521  0  1.016414  0
H  H80  1  0.54355580  0.40087798  0.51195246  1  0.007955  0  0.08149  0.070381  0  1.015047  0
H  H81  1  0.95645057  0.90087906  0.48804821  1  0.00808  0  0.081499  0.070357  0  1.015069  0
H  H82  1  0.45644783  0.59911536  0.48804796  1  0.008115  0  0.081528  0.070373  0  1.015146  0
H  H83  1  0.04355574  0.09911759  0.51195121  1  0.008089  0  0.081525  0.070417  0  1.015071  0
H  H84  1  0.71217026  0.86291714  0.64290696  1  0.644869  0  0.29479  0.383817  0  0.961319  0
H  H85  1  0.78783488  0.36291467  0.35709124  1  0.644936  0  0.294774  0.383774  0  0.961387  0
H  H86  1  0.28784403  0.13708350  0.35709067  1  0.645007  0  0.294792  0.383755  0  0.961409  0
H  H87  1  0.21216346  0.63708729  0.64290818  1  0.644943  0  0.294801  0.383781  0  0.961375  0
H  H88  1  0.52608770  0.86293708  0.58689838  1  0.63856  0  0.279115  0.327611  0  1.043795  0
H  H89  1  0.97391480  0.36294181  0.41309903  1  0.638599  0  0.279125  0.327652  0  1.043749  0
H  H90  1  0.47392259  0.13705891  0.41310075  1  0.638605  0  0.279136  0.327651  0  1.043732  0
H  H91  1  0.02608355  0.63705750  0.58689920  1  0.638616  0  0.279128  0.327656  0  1.043735  0
H  H92  1  0.28001652  0.86458574  0.85837368  1  0.648988  0  0.294149  0.382989  0  0.961372  0
H  H93  1  0.21998128  0.36458536  0.14162438  1  0.649048  0  0.29415  0.382982  0  0.961372  0
H  H94  1  0.71998317  0.13541490  0.14162405  1  0.649027  0  0.294198  0.383116  0  0.961211  0
H  H95  1  0.78001570  0.63541726  0.85837673  1  0.649131  0  0.294222  0.383122  0  0.96118  0
H  H96  1  0.46767585  0.86955218  0.91370924  1  0.630554  0  0.278202  0.325708  0  1.046389  0
H  H97  1  0.03231792  0.36955190  0.08629091  1  0.630538  0  0.278232  0.325728  0  1.046351  0
H  H98  1  0.53231982  0.13044646  0.08629118  1  0.630555  0  0.278216  0.325743  0  1.046337  0
H  H99  1  0.96768175  0.63044939  0.91370801  1  0.630548  0  0.278236  0.325741  0  1.046334  0
C  C100  1  0.32494385  0.09555492  0.84650435  1  -0.019282  0  -0.08669  -0.191589  0  3.93341  0
C  C101  1  0.17505838  0.59555424  0.15349592  1  -0.019206  0  -0.086694  -0.191631  0  3.933464  0
C  C102  1  0.67504920  0.90444505  0.15349349  1  -0.018838  0  -0.086717  -0.191748  0  3.933538  0
C  C103  1  0.82493990  0.40444241  0.84650649  1  -0.019287  0  -0.086656  -0.191651  0  3.933633  0
C  C104  1  0.42312528  0.08404885  0.92324232  1  0.458908  0  0.044244  0.08559  0  3.99294  0
C  C105  1  0.07687696  0.58404758  0.07675854  1  0.458824  0  0.044285  0.085701  0  3.992959  0
C  C106  1  0.57686643  0.91595112  0.07675601  1  0.458575  0  0.044328  0.085799  0  3.993053  0
C  C107  1  0.92312000  0.41595107  0.92324376  1  0.459037  0  0.044316  0.085722  0  3.993003  0
C  C108  1  0.31611096  0.21365058  0.97009699  1  0.513503  0  0.049052  0.094882  0  3.945226  0
C  C109  1  0.18388707  0.71365126  0.02990352  1  0.513645  0  0.049104  0.094967  0  3.945241  0
C  C110  1  0.68387942  0.78634806  0.02990183  1  0.513757  0  0.04912  0.09495  0  3.945185  0
C  C111  1  0.81611125  0.28634738  0.97009709  1  0.513587  0  0.049075  0.094964  0  3.945477  0
C  C112  1  0.21490914  0.23064241  0.89491860  1  -0.107393  0  -0.09238  -0.201108  0  3.967716  0
C  C113  1  0.28509019  0.73064302  0.10508200  1  -0.107419  0  -0.092419  -0.201209  0  3.967762  0
C  C114  1  0.78508390  0.76935690  0.10507982  1  -0.107512  0  -0.092436  -0.201231  0  3.9677  0
C  C115  1  0.71491076  0.26935562  0.89492000  1  -0.107372  0  -0.092414  -0.201274  0  3.967739  0
C  C116  1  0.21704572  0.17074671  0.83120318  1  -0.069854  0  0.006337  0.156113  0  3.958236  0
C  C117  1  0.28295371  0.67074664  0.16879745  1  -0.069866  0  0.006336  0.156146  0  3.958198  0
C  C118  1  0.78294865  0.82925392  0.16879475  1  -0.070146  0  0.006323  0.156157  0  3.958285  0
C  C119  1  0.71704591  0.32925200  0.83120445  1  -0.069879  0  0.006309  0.15616  0  3.958214  0
C  C120  1  0.10249405  0.18526955  0.75064315  1  0.016949  0  -0.159038  -0.19833  0  3.956095  0
C  C121  1  0.39750535  0.68526808  0.24935807  1  0.016772  0  -0.159056  -0.198438  0  3.956031  0
C  C122  1  0.89750032  0.81473241  0.24935538  1  0.016915  0  -0.159009  -0.198349  0  3.956076  0
C  C123  1  0.60249429  0.31472990  0.75064264  1  0.017238  0  -0.159017  -0.198294  0  3.956006  0
C  C124  1  0.93323305  0.12907748  0.74215692  1  -0.060005  0  -0.151298  -0.195869  0  3.931629  0
C  C125  1  0.56676585  0.62907549  0.25784327  1  -0.059874  0  -0.151352  -0.195917  0  3.931614  0
C  C126  1  0.06676263  0.87092448  0.25784290  1  -0.060049  0  -0.151363  -0.195888  0  3.931769  0
C  C127  1  0.43323513  0.37092315  0.74215695  1  -0.060036  0  -0.15137  -0.195867  0  3.931662  0
C  C128  1  0.80973461  0.13830821  0.66296033  1  -0.031534  0  0.009431  0.158808  0  3.943871  0
C  C129  1  0.69025764  0.63830880  0.33703875  1  -0.031543  0  0.009395  0.158741  0  3.943889  0
C  C130  1  0.19026239  0.86169308  0.33703899  1  -0.031543  0  0.00943  0.158799  0  3.943958  0
C  C131  1  0.30973803  0.36169117  0.66296107  1  -0.031486  0  0.009474  0.158808  0  3.943832  0
C  C132  1  0.83576519  0.20005218  0.60356508  1  -0.038776  0  -0.091959  -0.199723  0  3.957804  0
C  C133  1  0.66423754  0.70004745  0.39643597  1  -0.038822  0  -0.091862  -0.199433  0  3.95775  0
C  C134  1  0.16423049  0.79994911  0.39643414  1  -0.03879  0  -0.091931  -0.199671  0  3.957719  0
C  C135  1  0.33576211  0.29995053  0.60356415  1  -0.03883  0  -0.091943  -0.199668  0  3.957922  0
C  C136  1  0.71867939  0.20255835  0.53068136  1  0.460354  0  0.050984  0.096258  0  3.944457  0
C  C137  1  0.78131673  0.70255619  0.46931800  1  0.460169  0  0.050946  0.096107  0  3.944504  0
C  C138  1  0.28132159  0.79744096  0.46931826  1  0.460259  0  0.050968  0.096195  0  3.944444  0
C  C139  1  0.21868026  0.29744444  0.53068252  1  0.460027  0  0.051005  0.09623  0  3.944509  0
C  C140  1  0.55179285  0.08928595  0.57191258  1  0.493216  0  0.043352  0.081555  0  3.997144  0
C  C141  1  0.94821147  0.58928440  0.42808563  1  0.493118  0  0.043313  0.08158  0  3.997149  0
C  C142  1  0.44820681  0.91071203  0.42808694  1  0.492973  0  0.043382  0.081656  0  3.997111  0
C  C143  1  0.05178952  0.41071623  0.57191399  1  0.493167  0  0.043309  0.081576  0  3.996885  0
C  C144  1  0.66176553  0.08236704  0.64615778  1  -0.048128  0  -0.086634  -0.194877  0  3.945763  0
C  C145  1  0.83823880  0.58236490  0.35383984  1  -0.04803  0  -0.086639  -0.194938  0  3.945609  0
C  C146  1  0.33823280  0.91763426  0.35384164  1  -0.048128  0  -0.086646  -0.194953  0  3.945814  0
C  C147  1  0.16176219  0.41763706  0.64615919  1  -0.048127  0  -0.086674  -0.194864  0  3.945566  0
C  C148  1  0.58434339  0.36130258  0.14722648  1  1.575621  0  0.220824  0.650382  0  4.146602  0
C  C149  1  0.91564452  0.86130754  0.85277042  1  1.575575  0  0.220852  0.650437  0  4.146734  0
C  C150  1  0.41565234  0.63870071  0.85277035  1  1.575676  0  0.220798  0.65032  0  4.146579  0
C  C151  1  0.08435772  0.13869973  0.14723347  1  1.575507  0  0.220888  0.650361  0  4.14665  0
C  C152  1  0.61518862  0.44315325  0.09858887  1  -0.050187  0  -0.165609  -0.298311  0  3.940046  0
C  C153  1  0.88480439  0.94315556  0.90141198  1  -0.050195  0  -0.165571  -0.298353  0  3.940125  0
C  C154  1  0.38481240  0.55684738  0.90140896  1  -0.050122  0  -0.165578  -0.298244  0  3.939854  0
C  C155  1  0.11519123  0.05684839  0.09859082  1  -0.050132  0  -0.165516  -0.298084  0  3.939894  0
C  C156  1  0.48325322  0.45687764  0.02138789  1  -0.007981  0  -0.171288  -0.122778  0  3.960776  0
C  C157  1  0.01674171  0.95688075  0.97861232  1  -0.008026  0  -0.171258  -0.122728  0  3.960894  0
C  C158  1  0.51674380  0.54312233  0.97861083  1  0.017722  0  -0.17127  -0.122758  0  3.960749  0
C  C159  1  0.98325790  0.04312453  0.02139018  1  0.017671  0  -0.171336  -0.122834  0  3.960799  0
C  C160  1  0.42425866  0.36209573  0.35149742  1  1.576345  0  0.218963  0.645568  0  4.156378  0
C  C161  1  0.07574970  0.86210157  0.64850442  1  1.576411  0  0.219059  0.645665  0  4.156334  0
C  C162  1  0.57573572  0.63790490  0.64850051  1  1.576615  0  0.218891  0.645327  0  4.156762  0
C  C163  1  0.92426978  0.13790437  0.35150076  1  1.576567  0  0.218888  0.645463  0  4.156534  0
C  C164  1  0.39063440  0.44406313  0.39965833  1  -0.044607  0  -0.163521  -0.294762  0  3.933209  0
C  C165  1  0.10937650  0.94406631  0.60034129  1  -0.044741  0  -0.163549  -0.294817  0  3.933329  0
C  C166  1  0.60936923  0.55593353  0.60034208  1  -0.044595  0  -0.163513  -0.294711  0  3.933241  0
C  C167  1  0.89063112  0.05593366  0.39965823  1  -0.044629  0  -0.163493  -0.294709  0  3.933195  0
C  C168  1  0.52667180  0.46148727  0.47485511  1  0.000638  0  -0.173559  -0.126843  0  3.96557  0
C  C169  1  0.97333448  0.96148965  0.52514434  1  -0.026559  0  -0.173506  -0.126672  0  3.965367  0
C  C170  1  0.47333448  0.53850740  0.52514551  1  -0.026302  0  -0.173571  -0.126816  0  3.965639  0
C  C171  1  0.02666787  0.03850965  0.47485359  1  0.000771  0  -0.173545  -0.126803  0  3.965522  0
N  N172  1  0.41940849  0.14130976  0.98445284  1  -1.232574  0  -0.308816  -0.251081  0  3.395955  0
N  N173  1  0.08058966  0.64131116  0.01554830  1  -1.232629  0  -0.308879  -0.251184  0  3.396016  0
N  N174  1  0.58058054  0.85868689  0.01554707  1  -1.232543  0  -0.308905  -0.251167  0  3.396058  0
N  N175  1  0.91940730  0.35868616  0.98445401  1  -1.232676  0  -0.308875  -0.251188  0  3.396131  0
N  N176  1  0.57913391  0.14764774  0.51440453  1  -1.247454  0  -0.309529  -0.250658  0  3.40245  0
N  N177  1  0.92087029  0.64764419  0.48559426  1  -1.247111  0  -0.30955  -0.250649  0  3.402318  0
N  N178  1  0.42086578  0.85234958  0.48559320  1  -1.247225  0  -0.309545  -0.250636  0  3.402582  0
N  N179  1  0.07913069  0.35235445  0.51440596  1  -1.247149  0  -0.309513  -0.250645  0  3.402201  0
O  O180  1  0.43060052  0.32622081  0.13927689  1  -1.2265  0  -0.33985  -0.614497  0  2.240406  0
O  O181  1  0.06939204  0.82622195  0.86072080  1  -1.22627  0  -0.339885  -0.614581  0  2.240311  0
O  O182  1  0.56940446  0.67378115  0.86072243  1  -1.226536  0  -0.339879  -0.614552  0  2.24026  0
O  O183  1  0.93060231  0.17378134  0.13927833  1  -1.226361  0  -0.339919  -0.614592  0  2.240216  0
O  O184  1  0.71322052  0.33015733  0.19661575  1  -1.240616  0  -0.383264  -0.65334  0  2.257004  0
O  O185  1  0.78677278  0.83016568  0.80337978  1  -1.24076  0  -0.383296  -0.653311  0  2.257203  0
O  O186  1  0.28678848  0.66984264  0.80338149  1  -1.240718  0  -0.383243  -0.653261  0  2.257211  0
O  O187  1  0.21321489  0.16983893  0.19662182  1  -1.240679  0  -0.383327  -0.653318  0  2.25739  0
O  O188  1  0.29624171  0.33071049  0.30172989  1  -1.239805  0  -0.384846  -0.655529  0  2.26443  0
O  O189  1  0.20377602  0.83071361  0.69827088  1  -1.239349  0  -0.384919  -0.655682  0  2.264507  0
O  O190  1  0.70375392  0.66928815  0.69827291  1  -1.239772  0  -0.384806  -0.655447  0  2.264417  0
O  O191  1  0.79624487  0.16929034  0.30172964  1  -1.239701  0  -0.384847  -0.655571  0  2.264269  0
O  O192  1  0.57785111  0.32698804  0.36073151  1  -1.223518  0  -0.337155  -0.609097  0  2.226105  0
O  O193  1  0.92216064  0.82699505  0.63927257  1  -1.223829  0  -0.337215  -0.609125  0  2.225973  0
O  O194  1  0.42214997  0.67301193  0.63926275  1  -1.223784  0  -0.337127  -0.608995  0  2.226331  0
O  O195  1  0.07785079  0.17301022  0.36073798  1  -1.223792  0  -0.337086  -0.608992  0  2.226387  0
O  O196  1  0.58395913  0.87343441  0.64404112  1  -1.323129  0  -0.633434  -0.820336  0  2.062057  0
O  O197  1  0.91604470  0.37343587  0.35595519  1  -1.323249  0  -0.633437  -0.82033  0  2.062053  0
O  O198  1  0.41605649  0.12656424  0.35595662  1  -1.323309  0  -0.633458  -0.820293  0  2.062024  0
O  O199  1  0.08395364  0.62656808  0.64404423  1  -1.323272  0  -0.633461  -0.820341  0  2.062043  0
O  O200  1  0.40739720  0.87662294  0.85656658  1  -1.320461  0  -0.629983  -0.817718  0  2.057706  0
O  O201  1  0.09260054  0.37662262  0.14343327  1  -1.320501  0  -0.630003  -0.817714  0  2.057642  0
O  O202  1  0.59260776  0.12337570  0.14343334  1  -1.320486  0  -0.630033  -0.817851  0  2.057605  0
O  O203  1  0.90739513  0.62337868  0.85656655  1  -1.320603  0  -0.630086  -0.817849  0  2.057572  0
