# generated using pymatgen
data_ZnH8C11(N3O)2
_symmetry_space_group_name_H-M   'P 1'
_cell_length_a   9.01378967
_cell_length_b   10.16651605
_cell_length_c   18.71344814
_cell_angle_alpha   90.00024270
_cell_angle_beta   90.00039293
_cell_angle_gamma   90.00010053
_symmetry_Int_Tables_number   1
_chemical_formula_structural   ZnH8C11(N3O)2
_chemical_formula_sum   'Zn4 H32 C44 N24 O8'
_cell_volume   1714.87863088
_cell_formula_units_Z   4
loop_
 _symmetry_equiv_pos_site_id
 _symmetry_equiv_pos_as_xyz
  1  'x, y, z'
loop_
 _atom_site_type_symbol
 _atom_site_label
 _atom_site_symmetry_multiplicity
 _atom_site_fract_x
 _atom_site_fract_y
 _atom_site_fract_z
 _atom_site_occupancy
 _atom_site_hle17_bader_spin_density
 _atom_site_hle17_ddec_charge
 _atom_site_hle17_ddec_spin_density
 _atom_site_hle17_ddec_sum_bond_order
 _atom_site_hle17_magmom
 _atom_site_hse06_10hf_bader_spin_density
 _atom_site_hse06_10hf_ddec_charge
 _atom_site_hse06_10hf_ddec_spin_density
 _atom_site_hse06_10hf_ddec_sum_bond_order
 _atom_site_hse06_10hf_magmom
 _atom_site_hse06_bader_spin_density
 _atom_site_hse06_ddec_charge
 _atom_site_hse06_ddec_spin_density
 _atom_site_hse06_ddec_sum_bond_order
 _atom_site_hse06_magmom
 _atom_site_pbe_bader_spin_density
 _atom_site_pbe_cm5_charge
 _atom_site_pbe_ddec_charge
 _atom_site_pbe_ddec_spin_density
 _atom_site_pbe_ddec_sum_bond_order
 _atom_site_pbe_magmom
Zn  Zn0  1  0.86752129  0.98524242  0.40248265  1  0  0.937021  0  1.978107  0  0  0.736131  0  2.467305  0  0  0.777052  0  2.419745  0  0  0.723227  0.707708  0  2.500164  0
Zn  Zn1  1  0.36752227  0.01475791  0.59751905  1  0  0.936927  0  1.978182  0  0  0.73604  0  2.467386  0  0  0.776955  0  2.419828  0  0  0.72319  0.707609  0  2.500239  0
Zn  Zn2  1  0.86752328  0.51475968  0.90248082  1  0  0.936952  0  1.978214  0  0  0.736087  0  2.467422  0  0  0.777007  0  2.419861  0  0  0.723185  0.707646  0  2.500271  0
Zn  Zn3  1  0.36752028  0.48523966  0.09751874  1  0  0.936923  0  1.978206  0  0  0.736054  0  2.4674  0  0  0.776976  0  2.419846  0  0  0.723196  0.707634  0  2.500259  0
H  H4  1  0.18115914  0.05270536  0.46646490  1  0  0.08295  0  0.966231  0  0  0.089607  0  1.034674  0  0  0.092406  0  1.030839  0  0  0.125924  0.087475  0  1.037504  0
H  H5  1  0.68116106  0.94729271  0.53353724  1  0  0.0829  0  0.966243  0  0  0.089573  0  1.034678  0  0  0.092375  0  1.030837  0  0  0.12589  0.087438  0  1.037505  0
H  H6  1  0.18115754  0.44728986  0.96646674  1  0  0.082996  0  0.966133  0  0  0.089608  0  1.034624  0  0  0.092407  0  1.030787  0  0  0.125939  0.087469  0  1.037448  0
H  H7  1  0.68116045  0.55271213  0.03353594  1  0  0.08295  0  0.96624  0  0  0.08956  0  1.034734  0  0  0.092358  0  1.030899  0  0  0.125898  0.08743  0  1.037564  0
H  H8  1  0.74831171  0.62023016  0.60634985  1  0  0.049184  0  0.912141  0  0  0.059031  0  0.971206  0  0  0.061462  0  0.967731  0  0  0.112997  0.057221  0  0.97376  0
H  H9  1  0.24830717  0.37976800  0.39365519  1  0  0.049174  0  0.912117  0  0  0.058988  0  0.971225  0  0  0.061418  0  0.96775  0  0  0.112949  0.057175  0  0.97378  0
H  H10  1  0.74830951  0.87977141  0.10634503  1  0  0.049071  0  0.912222  0  0  0.058955  0  0.971264  0  0  0.061386  0  0.96779  0  0  0.112934  0.057141  0  0.973819  0
H  H11  1  0.24831158  0.12023462  0.89365200  1  0  0.049144  0  0.91224  0  0  0.05901  0  0.971284  0  0  0.06144  0  0.96781  0  0  0.112971  0.057199  0  0.973841  0
H  H12  1  0.16004291  0.67823532  0.73557901  1  0  0.346011  0  0.909873  0  0  0.327293  0  0.976725  0  0  0.335429  0  0.969467  0  0  0.297297  0.321629  0  0.981635  0
H  H13  1  0.66003535  0.32176172  0.26442253  1  0  0.345957  0  0.90999  0  0  0.327221  0  0.97686  0  0  0.335356  0  0.969605  0  0  0.2973  0.321559  0  0.981767  0
H  H14  1  0.16004060  0.82176436  0.23557993  1  0  0.345998  0  0.909894  0  0  0.327281  0  0.976741  0  0  0.335417  0  0.969484  0  0  0.297291  0.321619  0  0.981649  0
H  H15  1  0.66003766  0.17823859  0.76442215  1  0  0.346031  0  0.909951  0  0  0.32729  0  0.976821  0  0  0.335424  0  0.969566  0  0  0.297319  0.321629  0  0.981732  0
H  H16  1  0.27719208  0.78886605  0.68918596  1  0  0.327851  0  0.929887  0  0  0.308639  0  0.997923  0  0  0.316169  0  0.991693  0  0  0.294617  0.30326  0  1.002346  0
H  H17  1  0.77718163  0.21113019  0.31081597  1  0  0.327786  0  0.929896  0  0  0.308607  0  0.997898  0  0  0.316139  0  0.991665  0  0  0.294609  0.303228  0  1.002329  0
H  H18  1  0.27718512  0.71113247  0.18918608  1  0  0.327892  0  0.929746  0  0  0.30867  0  0.997797  0  0  0.316201  0  0.991564  0  0  0.294635  0.303293  0  1.002221  0
H  H19  1  0.77718860  0.28886968  0.81081424  1  0  0.327877  0  0.92981  0  0  0.308632  0  0.997879  0  0  0.316163  0  0.991646  0  0  0.294623  0.303258  0  1.0023  0
H  H20  1  0.01355717  0.32897322  0.28934954  1  0  0.112786  0  0.944494  0  0  0.123213  0  1.001343  0  0  0.126904  0  0.999697  0  0  0.11389  0.12034  0  1.003018  0
H  H21  1  0.51356551  0.67102458  0.71064725  1  0  0.112797  0  0.944501  0  0  0.123222  0  1.001342  0  0  0.126913  0  0.999696  0  0  0.113908  0.120349  0  1.003017  0
H  H22  1  0.01355724  0.17102725  0.78934486  1  0  0.112743  0  0.944603  0  0  0.123206  0  1.001409  0  0  0.126897  0  0.999762  0  0  0.1139  0.120334  0  1.003084  0
H  H23  1  0.51355767  0.82896662  0.21065299  1  0  0.112739  0  0.944587  0  0  0.1232  0  1.001403  0  0  0.126891  0  0.999756  0  0  0.113884  0.120327  0  1.003077  0
H  H24  1  0.13861845  0.48865208  0.20652981  1  0  0.077577  0  0.948652  0  0  0.084447  0  1.014645  0  0  0.086947  0  1.012963  0  0  0.117679  0.083081  0  1.015229  0
H  H25  1  0.63863099  0.51134296  0.79346418  1  0  0.077579  0  0.948561  0  0  0.084497  0  1.014528  0  0  0.086997  0  1.012842  0  0  0.117669  0.083129  0  1.01511  0
H  H26  1  0.13862709  0.01134597  0.70653171  1  0  0.07756  0  0.948607  0  0  0.084384  0  1.014639  0  0  0.086884  0  1.012955  0  0  0.11763  0.083016  0  1.015223  0
H  H27  1  0.63862124  0.98864908  0.29346816  1  0  0.077589  0  0.948668  0  0  0.084422  0  1.014691  0  0  0.08692  0  1.01301  0  0  0.117651  0.083055  0  1.015272  0
H  H28  1  0.41473009  0.19775391  0.12629672  1  0  0.088592  0  0.913828  0  0  0.09952  0  0.969275  0  0  0.10205  0  0.967291  0  0  0.126357  0.097553  0  0.970938  0
H  H29  1  0.91473990  0.80224354  0.87370139  1  0  0.088575  0  0.913773  0  0  0.099508  0  0.969221  0  0  0.102037  0  0.967234  0  0  0.126346  0.097541  0  0.970887  0
H  H30  1  0.41473375  0.30224592  0.62629502  1  0  0.088515  0  0.913805  0  0  0.09946  0  0.969243  0  0  0.101987  0  0.967263  0  0  0.12635  0.097496  0  0.970908  0
H  H31  1  0.91473735  0.69775743  0.37370523  1  0  0.088539  0  0.913784  0  0  0.099472  0  0.969228  0  0  0.102001  0  0.967244  0  0  0.126361  0.097506  0  0.97089  0
H  H32  1  0.30029140  0.02631586  0.20714247  1  0  0.111751  0  0.946557  0  0  0.120818  0  1.005896  0  0  0.124437  0  1.004482  0  0  0.112914  0.118425  0  1.006621  0
H  H33  1  0.80030150  0.97368141  0.79285526  1  0  0.11175  0  0.946443  0  0  0.12083  0  1.005799  0  0  0.124454  0  1.004381  0  0  0.112906  0.118436  0  1.006526  0
H  H34  1  0.30028985  0.47368639  0.70713743  1  0  0.11168  0  0.946584  0  0  0.120771  0  1.005898  0  0  0.124393  0  1.004484  0  0  0.112887  0.118375  0  1.006624  0
H  H35  1  0.80029640  0.52631481  0.29286244  1  0  0.111694  0  0.946583  0  0  0.120788  0  1.005904  0  0  0.12441  0  1.004488  0  0  0.112884  0.118394  0  1.006628  0
C  C36  1  0.12831234  0.97491811  0.49726940  1  0  0.257708  0  3.709039  0  0  0.202532  0  3.972048  0  0  0.220012  0  3.982272  0  0  0.142249  0.191266  0  3.964719  0
C  C37  1  0.62831203  0.02508085  0.50273311  1  0  0.257773  0  3.708984  0  0  0.202581  0  3.971994  0  0  0.220061  0  3.982217  0  0  0.142274  0.191324  0  3.964654  0
C  C38  1  0.12830991  0.52507962  0.99727133  1  0  0.257567  0  3.708999  0  0  0.202425  0  3.972018  0  0  0.219906  0  3.982241  0  0  0.142171  0.191173  0  3.964666  0
C  C39  1  0.62831335  0.47492426  0.00273118  1  0  0.257621  0  3.709015  0  0  0.202479  0  3.972035  0  0  0.219961  0  3.982257  0  0  0.142183  0.191211  0  3.96471  0
C  C40  1  0.84503906  0.68345639  0.59806140  1  0  0.290931  0  3.835331  0  0  0.246595  0  4.126847  0  0  0.262954  0  4.137194  0  0  0.147413  0.235918  0  4.119534  0
C  C41  1  0.34503452  0.31654193  0.40194289  1  0  0.291052  0  3.835263  0  0  0.246748  0  4.126737  0  0  0.263106  0  4.137085  0  0  0.147487  0.236072  0  4.119418  0
C  C42  1  0.84503896  0.81654724  0.09805696  1  0  0.291083  0  3.835323  0  0  0.246725  0  4.126835  0  0  0.263083  0  4.137182  0  0  0.147502  0.236049  0  4.119516  0
C  C43  1  0.34503795  0.18345993  0.90193985  1  0  0.290989  0  3.835468  0  0  0.246641  0  4.126964  0  0  0.263001  0  4.137312  0  0  0.14745  0.23596  0  4.119651  0
C  C44  1  0.07348272  0.75126089  0.64254853  1  0  0.442688  0  3.889569  0  0  0.413221  0  4.159647  0  0  0.433499  0  4.172453  0  0  0.227182  0.39959  0  4.150583  0
C  C45  1  0.57347523  0.24873700  0.35745326  1  0  0.442737  0  3.889694  0  0  0.413067  0  4.16003  0  0  0.433373  0  4.172803  0  0  0.227062  0.399425  0  4.150978  0
C  C46  1  0.07347916  0.74874285  0.14254767  1  0  0.442664  0  3.889648  0  0  0.413136  0  4.159792  0  0  0.433433  0  4.172578  0  0  0.227215  0.399499  0  4.150742  0
C  C47  1  0.57347768  0.25126881  0.85745091  1  0  0.442728  0  3.889758  0  0  0.413116  0  4.159973  0  0  0.43342  0  4.172748  0  0  0.227055  0.399477  0  4.150918  0
C  C48  1  0.08432909  0.83461567  0.58199166  1  0  -0.059839  0  3.792248  0  0  -0.052226  0  4.027845  0  0  -0.059484  0  4.052968  0  0  0.066382  -0.048078  0  4.011488  0
C  C49  1  0.58432451  0.16538125  0.41801124  1  0  -0.060023  0  3.792417  0  0  -0.052275  0  4.027932  0  0  -0.059549  0  4.053061  0  0  0.066446  -0.048118  0  4.011576  0
C  C50  1  0.08432648  0.66538762  0.08199061  1  0  -0.059942  0  3.792245  0  0  -0.052286  0  4.027808  0  0  -0.059558  0  4.052939  0  0  0.066373  -0.048129  0  4.011456  0
C  C51  1  0.58432602  0.33462209  0.91800855  1  0  -0.06002  0  3.792536  0  0  -0.052249  0  4.027969  0  0  -0.059523  0  4.053098  0  0  0.06642  -0.048094  0  4.011612  0
C  C52  1  0.96527009  0.83274533  0.53328910  1  0  0.329119  0  3.886413  0  0  0.302531  0  4.150003  0  0  0.315633  0  4.17015  0  0  0.197742  0.294107  0  4.136142  0
C  C53  1  0.46526617  0.16725416  0.46671238  1  0  0.329291  0  3.8862  0  0  0.302701  0  4.149758  0  0  0.315805  0  4.169903  0  0  0.19775  0.294272  0  4.135895  0
C  C54  1  0.96526969  0.66725602  0.03328699  1  0  0.32916  0  3.886279  0  0  0.302576  0  4.149855  0  0  0.315681  0  4.170001  0  0  0.197719  0.294159  0  4.135978  0
C  C55  1  0.46526989  0.33274937  0.96671129  1  0  0.329237  0  3.886214  0  0  0.302637  0  4.14978  0  0  0.315741  0  4.169929  0  0  0.19776  0.294196  0  4.135936  0
C  C56  1  0.07572065  0.06768125  0.30301598  1  0  0.640798  0  3.906356  0  0  0.590229  0  4.20132  0  0  0.623013  0  4.193691  0  0  0.211593  0.568022  0  4.205687  0
C  C57  1  0.57572154  0.93231271  0.69698208  1  0  0.640665  0  3.906434  0  0  0.590114  0  4.201415  0  0  0.622892  0  4.193793  0  0  0.211547  0.567913  0  4.205784  0
C  C58  1  0.07571125  0.43231646  0.80301137  1  0  0.640881  0  3.906578  0  0  0.590384  0  4.201484  0  0  0.623168  0  4.193859  0  0  0.211695  0.568172  0  4.205854  0
C  C59  1  0.57572096  0.56767258  0.19699042  1  0  0.640936  0  3.906278  0  0  0.590387  0  4.201267  0  0  0.623168  0  4.193643  0  0  0.211668  0.56818  0  4.205633  0
C  C60  1  0.10166522  0.29696218  0.25363255  1  0  -0.111589  0  3.707604  0  0  -0.133889  0  3.952853  0  0  -0.139775  0  3.973767  0  0  -0.07091  -0.130186  0  3.93914  0
C  C61  1  0.60167191  0.70303674  0.74636346  1  0  -0.11162  0  3.70757  0  0  -0.133885  0  3.952831  0  0  -0.139771  0  3.973746  0  0  -0.070934  -0.130183  0  3.939122  0
C  C62  1  0.10166646  0.20303913  0.75363009  1  0  -0.11161  0  3.707718  0  0  -0.133953  0  3.953001  0  0  -0.139841  0  3.973914  0  0  -0.071008  -0.130253  0  3.939291  0
C  C63  1  0.60166401  0.79695684  0.24636966  1  0  -0.111484  0  3.707547  0  0  -0.133825  0  3.952839  0  0  -0.139713  0  3.973752  0  0  -0.07089  -0.130123  0  3.939128  0
C  C64  1  0.14764353  0.16566355  0.25372171  1  0  0.007675  0  3.713345  0  0  0.025466  0  3.943877  0  0  0.023712  0  3.964679  0  0  0.012244  0.026691  0  3.929829  0
C  C65  1  0.64765048  0.83433544  0.74627658  1  0  0.007573  0  3.713426  0  0  0.025283  0  3.944119  0  0  0.023524  0  3.964934  0  0  0.012191  0.026504  0  3.930075  0
C  C66  1  0.14764503  0.33433881  0.75371849  1  0  0.007587  0  3.713309  0  0  0.025277  0  3.943981  0  0  0.023524  0  3.964784  0  0  0.012247  0.026504  0  3.92993  0
C  C67  1  0.64764898  0.66566018  0.24628248  1  0  0.007547  0  3.713427  0  0  0.025278  0  3.944098  0  0  0.023526  0  3.964902  0  0  0.012243  0.026505  0  3.930049  0
C  C68  1  0.17069588  0.38514861  0.20804202  1  0  0.1349  0  3.690857  0  0  0.104228  0  3.940121  0  0  0.110669  0  3.957831  0  0  0.05495  0.099996  0  3.927721  0
C  C69  1  0.67070638  0.61484845  0.79195474  1  0  0.13499  0  3.690695  0  0  0.10431  0  3.939933  0  0  0.110755  0  3.957644  0  0  0.055084  0.10007  0  3.927534  0
C  C70  1  0.17070028  0.11485147  0.70804149  1  0  0.13504  0  3.690846  0  0  0.10447  0  3.940039  0  0  0.110911  0  3.95775  0  0  0.055117  0.100232  0  3.927643  0
C  C71  1  0.67069864  0.88514756  0.29195795  1  0  0.134928  0  3.69087  0  0  0.104319  0  3.94011  0  0  0.110761  0  3.957819  0  0  0.055048  0.100087  0  3.92771  0
C  C72  1  0.32577113  0.22182123  0.16352918  1  0  0.144893  0  3.679633  0  0  0.109976  0  3.934566  0  0  0.117129  0  3.950903  0  0  0.061819  0.105212  0  3.923703  0
C  C73  1  0.82578258  0.77817805  0.83646756  1  0  0.144885  0  3.679574  0  0  0.110005  0  3.93455  0  0  0.117164  0  3.950884  0  0  0.061817  0.105233  0  3.923689  0
C  C74  1  0.32577696  0.27818171  0.66352850  1  0  0.144986  0  3.679516  0  0  0.110053  0  3.934488  0  0  0.11721  0  3.950821  0  0  0.061803  0.10528  0  3.923633  0
C  C75  1  0.82577564  0.72181954  0.33647199  1  0  0.14493  0  3.679559  0  0  0.110026  0  3.934492  0  0  0.117181  0  3.950826  0  0  0.061785  0.10526  0  3.923631  0
C  C76  1  0.26246169  0.12799176  0.20802157  1  0  -0.105351  0  3.690649  0  0  -0.125629  0  3.932588  0  0  -0.131424  0  3.95357  0  0  -0.06667  -0.121791  0  3.918153  0
C  C77  1  0.76247158  0.87200643  0.79197657  1  0  -0.105262  0  3.690574  0  0  -0.125569  0  3.932614  0  0  -0.131367  0  3.953596  0  0  -0.066628  -0.121731  0  3.918184  0
C  C78  1  0.26245994  0.37201142  0.70801736  1  0  -0.105245  0  3.690637  0  0  -0.125507  0  3.9326  0  0  -0.131302  0  3.953575  0  0  -0.066624  -0.121669  0  3.918167  0
C  C79  1  0.76246224  0.62798776  0.29198238  1  0  -0.105295  0  3.690783  0  0  -0.125585  0  3.932748  0  0  -0.131384  0  3.953732  0  0  -0.06665  -0.121745  0  3.918312  0
N  N80  1  0.99571204  0.92232451  0.47987098  1  0  -0.481988  0  3.250617  0  0  -0.394963  0  3.552392  0  0  -0.418356  0  3.558771  0  0  -0.37638  -0.379185  0  3.547503  0
N  N81  1  0.49571537  0.07767602  0.52013113  1  0  -0.482015  0  3.250522  0  0  -0.395031  0  3.552351  0  0  -0.41842  0  3.558721  0  0  -0.376408  -0.37925  0  3.54745  0
N  N82  1  0.99571415  0.57767544  0.97986983  1  0  -0.481951  0  3.250601  0  0  -0.394942  0  3.552382  0  0  -0.418335  0  3.558758  0  0  -0.37638  -0.379164  0  3.547472  0
N  N83  1  0.49571547  0.42233099  0.02012961  1  0  -0.481927  0  3.250486  0  0  -0.394966  0  3.55232  0  0  -0.418359  0  3.558695  0  0  -0.376345  -0.379187  0  3.547439  0
N  N84  1  0.84240497  0.75813464  0.53906861  1  0  -0.473438  0  3.038886  0  0  -0.442473  0  3.315411  0  0  -0.458675  0  3.325225  0  0  -0.357819  -0.431657  0  3.308539  0
N  N85  1  0.34240112  0.24186466  0.46093621  1  0  -0.473598  0  3.038945  0  0  -0.442637  0  3.315463  0  0  -0.458841  0  3.325274  0  0  -0.357867  -0.431816  0  3.308582  0
N  N86  1  0.84240473  0.74186754  0.03906453  1  0  -0.473486  0  3.038921  0  0  -0.442521  0  3.315451  0  0  -0.458724  0  3.325263  0  0  -0.357819  -0.431699  0  3.308563  0
N  N87  1  0.34240470  0.25813864  0.96093280  1  0  -0.47351  0  3.038898  0  0  -0.442546  0  3.31543  0  0  -0.458748  0  3.325241  0  0  -0.357859  -0.431727  0  3.308563  0
N  N88  1  0.18724133  0.92630194  0.55777940  1  0  -0.429751  0  3.269596  0  0  -0.351015  0  3.564038  0  0  -0.371304  0  3.575964  0  0  -0.37292  -0.337318  0  3.556034  0
N  N89  1  0.68723803  0.07369614  0.44222223  1  0  -0.429725  0  3.269629  0  0  -0.351001  0  3.564036  0  0  -0.371287  0  3.575964  0  0  -0.372911  -0.337307  0  3.556033  0
N  N90  1  0.18723742  0.57370035  0.05777974  1  0  -0.429649  0  3.269465  0  0  -0.350904  0  3.56385  0  0  -0.371191  0  3.575782  0  0  -0.372871  -0.337215  0  3.555846  0
N  N91  1  0.68723971  0.42630658  0.94222136  1  0  -0.429667  0  3.26966  0  0  -0.350938  0  3.564028  0  0  -0.371223  0  3.575952  0  0  -0.372859  -0.33724  0  3.556022  0
N  N92  1  0.95010732  0.67602443  0.64875826  1  0  -0.483359  0  3.009127  0  0  -0.451118  0  3.282891  0  0  -0.47012  0  3.294781  0  0  -0.35715  -0.438393  0  3.274667  0
N  N93  1  0.45009874  0.32397504  0.35124424  1  0  -0.483415  0  3.008931  0  0  -0.451111  0  3.282726  0  0  -0.470118  0  3.294604  0  0  -0.357085  -0.438381  0  3.274506  0
N  N94  1  0.95010280  0.82398173  0.14875597  1  0  -0.483317  0  3.008896  0  0  -0.451072  0  3.282692  0  0  -0.470077  0  3.294572  0  0  -0.357136  -0.438339  0  3.274473  0
N  N95  1  0.45010326  0.17602954  0.85124172  1  0  -0.483331  0  3.009042  0  0  -0.451063  0  3.282854  0  0  -0.470071  0  3.294732  0  0  -0.357107  -0.438337  0  3.274635  0
N  N96  1  0.17619017  0.74497486  0.69519425  1  0  -0.679986  0  3.105465  0  0  -0.639696  0  3.334129  0  0  -0.661315  0  3.329865  0  0  -0.575449  -0.624286  0  3.335996  0
N  N97  1  0.67618194  0.25502320  0.30480895  1  0  -0.679836  0  3.105713  0  0  -0.639518  0  3.334486  0  0  -0.661143  0  3.330215  0  0  -0.575405  -0.624103  0  3.336354  0
N  N98  1  0.17618662  0.75502749  0.19519234  1  0  -0.680007  0  3.105489  0  0  -0.639695  0  3.334214  0  0  -0.661318  0  3.329944  0  0  -0.575465  -0.62428  0  3.33608  0
N  N99  1  0.67618438  0.24497942  0.80480605  1  0  -0.680051  0  3.105678  0  0  -0.639676  0  3.33448  0  0  -0.661303  0  3.330208  0  0  -0.575445  -0.624272  0  3.336353  0
N  N100  1  0.28008569  0.34777093  0.16346780  1  0  -0.313582  0  3.331837  0  0  -0.230061  0  3.615043  0  0  -0.247099  0  3.628336  0  0  -0.328284  -0.218637  0  3.606213  0
N  N101  1  0.78009690  0.65222828  0.83652826  1  0  -0.31358  0  3.3318  0  0  -0.230152  0  3.615143  0  0  -0.247197  0  3.628433  0  0  -0.328349  -0.218713  0  3.606295  0
N  N102  1  0.28009350  0.15223095  0.66346896  1  0  -0.313593  0  3.331775  0  0  -0.230114  0  3.614985  0  0  -0.247152  0  3.628274  0  0  -0.328289  -0.21868  0  3.606145  0
N  N103  1  0.78008688  0.84776727  0.33653298  1  0  -0.313586  0  3.331785  0  0  -0.230082  0  3.61497  0  0  -0.247119  0  3.628259  0  0  -0.328297  -0.218654  0  3.606137  0
O  O104  1  0.96209508  0.11400573  0.33787799  1  0  -0.650169  0  2.064854  0  0  -0.570525  0  2.329256  0  0  -0.598688  0  2.314276  0  0  -0.330584  -0.5507  0  2.338872  0
O  O105  1  0.46210089  0.88598983  0.66212028  1  0  -0.650078  0  2.064955  0  0  -0.570414  0  2.329337  0  0  -0.598563  0  2.314363  0  0  -0.330569  -0.550588  0  2.338938  0
O  O106  1  0.96209557  0.38598973  0.83787809  1  0  -0.650175  0  2.064963  0  0  -0.570556  0  2.329352  0  0  -0.598719  0  2.314375  0  0  -0.330605  -0.550728  0  2.338958  0
O  O107  1  0.46209818  0.61400189  0.16212339  1  0  -0.650172  0  2.064606  0  0  -0.570553  0  2.329039  0  0  -0.598712  0  2.314064  0  0  -0.330637  -0.55073  0  2.338655  0
O  O108  1  0.12614208  0.95410199  0.30893315  1  0  -0.593329  0  1.914573  0  0  -0.551813  0  2.129172  0  0  -0.573173  0  2.120234  0  0  -0.310279  -0.537191  0  2.134936  0
O  O109  1  0.62613894  0.04589894  0.69106881  1  0  -0.593295  0  1.914498  0  0  -0.551767  0  2.129086  0  0  -0.573129  0  2.120155  0  0  -0.310284  -0.537146  0  2.13485  0
O  O110  1  0.12612860  0.54589919  0.80892926  1  0  -0.593403  0  1.914732  0  0  -0.551903  0  2.129301  0  0  -0.573264  0  2.120364  0  0  -0.310396  -0.537284  0  2.135066  0
O  O111  1  0.62613578  0.45409780  0.19106897  1  0  -0.593375  0  1.914703  0  0  -0.551846  0  2.129292  0  0  -0.573206  0  2.120358  0  0  -0.310329  -0.537227  0  2.135057  0
