# generated using pymatgen
data_NdCoH14C14(N5O2)2
_symmetry_space_group_name_H-M   'P 1'
_cell_length_a   8.86217746
_cell_length_b   8.85884377
_cell_length_c   14.86024147
_cell_angle_alpha   78.83775406
_cell_angle_beta   87.62517468
_cell_angle_gamma   66.08018850
_symmetry_Int_Tables_number   1
_chemical_formula_structural   NdCoH14C14(N5O2)2
_chemical_formula_sum   'Nd2 Co2 H28 C28 N20 O8'
_cell_volume   1045.38993159
_cell_formula_units_Z   2
loop_
 _symmetry_equiv_pos_site_id
 _symmetry_equiv_pos_as_xyz
  1  'x, y, z'
loop_
 _atom_site_type_symbol
 _atom_site_label
 _atom_site_symmetry_multiplicity
 _atom_site_fract_x
 _atom_site_fract_y
 _atom_site_fract_z
 _atom_site_occupancy
 _atom_site_hle17_bader_spin_density
 _atom_site_hle17_ddec_charge
 _atom_site_hle17_ddec_spin_density
 _atom_site_hle17_ddec_sum_bond_order
 _atom_site_hle17_magmom
 _atom_site_hse06_10hf_bader_spin_density
 _atom_site_hse06_10hf_ddec_charge
 _atom_site_hse06_10hf_ddec_spin_density
 _atom_site_hse06_10hf_ddec_sum_bond_order
 _atom_site_hse06_10hf_magmom
 _atom_site_hse06_bader_spin_density
 _atom_site_hse06_ddec_charge
 _atom_site_hse06_ddec_spin_density
 _atom_site_hse06_ddec_sum_bond_order
 _atom_site_hse06_magmom
 _atom_site_pbe_bader_spin_density
 _atom_site_pbe_cm5_charge
 _atom_site_pbe_ddec_charge
 _atom_site_pbe_ddec_spin_density
 _atom_site_pbe_ddec_sum_bond_order
 _atom_site_pbe_magmom
Nd  Nd0  1  0.54963857  0.87585771  0.72009817  1  0  2.262891  0  1.642039  0  0  2.066154  0  2.136385  0  0  2.168974  0  1.971034  0  0  1.546016  2.037545  0  2.16688  0
Nd  Nd1  1  0.45026871  0.12414240  0.27992165  1  0  2.262546  0  1.642323  0  0  2.065875  0  2.136583  0  0  2.168622  0  1.971353  0  0  1.545752  2.037256  0  2.167091  0
Co  Co2  1  0.00005686  0.99969164  0.50000667  1  0  0.02135  0  4.534443  0  0  0.146859  0  4.852416  0  0  0.139653  0  4.847876  0  0  0.50404  0.162607  0  4.847234  0
Co  Co3  1  0.99998848  0.50000104  0.00001019  1  0  0.025561  0  4.564453  0  0  0.154749  0  4.878107  0  0  0.147182  0  4.873425  0  0  0.504872  0.170712  0  4.872545  0
H  H4  1  0.91321511  0.86118498  0.81088753  1  0  0.084475  0  0.956999  0  0  0.09123  0  1.022937  0  0  0.092253  0  1.023004  0  0  0.128047  0.090332  0  1.023258  0
H  H5  1  0.08683222  0.13879460  0.18903690  1  0  0.084597  0  0.956933  0  0  0.091289  0  1.022922  0  0  0.092308  0  1.023001  0  0  0.12811  0.09039  0  1.023241  0
H  H6  1  0.04432195  0.03761338  0.86082777  1  0  0.13676  0  0.936857  0  0  0.142769  0  0.997024  0  0  0.146727  0  0.99576  0  0  0.122625  0.13994  0  0.998067  0
H  H7  1  0.95570918  0.96233471  0.13912252  1  0  0.136832  0  0.936925  0  0  0.142802  0  0.997127  0  0  0.146754  0  0.995852  0  0  0.122676  0.13997  0  0.998173  0
H  H8  1  0.87747942  0.35611733  0.82391473  1  0  0.084999  0  0.954505  0  0  0.093338  0  1.018286  0  0  0.094402  0  1.018152  0  0  0.12406  0.092527  0  1.018391  0
H  H9  1  0.12253509  0.64381405  0.17612215  1  0  0.085106  0  0.954792  0  0  0.093475  0  1.01846  0  0  0.094541  0  1.01833  0  0  0.124116  0.09266  0  1.018577  0
H  H10  1  0.11968953  0.67586549  0.70853575  1  0  0.087353  0  0.927364  0  0  0.097503  0  0.986997  0  0  0.098899  0  0.986218  0  0  0.127546  0.096433  0  0.987494  0
H  H11  1  0.88029909  0.32411678  0.29155093  1  0  0.08745  0  0.927407  0  0  0.09743  0  0.987235  0  0  0.098919  0  0.986341  0  0  0.127498  0.096362  0  0.987726  0
H  H12  1  0.96983897  0.50593079  0.66849426  1  0  0.131869  0  0.950813  0  0  0.137371  0  1.0146  0  0  0.141062  0  1.013239  0  0  0.12151  0.134683  0  1.015784  0
H  H13  1  0.03018679  0.49411521  0.33146310  1  0  0.131732  0  0.95084  0  0  0.137312  0  1.014609  0  0  0.141005  0  1.01324  0  0  0.12151  0.134623  0  1.015793  0
H  H14  1  0.13788915  0.19352689  0.68070094  1  0  0.081511  0  0.954264  0  0  0.089019  0  1.019579  0  0  0.089968  0  1.020324  0  0  0.124898  0.088176  0  1.0195  0
H  H15  1  0.86210622  0.80653200  0.31916911  1  0  0.081097  0  0.954468  0  0  0.088911  0  1.019483  0  0  0.089852  0  1.020241  0  0  0.124904  0.088062  0  1.019424  0
H  H16  1  0.69949268  0.54959242  0.60524981  1  0  0.438459  0  0.84707  0  0  0.40742  0  0.910207  0  0  0.418958  0  0.893102  0  0  0.295731  0.399511  0  0.921954  0
H  H17  1  0.30020366  0.45056629  0.39470549  1  0  0.438643  0  0.847066  0  0  0.407265  0  0.910863  0  0  0.418845  0  0.893691  0  0  0.295431  0.399347  0  0.922626  0
H  H18  1  0.62469011  0.52666044  0.70011410  1  0  0.396504  0  0.927475  0  0  0.358903  0  1.004605  0  0  0.36954  0  0.989564  0  0  0.291313  0.351173  0  1.015733  0
H  H19  1  0.37538395  0.47318313  0.29993840  1  0  0.396073  0  0.928045  0  0  0.358566  0  1.005008  0  0  0.3692  0  0.989974  0  0  0.291284  0.350836  0  1.016136  0
H  H20  1  0.34780481  0.71613979  0.85239976  1  0  0.437997  0  0.861981  0  0  0.403101  0  0.9316  0  0  0.414757  0  0.914621  0  0  0.292505  0.394935  0  0.943566  0
H  H21  1  0.65220393  0.28382662  0.14767515  1  0  0.438304  0  0.861571  0  0  0.403327  0  0.931277  0  0  0.414967  0  0.914325  0  0  0.292601  0.395166  0  0.943236  0
H  H22  1  0.40490524  0.60739914  0.77380575  1  0  0.401294  0  0.920807  0  0  0.359542  0  1.003238  0  0  0.370934  0  0.987142  0  0  0.289176  0.351634  0  1.014476  0
H  H23  1  0.59508994  0.39259062  0.22625630  1  0  0.401616  0  0.920473  0  0  0.359712  0  1.003148  0  0  0.371101  0  0.987053  0  0  0.289105  0.351807  0  1.014379  0
H  H24  1  0.38529208  0.03208031  0.89660705  1  0  0.437562  0  0.869299  0  0  0.396482  0  0.948367  0  0  0.408831  0  0.93036  0  0  0.289173  0.387942  0  0.96086  0
H  H25  1  0.61466960  0.96803369  0.10338848  1  0  0.437616  0  0.869163  0  0  0.396636  0  0.948151  0  0  0.408987  0  0.930138  0  0  0.289135  0.388097  0  0.960644  0
H  H26  1  0.52349238  0.84436721  0.93099718  1  0  0.450339  0  0.80235  0  0  0.433069  0  0.849745  0  0  0.44077  0  0.838946  0  0  0.332221  0.427791  0  0.857267  0
H  H27  1  0.47659432  0.15578986  0.06899943  1  0  0.450394  0  0.80183  0  0  0.433166  0  0.849471  0  0  0.440868  0  0.83867  0  0  0.332282  0.427889  0  0.856994  0
H  H28  1  0.40515191  0.15673948  0.53308362  1  0  0.43757  0  0.811499  0  0  0.420862  0  0.864347  0  0  0.428358  0  0.856784  0  0  0.332318  0.415606  0  0.870202  0
H  H29  1  0.59483916  0.84505279  0.46693931  1  0  0.437527  0  0.811777  0  0  0.420623  0  0.865097  0  0  0.428113  0  0.857536  0  0  0.332266  0.415369  0  0.870957  0
H  H30  1  0.59271068  0.10297431  0.51761324  1  0  0.433482  0  0.845885  0  0  0.408932  0  0.907211  0  0  0.416447  0  0.896508  0  0  0.315866  0.403688  0  0.914859  0
H  H31  1  0.40740738  0.89799560  0.48242540  1  0  0.433264  0  0.84572  0  0  0.408557  0  0.90781  0  0  0.416074  0  0.897102  0  0  0.315522  0.403312  0  0.915463  0
C  C32  1  0.84631238  0.99652337  0.80423629  1  0  0.210713  0  3.650699  0  0  0.17564  0  3.905589  0  0  0.184694  0  3.926105  0  0  0.086379  0.16969  0  3.893567  0
C  C33  1  0.15372684  0.00345440  0.19567842  1  0  0.210585  0  3.650536  0  0  0.17554  0  3.905429  0  0  0.184595  0  3.925939  0  0  0.086135  0.169587  0  3.893407  0
C  C34  1  0.91974682  0.09454473  0.82991762  1  0  -0.147226  0  3.643769  0  0  -0.157312  0  3.893112  0  0  -0.168292  0  3.913954  0  0  -0.060081  -0.150169  0  3.878837  0
C  C35  1  0.08025157  0.90541554  0.17006938  1  0  -0.147361  0  3.644148  0  0  -0.157412  0  3.893534  0  0  -0.168378  0  3.914367  0  0  -0.060157  -0.150263  0  3.87925  0
C  C36  1  0.82728976  0.26768983  0.81181220  1  0  0.198259  0  3.644041  0  0  0.161917  0  3.899949  0  0  0.171919  0  3.915636  0  0  0.084117  0.155651  0  3.888677  0
C  C37  1  0.17273728  0.73225461  0.18818644  1  0  0.197817  0  3.64388  0  0  0.161459  0  3.899712  0  0  0.171461  0  3.915405  0  0  0.083934  0.15519  0  3.88843  0
C  C38  1  0.60545198  0.23011107  0.76244522  1  0  0.331825  0  3.723843  0  0  0.309178  0  3.97974  0  0  0.322147  0  3.9949  0  0  0.27101  0.300535  0  3.970848  0
C  C39  1  0.39457607  0.76986014  0.23753381  1  0  0.332083  0  3.72376  0  0  0.309482  0  3.97953  0  0  0.322461  0  3.994689  0  0  0.271186  0.300821  0  3.970635  0
C  C40  1  0.42583502  0.30512412  0.73588956  1  0  0.336444  0  3.714074  0  0  0.311269  0  3.972568  0  0  0.324271  0  3.986732  0  0  0.271632  0.302554  0  3.96432  0
C  C41  1  0.57417657  0.69486054  0.26408062  1  0  0.336276  0  3.714099  0  0  0.31106  0  3.972402  0  0  0.324048  0  3.986563  0  0  0.271687  0.302406  0  3.964076  0
C  C42  1  0.18309681  0.54125005  0.70975533  1  0  0.208884  0  3.631505  0  0  0.171003  0  3.886972  0  0  0.179815  0  3.904304  0  0  0.089862  0.165616  0  3.874529  0
C  C43  1  0.81689641  0.45874181  0.29025329  1  0  0.208757  0  3.631515  0  0  0.170953  0  3.886865  0  0  0.179699  0  3.904167  0  0  0.089693  0.165572  0  3.87444  0
C  C44  1  0.10060848  0.44761758  0.68858002  1  0  -0.139338  0  3.652538  0  0  -0.151046  0  3.906133  0  0  -0.161742  0  3.927838  0  0  -0.059645  -0.143994  0  3.891069  0
C  C45  1  0.89938625  0.55239444  0.31140377  1  0  -0.1393  0  3.652284  0  0  -0.151124  0  3.905943  0  0  -0.161833  0  3.927693  0  0  -0.059612  -0.144064  0  3.890868  0
C  C46  1  0.19354286  0.27602921  0.69524124  1  0  0.186356  0  3.668755  0  0  0.1516  0  3.925235  0  0  0.160644  0  3.944713  0  0  0.078428  0.145657  0  3.913926  0
C  C47  1  0.80645804  0.72400856  0.30465903  1  0  0.186765  0  3.668471  0  0  0.151775  0  3.925019  0  0  0.160814  0  3.944501  0  0  0.078483  0.145834  0  3.913702  0
C  C48  1  0.86873981  0.59588070  0.89356453  1  0  0.162676  0  3.526198  0  0  0.113736  0  3.840628  0  0  0.127602  0  3.850551  0  0  0.060294  0.102574  0  3.835579  0
C  C49  1  0.13124171  0.40411170  0.10645365  1  0  0.162941  0  3.526435  0  0  0.113977  0  3.840876  0  0  0.127839  0  3.850798  0  0  0.060441  0.102814  0  3.835829  0
C  C50  1  0.87539730  0.37350551  0.04094138  1  0  0.086767  0  3.532159  0  0  0.040872  0  3.845612  0  0  0.047896  0  3.858349  0  0  0.027819  0.033409  0  3.836905  0
C  C51  1  0.12456152  0.62650646  0.95908680  1  0  0.08693  0  3.532343  0  0  0.04107  0  3.845723  0  0  0.048082  0  3.858488  0  0  0.02785  0.033608  0  3.837012  0
C  C52  1  0.85127158  0.67968514  0.04943448  1  0  0.101116  0  3.542239  0  0  0.055941  0  3.855447  0  0  0.063859  0  3.868056  0  0  0.035102  0.048425  0  3.846062  0
C  C53  1  0.14872353  0.32036191  0.95056434  1  0  0.101113  0  3.542234  0  0  0.05596  0  3.855389  0  0  0.063883  0  3.867995  0  0  0.035074  0.048439  0  3.846009  0
C  C54  1  0.89348834  0.90079109  0.58615909  1  0  0.147923  0  3.526592  0  0  0.101406  0  3.837127  0  0  0.11357  0  3.849185  0  0  0.053287  0.091354  0  3.830565  0
C  C55  1  0.10649671  0.09875336  0.41382017  1  0  0.147853  0  3.526246  0  0  0.101413  0  3.836546  0  0  0.113542  0  3.848651  0  0  0.05308  0.091381  0  3.829961  0
C  C56  1  0.10939699  0.78889100  0.46333912  1  0  0.074724  0  3.513092  0  0  0.032504  0  3.830305  0  0  0.037295  0  3.844772  0  0  0.022014  0.026658  0  3.8203  0
C  C57  1  0.89074477  0.21044332  0.53666574  1  0  0.074507  0  3.516526  0  0  0.03251  0  3.833787  0  0  0.037266  0  3.848282  0  0  0.02196  0.026684  0  3.823754  0
C  C58  1  0.17628361  0.95338781  0.57888256  1  0  0.153151  0  3.527931  0  0  0.107182  0  3.836153  0  0  0.120264  0  3.845537  0  0  0.057833  0.096636  0  3.831116  0
C  C59  1  0.82384119  0.04618705  0.42112071  1  0  0.153369  0  3.528636  0  0  0.1074  0  3.836972  0  0  0.120478  0  3.846345  0  0  0.05784  0.096856  0  3.831937  0
N  N60  1  0.68907105  0.06301372  0.77101497  1  0  -0.451311  0  3.197618  0  0  -0.394328  0  3.457692  0  0  -0.418595  0  3.47587  0  0  -0.358987  -0.382551  0  3.446399  0
N  N61  1  0.31094974  0.93695007  0.22896715  1  0  -0.451333  0  3.197115  0  0  -0.39434  0  3.457129  0  0  -0.418607  0  3.47531  0  0  -0.358987  -0.382559  0  3.44584  0
N  N62  1  0.35589898  0.20340386  0.71893813  1  0  -0.438224  0  3.175647  0  0  -0.380243  0  3.436969  0  0  -0.403288  0  3.453735  0  0  -0.351505  -0.369105  0  3.426874  0
N  N63  1  0.64408136  0.79661172  0.28101852  1  0  -0.437588  0  3.174591  0  0  -0.379648  0  3.435994  0  0  -0.402684  0  3.452776  0  0  -0.351439  -0.368523  0  3.425875  0
N  N64  1  0.67144113  0.33529059  0.77748996  1  0  -0.344935  0  3.096891  0  0  -0.288808  0  3.339604  0  0  -0.304995  0  3.352243  0  0  -0.283969  -0.277771  0  3.33054  0
N  N65  1  0.32857158  0.66465362  0.22255002  1  0  -0.344734  0  3.096133  0  0  -0.288618  0  3.33877  0  0  -0.304818  0  3.351427  0  0  -0.283992  -0.277575  0  3.329701  0
N  N66  1  0.34440246  0.47045471  0.73310371  1  0  -0.336119  0  3.100578  0  0  -0.278063  0  3.341906  0  0  -0.2941  0  3.355479  0  0  -0.278755  -0.267124  0  3.332094  0
N  N67  1  0.65556735  0.52951097  0.26695782  1  0  -0.336285  0  3.100935  0  0  -0.277937  0  3.341985  0  0  -0.293961  0  3.355568  0  0  -0.278699  -0.267043  0  3.332194  0
N  N68  1  0.78055035  0.66405660  0.82813547  1  0  -0.561846  0  2.943327  0  0  -0.505847  0  3.244492  0  0  -0.528727  0  3.248144  0  0  -0.463948  -0.495452  0  3.240587  0
N  N69  1  0.21936853  0.33596995  0.17190433  1  0  -0.562099  0  2.943622  0  0  -0.506105  0  3.244795  0  0  -0.528968  0  3.248443  0  0  -0.464172  -0.495714  0  3.240897  0
N  N70  1  0.79887000  0.29343786  0.06716453  1  0  -0.443448  0  2.806284  0  0  -0.393153  0  3.058781  0  0  -0.405962  0  3.068249  0  0  -0.359739  -0.383236  0  3.052339  0
N  N71  1  0.20111922  0.70655024  0.93289043  1  0  -0.443474  0  2.806381  0  0  -0.393216  0  3.058867  0  0  -0.406028  0  3.06833  0  0  -0.35974  -0.383296  0  3.052426  0
N  N72  1  0.75456582  0.79643741  0.07606819  1  0  -0.4499  0  2.857764  0  0  -0.396341  0  3.115807  0  0  -0.409907  0  3.125368  0  0  -0.356156  -0.386179  0  3.109207  0
N  N73  1  0.24540567  0.20363677  0.92389456  1  0  -0.449875  0  2.85788  0  0  -0.396287  0  3.115837  0  0  -0.409853  0  3.1254  0  0  -0.356164  -0.386122  0  3.10924  0
N  N74  1  0.81478521  0.84368169  0.63514198  1  0  -0.553917  0  2.94913  0  0  -0.498076  0  3.242527  0  0  -0.520582  0  3.249356  0  0  -0.446025  -0.487419  0  3.236861  0
N  N75  1  0.18506736  0.15604971  0.36485061  1  0  -0.553521  0  2.949324  0  0  -0.49772  0  3.242591  0  0  -0.52022  0  3.249458  0  0  -0.44541  -0.487062  0  3.23692  0
N  N76  1  0.17241779  0.65724317  0.44170329  1  0  -0.436324  0  2.75551  0  0  -0.390888  0  3.00652  0  0  -0.403363  0  3.018514  0  0  -0.36139  -0.381201  0  2.998336  0
N  N77  1  0.82754084  0.34199429  0.55838043  1  0  -0.436085  0  2.756162  0  0  -0.391119  0  3.00701  0  0  -0.403544  0  3.019011  0  0  -0.361741  -0.381452  0  2.998829  0
N  N78  1  0.29237597  0.93460628  0.62230170  1  0  -0.564573  0  2.94507  0  0  -0.505582  0  3.233673  0  0  -0.526859  0  3.235913  0  0  -0.443689  -0.496202  0  3.23075  0
N  N79  1  0.70769958  0.06532126  0.37764373  1  0  -0.564572  0  2.945371  0  0  -0.5057  0  3.234064  0  0  -0.526937  0  3.236301  0  0  -0.443541  -0.496331  0  3.231153  0
O  O80  1  0.47102307  0.92875286  0.87659089  1  0  -0.925157  0  1.889558  0  0  -0.870159  0  2.089437  0  0  -0.896437  0  2.055163  0  0  -0.641779  -0.856706  0  2.110126  0
O  O81  1  0.52893143  0.07134761  0.12341188  1  0  -0.925196  0  1.889037  0  0  -0.870396  0  2.088986  0  0  -0.896665  0  2.054715  0  0  -0.641762  -0.856931  0  2.109642  0
O  O82  1  0.41806048  0.69998556  0.79772407  1  0  -0.943017  0  1.945615  0  0  -0.884115  0  2.160723  0  0  -0.912198  0  2.122717  0  0  -0.675616  -0.869658  0  2.184063  0
O  O83  1  0.58192216  0.30000437  0.20234087  1  0  -0.943697  0  1.944989  0  0  -0.884596  0  2.160313  0  0  -0.912657  0  2.122331  0  0  -0.675629  -0.870139  0  2.183655  0
O  O84  1  0.63147078  0.61677942  0.64959052  1  0  -0.913059  0  1.866828  0  0  -0.861268  0  2.0629  0  0  -0.886901  0  2.024687  0  0  -0.640818  -0.848506  0  2.086725  0
O  O85  1  0.36843653  0.38317606  0.35046936  1  0  -0.913234  0  1.866542  0  0  -0.861429  0  2.062742  0  0  -0.887075  0  2.024491  0  0  -0.640915  -0.848663  0  2.086572  0
O  O86  1  0.51285802  0.10414597  0.56519172  1  0  -0.877053  0  1.894127  0  0  -0.83327  0  2.078035  0  0  -0.856092  0  2.053686  0  0  -0.592367  -0.821819  0  2.093303  0
O  O87  1  0.48725925  0.89593252  0.43473566  1  0  -0.876807  0  1.892964  0  0  -0.83295  0  2.077303  0  0  -0.855747  0  2.052984  0  0  -0.592822  -0.821507  0  2.092547  0
