# generated using pymatgen
data_SnH18(C5O)2
_symmetry_space_group_name_H-M   'P 1'
_cell_length_a   9.79968175
_cell_length_b   10.93915018
_cell_length_c   11.88737663
_cell_angle_alpha   113.33903487
_cell_angle_beta   89.99996067
_cell_angle_gamma   89.99974964
_symmetry_Int_Tables_number   1
_chemical_formula_structural   SnH18(C5O)2
_chemical_formula_sum   'Sn4 H72 C40 O8'
_cell_volume   1170.05921502
_cell_formula_units_Z   4
loop_
 _symmetry_equiv_pos_site_id
 _symmetry_equiv_pos_as_xyz
  1  'x, y, z'
loop_
 _atom_site_type_symbol
 _atom_site_label
 _atom_site_symmetry_multiplicity
 _atom_site_fract_x
 _atom_site_fract_y
 _atom_site_fract_z
 _atom_site_occupancy
 _atom_site_hle17_bader_spin_density
 _atom_site_hle17_ddec_charge
 _atom_site_hle17_ddec_spin_density
 _atom_site_hle17_ddec_sum_bond_order
 _atom_site_hle17_magmom
 _atom_site_hse06_10hf_bader_spin_density
 _atom_site_hse06_10hf_ddec_charge
 _atom_site_hse06_10hf_ddec_spin_density
 _atom_site_hse06_10hf_ddec_sum_bond_order
 _atom_site_hse06_10hf_magmom
 _atom_site_hse06_bader_spin_density
 _atom_site_hse06_ddec_charge
 _atom_site_hse06_ddec_spin_density
 _atom_site_hse06_ddec_sum_bond_order
 _atom_site_hse06_magmom
 _atom_site_pbe_bader_spin_density
 _atom_site_pbe_cm5_charge
 _atom_site_pbe_ddec_charge
 _atom_site_pbe_ddec_spin_density
 _atom_site_pbe_ddec_sum_bond_order
 _atom_site_pbe_magmom
Sn  Sn0  1  0.89163072  0.82915740  0.76128017  1  0  1.364792  0  2.906956  0  0  1.235262  0  3.396835  0  0  1.273794  0  3.381058  0  0  0.51594  1.208343  0  3.407558  0
Sn  Sn1  1  0.39163426  0.67084532  0.73872196  1  0  1.3648  0  2.907002  0  0  1.235247  0  3.396909  0  0  1.273783  0  3.381133  0  0  0.515921  1.208328  0  3.407632  0
Sn  Sn2  1  0.10836934  0.17084042  0.23872202  1  0  1.364833  0  2.906937  0  0  1.235271  0  3.39689  0  0  1.273808  0  3.381111  0  0  0.515938  1.208351  0  3.407615  0
Sn  Sn3  1  0.60836681  0.32915647  0.26127912  1  0  1.364737  0  2.907007  0  0  1.235195  0  3.396931  0  0  1.273729  0  3.381158  0  0  0.51589  1.208272  0  3.40765  0
H  H4  1  0.88646894  0.55873430  0.80897281  1  0  0.062626  0  0.944115  0  0  0.079008  0  0.998968  0  0  0.07968  0  1.000343  0  0  0.100074  0.077819  0  0.999701  0
H  H5  1  0.38646815  0.94126346  0.69102670  1  0  0.062662  0  0.944095  0  0  0.078991  0  0.99896  0  0  0.079662  0  1.000334  0  0  0.100068  0.077802  0  0.999692  0
H  H6  1  0.11353213  0.44126249  0.19102480  1  0  0.062674  0  0.944092  0  0  0.079006  0  0.998969  0  0  0.079676  0  1.000345  0  0  0.100074  0.077816  0  0.999701  0
H  H7  1  0.61353496  0.05874129  0.30897292  1  0  0.062673  0  0.944126  0  0  0.079032  0  0.998963  0  0  0.079702  0  1.000339  0  0  0.100083  0.077843  0  0.999695  0
H  H8  1  0.77858268  0.57287946  0.99501413  1  0  0.070469  0  0.93176  0  0  0.090386  0  0.991712  0  0  0.090798  0  0.992291  0  0  0.093233  0.090186  0  0.991144  0
H  H9  1  0.27859129  0.92711084  0.50498026  1  0  0.07046  0  0.931723  0  0  0.09035  0  0.991737  0  0  0.090769  0  0.992304  0  0  0.093227  0.090155  0  0.991167  0
H  H10  1  0.22141125  0.42711730  0.00498095  1  0  0.070448  0  0.931655  0  0  0.090353  0  0.991637  0  0  0.090771  0  0.992206  0  0  0.093215  0.090152  0  0.99106  0
H  H11  1  0.72140877  0.07289489  0.49501803  1  0  0.070462  0  0.931738  0  0  0.090365  0  0.991748  0  0  0.090788  0  0.992312  0  0  0.093245  0.090167  0  0.991169  0
H  H12  1  0.65251257  0.45498848  0.91606097  1  0  0.076723  0  0.927224  0  0  0.094007  0  0.98952  0  0  0.095471  0  0.98854  0  0  0.094745  0.09299  0  0.990077  0
H  H13  1  0.15251583  0.04500225  0.58392637  1  0  0.076651  0  0.927251  0  0  0.093923  0  0.989572  0  0  0.095385  0  0.988595  0  0  0.094725  0.092913  0  0.990128  0
H  H14  1  0.34748646  0.54500729  0.08393375  1  0  0.076688  0  0.927243  0  0  0.093951  0  0.98957  0  0  0.095413  0  0.988594  0  0  0.094714  0.092931  0  0.990126  0
H  H15  1  0.84748626  0.95500348  0.41607360  1  0  0.076705  0  0.927125  0  0  0.093997  0  0.989443  0  0  0.09546  0  0.988465  0  0  0.094746  0.092978  0  0.990004  0
H  H16  1  0.85013285  0.36194418  0.00995342  1  0  0.068241  0  0.994537  0  0  0.082602  0  1.05566  0  0  0.08451  0  1.055976  0  0  0.089624  0.081158  0  1.055761  0
H  H17  1  0.35014349  0.13803951  0.49003781  1  0  0.068295  0  0.994511  0  0  0.082586  0  1.055733  0  0  0.084504  0  1.056033  0  0  0.089598  0.08114  0  1.05584  0
H  H18  1  0.14986721  0.63805663  0.99004984  1  0  0.068276  0  0.994636  0  0  0.082604  0  1.055786  0  0  0.084518  0  1.056084  0  0  0.089604  0.08116  0  1.055888  0
H  H19  1  0.64986268  0.86196525  0.50996434  1  0  0.068302  0  0.994536  0  0  0.08265  0  1.055691  0  0  0.084542  0  1.056031  0  0  0.089587  0.081191  0  1.055811  0
H  H20  1  0.98429030  0.21046199  0.84154105  1  0  0.083366  0  0.987293  0  0  0.091665  0  1.057333  0  0  0.094564  0  1.055981  0  0  0.09247  0.089755  0  1.057957  0
H  H21  1  0.48428619  0.28953210  0.65845067  1  0  0.083313  0  0.987354  0  0  0.091625  0  1.05742  0  0  0.094526  0  1.056067  0  0  0.092434  0.089713  0  1.058046  0
H  H22  1  0.01571486  0.78953880  0.15846052  1  0  0.083332  0  0.987382  0  0  0.091626  0  1.057438  0  0  0.094525  0  1.056087  0  0  0.092457  0.08972  0  1.058057  0
H  H23  1  0.51571284  0.71047668  0.34155629  1  0  0.083326  0  0.987379  0  0  0.091632  0  1.057439  0  0  0.094532  0  1.056087  0  0  0.092461  0.08972  0  1.058066  0
H  H24  1  0.92024754  0.18741993  0.63372447  1  0  0.067853  0  0.929932  0  0  0.086982  0  0.990068  0  0  0.087887  0  0.989507  0  0  0.092291  0.086158  0  0.990578  0
H  H25  1  0.42023703  0.31258344  0.86627060  1  0  0.067785  0  0.929985  0  0  0.086967  0  0.990053  0  0  0.087871  0  0.989488  0  0  0.092321  0.086145  0  0.990562  0
H  H26  1  0.07974333  0.81257393  0.36627883  1  0  0.067903  0  0.929859  0  0  0.087009  0  0.990001  0  0  0.087916  0  0.98944  0  0  0.092329  0.086183  0  0.990509  0
H  H27  1  0.57975282  0.68742234  0.13373359  1  0  0.067817  0  0.930057  0  0  0.087018  0  0.99008  0  0  0.087926  0  0.989516  0  0  0.092329  0.08619  0  0.990588  0
H  H28  1  0.02193228  0.33111407  0.68823983  1  0  0.069188  0  0.936293  0  0  0.091102  0  0.994273  0  0  0.091128  0  0.995545  0  0  0.091716  0.090904  0  0.993689  0
H  H29  1  0.52192846  0.16889131  0.81175957  1  0  0.069219  0  0.936226  0  0  0.091091  0  0.994258  0  0  0.091115  0  0.995529  0  0  0.091726  0.090915  0  0.993653  0
H  H30  1  0.97806369  0.66887573  0.31175360  1  0  0.0692  0  0.936329  0  0  0.091095  0  0.994303  0  0  0.091122  0  0.995574  0  0  0.091689  0.090891  0  0.993719  0
H  H31  1  0.47806547  0.83111647  0.18824703  1  0  0.069256  0  0.936252  0  0  0.091135  0  0.994253  0  0  0.091162  0  0.995524  0  0  0.09173  0.090947  0  0.993654  0
H  H32  1  0.81812640  0.38827405  0.60136604  1  0  0.063656  0  0.943504  0  0  0.084248  0  1.002111  0  0  0.085197  0  1.002339  0  0  0.089659  0.08348  0  1.002138  0
H  H33  1  0.31811888  0.11172884  0.89862977  1  0  0.063734  0  0.943491  0  0  0.084272  0  1.002123  0  0  0.085218  0  1.002359  0  0  0.089665  0.083516  0  1.002139  0
H  H34  1  0.18187467  0.61172273  0.39863158  1  0  0.063675  0  0.943519  0  0  0.084258  0  1.002135  0  0  0.085203  0  1.002367  0  0  0.089665  0.083495  0  1.002158  0
H  H35  1  0.68187505  0.88827192  0.10136843  1  0  0.063739  0  0.943431  0  0  0.084255  0  1.002118  0  0  0.0852  0  1.002352  0  0  0.089657  0.083499  0  1.002135  0
H  H36  1  0.70900873  0.31397386  0.67507931  1  0  0.069544  0  0.947606  0  0  0.087762  0  1.011435  0  0  0.088626  0  1.01176  0  0  0.09205  0.087305  0  1.010866  0
H  H37  1  0.20900396  0.18602455  0.82490991  1  0  0.069541  0  0.947607  0  0  0.087787  0  1.011381  0  0  0.088651  0  1.011706  0  0  0.09206  0.087327  0  1.010819  0
H  H38  1  0.29098725  0.68602489  0.32491564  1  0  0.069575  0  0.947608  0  0  0.08779  0  1.011433  0  0  0.088653  0  1.011761  0  0  0.092081  0.087332  0  1.010868  0
H  H39  1  0.79098997  0.81397423  0.17508842  1  0  0.069563  0  0.947619  0  0  0.087825  0  1.01137  0  0  0.088691  0  1.011693  0  0  0.092087  0.087365  0  1.010813  0
H  H40  1  0.02283128  0.72353397  0.90195195  1  0  0.146404  0  1.015209  0  0  0.164305  0  1.075777  0  0  0.166892  0  1.076111  0  0  0.08512  0.162241  0  1.076181  0
H  H41  1  0.52283220  0.77645660  0.59804186  1  0  0.146411  0  1.01521  0  0  0.164309  0  1.07579  0  0  0.166893  0  1.076127  0  0  0.08511  0.162249  0  1.076188  0
H  H42  1  0.97716674  0.27645386  0.09804246  1  0  0.146449  0  1.015202  0  0  0.164336  0  1.075788  0  0  0.166922  0  1.076124  0  0  0.085117  0.162271  0  1.07619  0
H  H43  1  0.47716683  0.22354218  0.40195647  1  0  0.146413  0  1.01519  0  0  0.164313  0  1.075763  0  0  0.166895  0  1.076104  0  0  0.085118  0.162255  0  1.076161  0
H  H44  1  0.89774305  0.83869667  0.99390971  1  0  0.153239  0  1.0018  0  0  0.16949  0  1.064503  0  0  0.172131  0  1.065066  0  0  0.085231  0.167601  0  1.064093  0
H  H45  1  0.39774172  0.66129011  0.50608924  1  0  0.153246  0  1.001746  0  0  0.1695  0  1.064455  0  0  0.172141  0  1.065017  0  0  0.085223  0.167609  0  1.064048  0
H  H46  1  0.10225497  0.16128819  0.00608616  1  0  0.153255  0  1.00173  0  0  0.169498  0  1.064455  0  0  0.172144  0  1.065011  0  0  0.085216  0.167612  0  1.064041  0
H  H47  1  0.60225833  0.33870872  0.49391415  1  0  0.153224  0  1.001733  0  0  0.169476  0  1.064452  0  0  0.172116  0  1.065014  0  0  0.085216  0.167583  0  1.064045  0
H  H48  1  0.05673703  0.89745360  0.95969154  1  0  0.154044  0  0.997829  0  0  0.175527  0  1.050733  0  0  0.177802  0  1.052057  0  0  0.088527  0.173674  0  1.050309  0
H  H49  1  0.55673579  0.60253592  0.54031364  1  0  0.154028  0  0.997842  0  0  0.175556  0  1.050692  0  0  0.177832  0  1.052014  0  0  0.08858  0.173702  0  1.050265  0
H  H50  1  0.94326302  0.10253333  0.04031264  1  0  0.154072  0  0.997815  0  0  0.17561  0  1.050641  0  0  0.177884  0  1.051967  0  0  0.088622  0.173755  0  1.05022  0
H  H51  1  0.44326427  0.39746585  0.45968660  1  0  0.154024  0  0.997825  0  0  0.175557  0  1.050672  0  0  0.177833  0  1.051995  0  0  0.088599  0.173703  0  1.050249  0
H  H52  1  0.74939957  0.00037892  0.69179332  1  0  0.152663  0  0.990133  0  0  0.172863  0  1.044403  0  0  0.175129  0  1.045419  0  0  0.085887  0.171165  0  1.043701  0
H  H53  1  0.24940554  0.49962245  0.80821460  1  0  0.152702  0  0.990058  0  0  0.17288  0  1.044369  0  0  0.175142  0  1.045391  0  0  0.085916  0.171188  0  1.043661  0
H  H54  1  0.25059640  0.99962090  0.30821043  1  0  0.152765  0  0.990103  0  0  0.172954  0  1.044387  0  0  0.175216  0  1.045409  0  0  0.085958  0.171262  0  1.043681  0
H  H55  1  0.75060063  0.50037837  0.19178951  1  0  0.152749  0  0.990102  0  0  0.172928  0  1.044397  0  0  0.175191  0  1.045417  0  0  0.08594  0.171232  0  1.043696  0
H  H56  1  0.77261436  0.07416258  0.85275968  1  0  0.146955  0  1.02143  0  0  0.162968  0  1.083904  0  0  0.165209  0  1.085532  0  0  0.082099  0.161438  0  1.082511  0
H  H57  1  0.27261980  0.42583967  0.64724854  1  0  0.146966  0  1.021491  0  0  0.162964  0  1.083969  0  0  0.165204  0  1.085597  0  0  0.082125  0.161437  0  1.082572  0
H  H58  1  0.22738569  0.92583627  0.14724625  1  0  0.146966  0  1.0215  0  0  0.162991  0  1.08395  0  0  0.165232  0  1.085578  0  0  0.082128  0.161462  0  1.082559  0
H  H59  1  0.72738025  0.57416214  0.35275507  1  0  0.146966  0  1.021502  0  0  0.162989  0  1.083954  0  0  0.165229  0  1.085582  0  0  0.082125  0.161458  0  1.082564  0
H  H60  1  0.64456627  0.94840998  0.78870567  1  0  0.151434  0  1.001579  0  0  0.169948  0  1.060201  0  0  0.172537  0  1.060774  0  0  0.084502  0.167361  0  1.061535  0
H  H61  1  0.14456736  0.55158805  0.71130166  1  0  0.151442  0  1.001666  0  0  0.169941  0  1.060295  0  0  0.17253  0  1.060869  0  0  0.084478  0.167352  0  1.061635  0
H  H62  1  0.35543480  0.05158489  0.21129967  1  0  0.151433  0  1.001644  0  0  0.169952  0  1.060248  0  0  0.172541  0  1.060821  0  0  0.084468  0.167364  0  1.061588  0
H  H63  1  0.85543474  0.44841577  0.28870519  1  0  0.151441  0  1.001657  0  0  0.169961  0  1.060261  0  0  0.172549  0  1.060836  0  0  0.084487  0.167372  0  1.061598  0
H  H64  1  0.95652125  0.58311972  0.59206803  1  0  0.151195  0  1.002971  0  0  0.169988  0  1.061431  0  0  0.172251  0  1.062605  0  0  0.084705  0.168306  0  1.060853  0
H  H65  1  0.45651938  0.91688557  0.90792573  1  0  0.151165  0  1.002951  0  0  0.169973  0  1.061409  0  0  0.172239  0  1.062579  0  0  0.084707  0.168291  0  1.060832  0
H  H66  1  0.04348391  0.41688295  0.40792244  1  0  0.151128  0  1.002999  0  0  0.169925  0  1.061478  0  0  0.17219  0  1.06265  0  0  0.084698  0.168243  0  1.060899  0
H  H67  1  0.54348170  0.08311917  0.09207305  1  0  0.151198  0  1.002943  0  0  0.169998  0  1.061399  0  0  0.172263  0  1.06257  0  0  0.084714  0.168315  0  1.060826  0
H  H68  1  0.99360993  0.70532103  0.53202040  1  0  0.155499  0  0.999924  0  0  0.173568  0  1.057678  0  0  0.176128  0  1.058375  0  0  0.086312  0.171732  0  1.057202  0
H  H69  1  0.49361167  0.79469110  0.96798167  1  0  0.15548  0  0.999867  0  0  0.173555  0  1.057613  0  0  0.176115  0  1.05831  0  0  0.086315  0.171712  0  1.057148  0
H  H70  1  0.00639216  0.29469067  0.46798002  1  0  0.155484  0  0.999883  0  0  0.173561  0  1.057628  0  0  0.17612  0  1.058327  0  0  0.086321  0.171718  0  1.057161  0
H  H71  1  0.50639246  0.20531464  0.03201915  1  0  0.155492  0  0.999868  0  0  0.173559  0  1.057615  0  0  0.17612  0  1.058312  0  0  0.086324  0.171716  0  1.05715  0
H  H72  1  0.82111058  0.65255278  0.53539473  1  0  0.150698  0  1.004757  0  0  0.170694  0  1.060147  0  0  0.172998  0  1.061411  0  0  0.084218  0.168869  0  1.059607  0
H  H73  1  0.32111206  0.84746022  0.96460859  1  0  0.150752  0  1.004654  0  0  0.170745  0  1.060043  0  0  0.173064  0  1.061289  0  0  0.084236  0.168919  0  1.059505  0
H  H74  1  0.17889253  0.34745592  0.46460293  1  0  0.150719  0  1.004684  0  0  0.170717  0  1.060072  0  0  0.17303  0  1.061325  0  0  0.08426  0.168889  0  1.059536  0
H  H75  1  0.67889105  0.15254554  0.03539392  1  0  0.150721  0  1.004708  0  0  0.170715  0  1.060097  0  0  0.173031  0  1.061347  0  0  0.084223  0.168887  0  1.059562  0
C  C76  1  0.67749475  0.58955027  0.77802145  1  0  0.672807  0  3.800515  0  0  0.619922  0  4.099305  0  0  0.654096  0  4.090831  0  0  0.233126  0.596544  0  4.104269  0
C  C77  1  0.17749306  0.91044750  0.72197567  1  0  0.672915  0  3.800593  0  0  0.619896  0  4.099509  0  0  0.654069  0  4.091037  0  0  0.233102  0.596519  0  4.104477  0
C  C78  1  0.32250633  0.41044652  0.22197616  1  0  0.672908  0  3.800536  0  0  0.619947  0  4.099386  0  0  0.654121  0  4.090914  0  0  0.233112  0.596571  0  4.104352  0
C  C79  1  0.82251006  0.08954825  0.27801736  1  0  0.672945  0  3.800406  0  0  0.620033  0  4.099199  0  0  0.654204  0  4.090726  0  0  0.233138  0.596655  0  4.10417  0
C  C80  1  0.78977819  0.50404868  0.79682567  1  0  -0.114474  0  3.639258  0  0  -0.113831  0  3.876413  0  0  -0.119811  0  3.890744  0  0  -0.085196  -0.109342  0  3.866857  0
C  C81  1  0.28977508  0.99594456  0.70317061  1  0  -0.11453  0  3.639221  0  0  -0.113719  0  3.87621  0  0  -0.119696  0  3.890531  0  0  -0.085143  -0.10923  0  3.866667  0
C  C82  1  0.21022187  0.49594712  0.20317243  1  0  -0.114526  0  3.639259  0  0  -0.113766  0  3.876321  0  0  -0.119744  0  3.890643  0  0  -0.085161  -0.109286  0  3.866768  0
C  C83  1  0.71022600  0.00405721  0.29682963  1  0  -0.114679  0  3.639475  0  0  -0.11392  0  3.876492  0  0  -0.119895  0  3.890812  0  0  -0.085224  -0.109435  0  3.866944  0
C  C84  1  0.76141299  0.47991417  0.91381505  1  0  -0.110242  0  3.723211  0  0  -0.155753  0  3.976603  0  0  -0.155385  0  3.990038  0  0  -0.157968  -0.155783  0  3.966958  0
C  C85  1  0.26141535  0.02008005  0.58617768  1  0  -0.110149  0  3.723108  0  0  -0.15568  0  3.976444  0  0  -0.155319  0  3.989896  0  0  -0.157982  -0.155723  0  3.966812  0
C  C86  1  0.23858502  0.52008560  0.08618363  1  0  -0.110138  0  3.723168  0  0  -0.155646  0  3.976518  0  0  -0.155281  0  3.989963  0  0  -0.157938  -0.155661  0  3.966851  0
C  C87  1  0.73858471  0.97992569  0.41382145  1  0  -0.110159  0  3.723078  0  0  -0.155731  0  3.976491  0  0  -0.155366  0  3.98993  0  0  -0.157986  -0.15575  0  3.966831  0
C  C88  1  0.84895691  0.37133629  0.92188831  1  0  -0.097471  0  3.752488  0  0  -0.109274  0  4.007246  0  0  -0.112475  0  4.030597  0  0  -0.109302  -0.107096  0  3.991066  0
C  C89  1  0.34895875  0.12865647  0.57810132  1  0  -0.097418  0  3.752402  0  0  -0.109159  0  4.007127  0  0  -0.112366  0  4.030487  0  0  -0.109202  -0.106978  0  3.990953  0
C  C90  1  0.15104314  0.62866146  0.07810628  1  0  -0.097489  0  3.752485  0  0  -0.109253  0  4.007231  0  0  -0.112454  0  4.030573  0  0  -0.109241  -0.107076  0  3.991049  0
C  C91  1  0.65104437  0.87134930  0.42190203  1  0  -0.097455  0  3.75245  0  0  -0.109241  0  4.007195  0  0  -0.112435  0  4.030569  0  0  -0.109241  -0.107052  0  3.991013  0
C  C92  1  0.92321058  0.28744712  0.82882371  1  0  -0.091278  0  3.729197  0  0  -0.104483  0  3.986926  0  0  -0.106538  0  4.008487  0  0  -0.107007  -0.102941  0  3.971683  0
C  C93  1  0.42321092  0.21255228  0.67117162  1  0  -0.091376  0  3.729326  0  0  -0.104615  0  3.987042  0  0  -0.106676  0  4.008606  0  0  -0.10706  -0.103069  0  3.971806  0
C  C94  1  0.07678437  0.71255665  0.17117808  1  0  -0.091289  0  3.729167  0  0  -0.104532  0  3.98689  0  0  -0.106586  0  4.008457  0  0  -0.107025  -0.102991  0  3.971645  0
C  C95  1  0.57678710  0.78745351  0.32883342  1  0  -0.091312  0  3.729364  0  0  -0.104563  0  3.987091  0  0  -0.106619  0  4.008653  0  0  -0.107048  -0.103022  0  3.971842  0
C  C96  1  0.92387902  0.29022671  0.70359180  1  0  -0.102703  0  3.741367  0  0  -0.141638  0  3.99756  0  0  -0.141702  0  4.011578  0  0  -0.163043  -0.141475  0  3.988045  0
C  C97  1  0.42387722  0.20977566  0.79640375  1  0  -0.102566  0  3.741338  0  0  -0.141514  0  3.997526  0  0  -0.141565  0  4.011528  0  0  -0.163071  -0.141373  0  3.988019  0
C  C98  1  0.07611594  0.70976809  0.29640510  1  0  -0.102797  0  3.741441  0  0  -0.14164  0  3.997535  0  0  -0.141706  0  4.011553  0  0  -0.163066  -0.141458  0  3.988005  0
C  C99  1  0.57611671  0.79023013  0.20360129  1  0  -0.102761  0  3.741573  0  0  -0.141671  0  3.997667  0  0  -0.141736  0  4.011688  0  0  -0.163098  -0.141501  0  3.988136  0
C  C100  1  0.80430964  0.37065528  0.68561686  1  0  -0.116061  0  3.661743  0  0  -0.16323  0  3.921749  0  0  -0.163623  0  3.934733  0  0  -0.161342  -0.163011  0  3.912676  0
C  C101  1  0.30430516  0.12934767  0.81437728  1  0  -0.116244  0  3.661755  0  0  -0.163373  0  3.921658  0  0  -0.16377  0  3.934629  0  0  -0.161352  -0.163162  0  3.912605  0
C  C102  1  0.19569042  0.62934250  0.31438026  1  0  -0.116113  0  3.661759  0  0  -0.163301  0  3.921715  0  0  -0.163692  0  3.934695  0  0  -0.16138  -0.163088  0  3.912645  0
C  C103  1  0.69568877  0.87065510  0.18562331  1  0  -0.11613  0  3.661724  0  0  -0.163294  0  3.921662  0  0  -0.163687  0  3.93464  0  0  -0.161326  -0.163087  0  3.912602  0
C  C104  1  0.97708345  0.82165436  0.92451783  1  0  -0.712817  0  3.527986  0  0  -0.759994  0  3.764163  0  0  -0.772739  0  3.769715  0  0  -0.334224  -0.751053  0  3.760725  0
C  C105  1  0.47708300  0.67833997  0.57548209  1  0  -0.71281  0  3.527999  0  0  -0.760013  0  3.764135  0  0  -0.772754  0  3.769691  0  0  -0.334239  -0.751072  0  3.760691  0
C  C106  1  0.02291559  0.17833745  0.07547885  1  0  -0.712923  0  3.527923  0  0  -0.760108  0  3.764064  0  0  -0.772859  0  3.769615  0  0  -0.334295  -0.751173  0  3.760623  0
C  C107  1  0.52291807  0.32166080  0.42451779  1  0  -0.712792  0  3.527937  0  0  -0.759989  0  3.764076  0  0  -0.772731  0  3.769637  0  0  -0.334254  -0.751054  0  3.760635  0
C  C108  1  0.74654808  0.98147568  0.77566091  1  0  -0.713093  0  3.517462  0  0  -0.753082  0  3.745467  0  0  -0.76649  0  3.751837  0  0  -0.337479  -0.74309  0  3.741645  0
C  C109  1  0.24654931  0.51852383  0.72434605  1  0  -0.713134  0  3.517486  0  0  -0.753079  0  3.745527  0  0  -0.766482  0  3.751904  0  0  -0.337516  -0.743091  0  3.74168  0
C  C110  1  0.25345503  0.01851818  0.22434155  1  0  -0.7132  0  3.517559  0  0  -0.753192  0  3.745527  0  0  -0.766597  0  3.7519  0  0  -0.337547  -0.743209  0  3.741707  0
C  C111  1  0.75345278  0.48147898  0.27565876  1  0  -0.713183  0  3.51758  0  0  -0.753172  0  3.745553  0  0  -0.766576  0  3.751928  0  0  -0.337548  -0.743181  0  3.741727  0
C  C112  1  0.91916165  0.67333471  0.58342474  1  0  -0.714111  0  3.523583  0  0  -0.757095  0  3.753497  0  0  -0.770342  0  3.760197  0  0  -0.33707  -0.74771  0  3.748964  0
C  C113  1  0.41916124  0.82667080  0.91657248  1  0  -0.714141  0  3.523431  0  0  -0.757138  0  3.753316  0  0  -0.770405  0  3.75999  0  0  -0.33709  -0.747744  0  3.7488  0
C  C114  1  0.08084146  0.32666699  0.41656790  1  0  -0.714073  0  3.523511  0  0  -0.757064  0  3.753432  0  0  -0.770323  0  3.760118  0  0  -0.33712  -0.747673  0  3.748915  0
C  C115  1  0.58083984  0.17333295  0.08342678  1  0  -0.714123  0  3.523491  0  0  -0.757106  0  3.753401  0  0  -0.770367  0  3.76008  0  0  -0.337097  -0.747715  0  3.748889  0
O  O116  1  0.70087788  0.70458503  0.78035004  1  0  -0.642807  0  2.04415  0  0  -0.569005  0  2.282397  0  0  -0.596012  0  2.276733  0  0  -0.278308  -0.549713  0  2.285504  0
O  O117  1  0.20087471  0.79541258  0.71964281  1  0  -0.642884  0  2.044264  0  0  -0.569015  0  2.282535  0  0  -0.596024  0  2.276873  0  0  -0.278295  -0.549719  0  2.285627  0
O  O118  1  0.29912626  0.29540870  0.21963891  1  0  -0.642915  0  2.044211  0  0  -0.569074  0  2.282462  0  0  -0.596084  0  2.2768  0  0  -0.278292  -0.549774  0  2.285543  0
O  O119  1  0.79913351  0.20458209  0.28034143  1  0  -0.642841  0  2.044104  0  0  -0.569062  0  2.282388  0  0  -0.596073  0  2.276731  0  0  -0.278247  -0.549752  0  2.285452  0
O  O120  1  0.55655319  0.53982047  0.76148919  1  0  -0.616325  0  2.006785  0  0  -0.544894  0  2.243574  0  0  -0.571695  0  2.237112  0  0  -0.280593  -0.525805  0  2.247327  0
O  O121  1  0.05655431  0.96017895  0.73851450  1  0  -0.616327  0  2.006783  0  0  -0.544885  0  2.243654  0  0  -0.571682  0  2.23719  0  0  -0.280589  -0.525795  0  2.247409  0
O  O122  1  0.44344380  0.46017936  0.23851625  1  0  -0.616312  0  2.006815  0  0  -0.544865  0  2.243641  0  0  -0.571663  0  2.237181  0  0  -0.280602  -0.525778  0  2.247395  0
O  O123  1  0.94344880  0.03981787  0.26148649  1  0  -0.616323  0  2.00666  0  0  -0.544886  0  2.243446  0  0  -0.571685  0  2.236983  0  0  -0.280622  -0.525799  0  2.247204  0
