# generated using pymatgen
data_H5PdC5O3
_symmetry_space_group_name_H-M   'P 1'
_cell_length_a   6.22245010
_cell_length_b   11.26386295
_cell_length_c   11.40720726
_cell_angle_alpha   103.42054024
_cell_angle_beta   99.62143474
_cell_angle_gamma   97.07403024
_symmetry_Int_Tables_number   1
_chemical_formula_structural   H5PdC5O3
_chemical_formula_sum   'H20 Pd4 C20 O12'
_cell_volume   755.73471014
_cell_formula_units_Z   4
loop_
 _symmetry_equiv_pos_site_id
 _symmetry_equiv_pos_as_xyz
  1  'x, y, z'
loop_
 _atom_site_type_symbol
 _atom_site_label
 _atom_site_symmetry_multiplicity
 _atom_site_fract_x
 _atom_site_fract_y
 _atom_site_fract_z
 _atom_site_occupancy
 _atom_site_hle17_bader_spin_density
 _atom_site_hle17_ddec_charge
 _atom_site_hle17_ddec_spin_density
 _atom_site_hle17_ddec_sum_bond_order
 _atom_site_hle17_magmom
 _atom_site_hse06_10hf_bader_spin_density
 _atom_site_hse06_10hf_ddec_charge
 _atom_site_hse06_10hf_ddec_spin_density
 _atom_site_hse06_10hf_ddec_sum_bond_order
 _atom_site_hse06_10hf_magmom
 _atom_site_hse06_bader_spin_density
 _atom_site_hse06_ddec_charge
 _atom_site_hse06_ddec_spin_density
 _atom_site_hse06_ddec_sum_bond_order
 _atom_site_hse06_magmom
 _atom_site_pbe_bader_spin_density
 _atom_site_pbe_cm5_charge
 _atom_site_pbe_ddec_charge
 _atom_site_pbe_ddec_spin_density
 _atom_site_pbe_ddec_sum_bond_order
 _atom_site_pbe_magmom
H  H0  1  0.47530399  0.02470554  0.62092910  1  0  0.128136  0  0.950944  0  0  0.136645  0  1.009268  0  0  0.140465  0  1.008916  0  0  0.103429  0.133838  0  1.009662  0
H  H1  1  0.52469760  0.97529348  0.37907009  1  0  0.128131  0  0.950957  0  0  0.136637  0  1.009287  0  0  0.140456  0  1.008937  0  0  0.103435  0.133832  0  1.009684  0
H  H2  1  0.01796123  0.89506806  0.63488092  1  0  0.078724  0  0.954288  0  0  0.090197  0  1.016398  0  0  0.091984  0  1.015075  0  0  0.099104  0.088873  0  1.017422  0
H  H3  1  0.98203901  0.10493188  0.36511748  1  0  0.078739  0  0.954287  0  0  0.090197  0  1.016407  0  0  0.091985  0  1.015084  0  0  0.099094  0.088871  0  1.017427  0
H  H4  1  0.04443706  0.10318940  0.78504111  1  0  0.108834  0  0.937243  0  0  0.132486  0  0.991749  0  0  0.132487  0  0.993631  0  0  0.095966  0.132547  0  0.990354  0
H  H5  1  0.95556644  0.89681054  0.21495672  1  0  0.108814  0  0.937259  0  0  0.132473  0  0.991759  0  0  0.132473  0  0.993642  0  0  0.095977  0.132534  0  0.990361  0
H  H6  1  0.96167403  0.11802183  0.63507851  1  0  0.112732  0  0.941727  0  0  0.133307  0  1.004797  0  0  0.133787  0  1.006023  0  0  0.091619  0.132899  0  1.004036  0
H  H7  1  0.03832946  0.88197812  0.36492106  1  0  0.112733  0  0.941723  0  0  0.13329  0  1.004819  0  0  0.13377  0  1.006044  0  0  0.091614  0.132881  0  1.004058  0
H  H8  1  0.24312628  0.17204500  0.71343087  1  0  0.115999  0  0.963285  0  0  0.13349  0  1.029269  0  0  0.136078  0  1.027338  0  0  0.084539  0.131537  0  1.030857  0
H  H9  1  0.75687695  0.82795403  0.28656760  1  0  0.115958  0  0.963311  0  0  0.133446  0  1.029301  0  0  0.136035  0  1.027369  0  0  0.084524  0.131497  0  1.030891  0
H  H10  1  0.23974049  0.69650783  0.07803731  1  0  0.123365  0  0.936643  0  0  0.134615  0  0.989147  0  0  0.13815  0  0.989021  0  0  0.107249  0.132249  0  0.989116  0
H  H11  1  0.76025811  0.30349214  0.92196533  1  0  0.123434  0  0.936607  0  0  0.134641  0  0.989154  0  0  0.138178  0  0.989027  0  0  0.107277  0.132272  0  0.989126  0
H  H12  1  0.81486924  0.58888810  0.14867877  1  0  0.079513  0  0.948812  0  0  0.091032  0  1.010871  0  0  0.092685  0  1.009864  0  0  0.101315  0.089818  0  1.011573  0
H  H13  1  0.18512312  0.41111277  0.85132087  1  0  0.079508  0  0.948839  0  0  0.091037  0  1.010892  0  0  0.09269  0  1.009882  0  0  0.101324  0.08982  0  1.011594  0
H  H14  1  0.66798285  0.57572586  0.92539315  1  0  0.114408  0  0.950152  0  0  0.13521  0  1.011821  0  0  0.135617  0  1.013014  0  0  0.093074  0.13497  0  1.010862  0
H  H15  1  0.33201412  0.42427409  0.07460670  1  0  0.114432  0  0.950127  0  0  0.135222  0  1.011813  0  0  0.135629  0  1.013007  0  0  0.093082  0.134983  0  1.010853  0
H  H16  1  0.89115656  0.69138813  0.92488840  1  0  0.117259  0  0.94621  0  0  0.138044  0  1.0045  0  0  0.139673  0  1.003836  0  0  0.093551  0.136865  0  1.005005  0
H  H17  1  0.10883716  0.30861182  0.07511116  1  0  0.117224  0  0.946262  0  0  0.138071  0  1.004478  0  0  0.1397  0  1.003812  0  0  0.093559  0.136889  0  1.004984  0
H  H18  1  0.68166047  0.72837780  0.01035801  1  0  0.115593  0  0.925003  0  0  0.140243  0  0.978759  0  0  0.141218  0  0.978964  0  0  0.10072  0.139661  0  0.978405  0
H  H19  1  0.31833433  0.27162030  0.98964122  1  0  0.115579  0  0.924998  0  0  0.140219  0  0.978771  0  0  0.141195  0  0.978975  0  0  0.100692  0.139636  0  0.978416  0
Pd  Pd20  1  0.63749440  0.64286448  0.43888870  1  0  0.415822  0  2.818151  0  0  0.39207  0  3.376614  0  0  0.400518  0  3.324591  0  0  0.666511  0.387218  0  3.41208  0
Pd  Pd21  1  0.36250910  0.35713549  0.56111352  1  0  0.415796  0  2.818089  0  0  0.392038  0  3.376546  0  0  0.400485  0  3.324526  0  0  0.666498  0.387194  0  3.411981  0
Pd  Pd22  1  0.22168542  0.54213027  0.47833263  1  0  0.292075  0  3.053218  0  0  0.272844  0  3.63026  0  0  0.277557  0  3.576938  0  0  0.616497  0.270946  0  3.665477  0
Pd  Pd23  1  0.77831725  0.45786690  0.52166625  1  0  0.292138  0  3.053287  0  0  0.272897  0  3.630291  0  0  0.277613  0  3.576968  0  0  0.616534  0.271003  0  3.665495  0
C  C24  1  0.69038641  0.47855646  0.35231329  1  0  0.158228  0  3.551163  0  0  0.09473  0  3.999067  0  0  0.129176  0  3.973104  0  0  -0.081471  0.070311  0  4.017252  0
C  C25  1  0.30961684  0.52145374  0.64769995  1  0  0.158411  0  3.551591  0  0  0.094874  0  3.999463  0  0  0.129314  0  3.973493  0  0  -0.081392  0.070459  0  4.017656  0
C  C26  1  0.79456793  0.63594269  0.60282479  1  0  0.165032  0  3.547846  0  0  0.102576  0  3.992758  0  0  0.136924  0  3.967319  0  0  -0.07752  0.078452  0  4.010247  0
C  C27  1  0.20544862  0.36405731  0.39717950  1  0  0.16483  0  3.547819  0  0  0.102345  0  3.992774  0  0  0.136693  0  3.967346  0  0  -0.07764  0.078223  0  4.010241  0
C  C28  1  0.37779941  0.82369612  0.56148016  1  0  0.665606  0  3.860712  0  0  0.623904  0  4.150615  0  0  0.661919  0  4.143185  0  0  0.195791  0.598368  0  4.154682  0
C  C29  1  0.62220000  0.17630106  0.43851930  1  0  0.6656  0  3.860737  0  0  0.623945  0  4.150578  0  0  0.66196  0  4.14315  0  0  0.195846  0.598401  0  4.154635  0
C  C30  1  0.34033948  0.95015096  0.61362135  1  0  -0.293592  0  3.709346  0  0  -0.307814  0  3.96127  0  0  -0.323877  0  3.980693  0  0  -0.115081  -0.297048  0  3.947926  0
C  C31  1  0.65966211  0.04984806  0.38637784  1  0  -0.293511  0  3.709412  0  0  -0.307733  0  3.961306  0  0  -0.323796  0  3.980731  0  0  -0.115069  -0.296966  0  3.94796  0
C  C32  1  0.14913006  0.97341805  0.64662673  1  0  0.109377  0  3.662041  0  0  0.096259  0  3.913459  0  0  0.102647  0  3.932477  0  0  -0.059813  0.09194  0  3.90051  0
C  C33  1  0.85087181  0.02658190  0.35337270  1  0  0.109297  0  3.662081  0  0  0.096186  0  3.913497  0  0  0.102575  0  3.932515  0  0  -0.059812  0.091859  0  3.900546  0
C  C34  1  0.10024652  0.09865149  0.69770902  1  0  -0.311687  0  3.750021  0  0  -0.383745  0  3.98867  0  0  -0.387104  0  3.999441  0  0  -0.242377  -0.381147  0  3.981185  0
C  C35  1  0.89975670  0.90134754  0.30228945  1  0  -0.311617  0  3.750023  0  0  -0.383658  0  3.988665  0  0  -0.387018  0  3.999439  0  0  -0.242375  -0.381055  0  3.98118  0
C  C36  1  0.24414424  0.62810525  0.24255920  1  0  0.66609  0  3.865068  0  0  0.624493  0  4.155627  0  0  0.662276  0  4.148749  0  0  0.197631  0.598953  0  4.159461  0
C  C37  1  0.75585220  0.37189842  0.75744407  1  0  0.666154  0  3.864684  0  0  0.624549  0  4.155279  0  0  0.662327  0  4.148408  0  0  0.197564  0.599011  0  4.159115  0
C  C38  1  0.13237067  0.65478122  0.12932993  1  0  -0.292177  0  3.709773  0  0  -0.305921  0  3.961452  0  0  -0.32233  0  3.981635  0  0  -0.11111  -0.295119  0  3.947619  0
C  C39  1  0.86762442  0.34522337  0.87067430  1  0  -0.29224  0  3.709756  0  0  -0.305933  0  3.961458  0  0  -0.322342  0  3.981641  0  0  -0.111099  -0.29513  0  3.947624  0
C  C40  1  0.91123012  0.63080482  0.09237860  1  0  0.10958  0  3.673254  0  0  0.095243  0  3.931149  0  0  0.101968  0  3.950363  0  0  -0.056721  0.090894  0  3.917904  0
C  C41  1  0.08876414  0.36919698  0.90762230  1  0  0.109547  0  3.673272  0  0  0.095187  0  3.931192  0  0  0.101913  0  3.950407  0  0  -0.056753  0.090836  0  3.917947  0
C  C42  1  0.78501888  0.65826280  0.98222818  1  0  -0.320435  0  3.762265  0  0  -0.395301  0  4.001632  0  0  -0.398355  0  4.012314  0  0  -0.239114  -0.392872  0  3.993892  0
C  C43  1  0.21497619  0.34173623  0.01777216  1  0  -0.320418  0  3.762196  0  0  -0.395297  0  4.001543  0  0  -0.398356  0  4.012237  0  0  -0.239106  -0.392864  0  3.993798  0
O  O44  1  0.66209914  0.41561998  0.25166645  1  0  -0.162015  0  2.150166  0  0  -0.123197  0  2.37412  0  0  -0.137191  0  2.36967  0  0  -0.156759  -0.11415  0  2.37738  0
O  O45  1  0.33789348  0.58437621  0.74832164  1  0  -0.161932  0  2.151095  0  0  -0.123054  0  2.375042  0  0  -0.137036  0  2.370579  0  0  -0.156648  -0.114013  0  2.378304  0
O  O46  1  0.85035405  0.70131503  0.70255584  1  0  -0.162051  0  2.151858  0  0  -0.122876  0  2.373947  0  0  -0.136935  0  2.369439  0  0  -0.153246  -0.113804  0  2.377308  0
O  O47  1  0.14966492  0.29867657  0.29743365  1  0  -0.162038  0  2.151538  0  0  -0.122849  0  2.373634  0  0  -0.136916  0  2.369136  0  0  -0.153238  -0.113771  0  2.37698  0
O  O48  1  0.56169092  0.81512927  0.52535758  1  0  -0.519268  0  2.053841  0  0  -0.467731  0  2.313464  0  0  -0.496987  0  2.304668  0  0  -0.330637  -0.448035  0  2.318692  0
O  O49  1  0.43831258  0.18487072  0.47464726  1  0  -0.51921  0  2.053887  0  0  -0.467715  0  2.313495  0  0  -0.496971  0  2.3047  0  0  -0.330647  -0.448024  0  2.318718  0
O  O50  1  0.22651510  0.73282691  0.55484627  1  0  -0.543863  0  2.138397  0  0  -0.492631  0  2.410923  0  0  -0.524108  0  2.402842  0  0  -0.345743  -0.471085  0  2.415569  0
O  O51  1  0.77348295  0.26717117  0.44514976  1  0  -0.543859  0  2.138321  0  0  -0.492646  0  2.410818  0  0  -0.524122  0  2.402736  0  0  -0.34578  -0.471118  0  2.41549  0
O  O52  1  0.45599945  0.65965666  0.27087229  1  0  -0.530896  0  2.05743  0  0  -0.481441  0  2.31982  0  0  -0.510197  0  2.309851  0  0  -0.333974  -0.461784  0  2.326064  0
O  O53  1  0.54399400  0.34034793  0.72913266  1  0  -0.530965  0  2.057282  0  0  -0.481528  0  2.319703  0  0  -0.510282  0  2.309737  0  0  -0.333987  -0.461856  0  2.325906  0
O  O54  1  0.12438567  0.57643000  0.30376715  1  0  -0.540475  0  2.133984  0  0  -0.486794  0  2.402854  0  0  -0.518107  0  2.395362  0  0  -0.34347  -0.465356  0  2.407053  0
O  O55  1  0.87561048  0.42356718  0.69623201  1  0  -0.540447  0  2.13385  0  0  -0.486781  0  2.402742  0  0  -0.518091  0  2.395251  0  0  -0.343434  -0.465345  0  2.406938  0
