# generated using pymatgen
data_Zn2H11C55N13(O2F)4
_symmetry_space_group_name_H-M   'P 1'
_cell_length_a   12.69947039
_cell_length_b   13.37076543
_cell_length_c   17.43566418
_cell_angle_alpha   85.47665873
_cell_angle_beta   81.32789122
_cell_angle_gamma   83.68819847
_symmetry_Int_Tables_number   1
_chemical_formula_structural   Zn2H11C55N13(O2F)4
_chemical_formula_sum   'Zn2 H11 C55 N13 O8 F4'
_cell_volume   2903.16481256
_cell_formula_units_Z   1
loop_
 _symmetry_equiv_pos_site_id
 _symmetry_equiv_pos_as_xyz
  1  'x, y, z'
loop_
 _atom_site_type_symbol
 _atom_site_label
 _atom_site_symmetry_multiplicity
 _atom_site_fract_x
 _atom_site_fract_y
 _atom_site_fract_z
 _atom_site_occupancy
 _atom_site_pbe_bader_charge
 _atom_site_pbe_bader_spin_density
 _atom_site_pbe_cm5_charge
 _atom_site_pbe_ddec_charge
 _atom_site_pbe_ddec_spin_density
 _atom_site_pbe_ddec_sum_bond_order
 _atom_site_pbe_magmom
Zn  Zn0  1  0.61832558  0.50325967  0.47809105  1  1.305154  0  0.692782  0.852471  0  2.39854  0
Zn  Zn1  1  0.39819285  0.46300133  0.51969214  1  1.308892  0  0.684204  0.880651  0  2.23412  0
H  H2  1  0.28126058  0.52920603  0.14517018  1  0.105863  0  0.126337  0.137148  0  0.961259  0
H  H3  1  0.68200199  0.50031804  0.72160524  1  0.169597  0  0.11819  0.154342  0  1.005042  0
H  H4  1  0.59077074  0.55434644  0.97949292  1  0.14337  0  0.106663  0.105637  0  1.049308  0
H  H5  1  0.27381513  0.76403161  0.60076559  1  0.153198  0  0.121542  0.138091  0  0.971484  0
H  H6  1  0.75606163  0.21143927  0.40413532  1  0.073895  0  0.113649  0.118359  0  0.980065  0
H  H7  1  0.68439672  0.90395440  0.44223136  1  0.112491  0  0.104649  0.105743  0  1.040991  0
H  H8  1  0.79870648  0.02896279  0.37714471  1  0.074096  0  0.112045  0.109808  0  0.975325  0
H  H9  1  0.46411934  0.21668171  0.61221967  1  0.146896  0  0.118094  0.137365  0  0.991057  0
H  H10  1  0.08744178  0.72602094  0.38191633  1  0.148487  0  0.132862  0.141911  0  0.957753  0
H  H11  1  0.82074238  0.43666523  0.51418632  1  0.131886  0  0.131708  0.109733  0  1.02367  0
H  H12  1  0.34496743  0.57660944  0.01921695  1  0.071419  0  0.106977  0.114541  0  1.012839  0
C  C13  1  0.58569395  0.29612281  0.49205830  1  1.573228  0  0.22096  0.605884  0  4.148231  0
C  C14  1  0.46544735  0.51330099  0.27108164  1  0.072367  0  0.015  -0.079185  0  3.85457  0
C  C15  1  0.32489422  0.90926946  0.61631849  1  0.040764  0  0.019678  0.035535  0  4.048281  0
C  C16  1  0.51878371  0.47866339  0.64543677  1  1.608189  0  0.216617  0.589604  0  4.17367  0
C  C17  1  0.44064796  0.77069797  0.55817937  1  0.016097  0  0.00478  -0.039144  0  3.922108  0
C  C18  1  0.70832496  0.15456774  0.43596254  1  -0.004413  0  -0.071378  -0.079976  0  3.96007  0
C  C19  1  0.73199409  0.05234694  0.42117514  1  -0.016189  0  -0.07793  -0.064861  0  4.003613  0
C  C20  1  0.66804135  0.98109285  0.45930174  1  -0.012902  0  -0.076567  -0.107225  0  3.952339  0
C  C21  1  0.58093449  0.00833654  0.51686726  1  0.002085  0  0.005573  0.035256  0  3.938319  0
C  C22  1  0.55669546  0.11257270  0.53171532  1  -0.001028  0  0.006766  0.067099  0  3.964953  0
C  C23  1  0.50763974  0.93714887  0.55449924  1  -0.016154  0  0.022769  0.021579  0  3.892932  0
C  C24  1  0.60511311  0.51327384  0.75821114  1  0.110775  0  -0.086696  -0.226003  0  3.971112  0
C  C25  1  0.40920121  0.97343077  0.59919317  1  0.015062  0  0.021628  0.020207  0  3.923235  0
C  C26  1  0.40074420  0.07436345  0.62527884  1  0.103035  0  0.006887  0.018428  0  4.081536  0
C  C27  1  0.47208712  0.14102289  0.59180197  1  -0.008183  0  -0.055092  -0.114869  0  3.886213  0
C  C28  1  0.45504515  0.66596140  0.53104135  1  1.604887  0  0.218481  0.592472  0  4.188653  0
C  C29  1  0.52631612  0.83111933  0.54544827  1  0.158609  0  0.03038  0.027038  0  3.96402  0
C  C30  1  0.33987191  0.81107032  0.59216356  1  0.031257  0  -0.058259  -0.106187  0  3.905712  0
C  C31  1  0.61935899  0.18532601  0.48846232  1  -0.053049  0  -0.003447  -0.059004  0  3.908513  0
C  C32  1  0.88807715  0.67255862  0.38792895  1  0.626439  0  0.145166  0.208394  0  3.969998  0
C  C33  1  0.19257470  0.39026608  0.59095102  1  1.238122  0  0.274449  0.428477  0  4.053838  0
C  C34  1  0.08852419  0.36751958  0.62272583  1  0.213236  0  0.038839  -0.069323  0  4.024854  0
C  C35  1  0.54322285  0.56693067  0.13802370  1  0.071772  0  0.033332  0.003606  0  3.940657  0
C  C36  1  0.00475747  0.41880315  0.58688830  1  0.093418  0  0.05571  0.06683  0  3.97444  0
C  C37  1  0.02686480  0.49109075  0.52345717  1  0.076708  0  0.029338  -0.024335  0  3.872038  0
C  C38  1  0.13462308  0.51847066  0.50592704  1  0.532933  0  0.156921  0.227944  0  3.86456  0
C  C39  1  0.94526142  0.53923322  0.47939961  1  0.058274  0  0.023023  0.040421  0  3.933819  0
C  C40  1  0.47680978  0.49300940  0.35545778  1  1.618149  0  0.223715  0.598119  0  4.169977  0
C  C41  1  0.96906551  0.62447542  0.42860877  1  0.018808  0  0.013618  0.010233  0  4.031245  0
C  C42  1  0.07152868  0.65888959  0.41950156  1  0.057735  0  -0.035717  -0.08236  0  3.855988  0
C  C43  1  0.15354662  0.60706915  0.45447943  1  0.096699  0  0.03705  0.025184  0  3.977742  0
C  C44  1  0.84324415  0.50559585  0.48146787  1  0.585949  0  0.074957  0.06371  0  3.847581  0
C  C45  1  0.78747382  0.63843842  0.39685901  1  0.622049  0  0.142221  0.106779  0  4.066653  0
C  C46  1  0.55395969  0.53918796  0.21697433  1  0.154776  0  0.041429  0.046608  0  3.976409  0
C  C47  1  0.51105885  0.50467812  0.72838342  1  0.000991  0  0.012261  0.016068  0  3.904793  0
C  C48  1  0.41037481  0.52231561  0.77546935  1  0.187766  0  0.001625  -0.08354  0  4.055523  0
C  C49  1  0.40942473  0.54632044  0.85242972  1  0.487528  0  0.129602  0.244872  0  3.972553  0
C  C50  1  0.50247735  0.55082356  0.88639448  1  0.029388  0  -0.018086  -0.108726  0  4.048588  0
C  C51  1  0.59938047  0.53504637  0.83497134  1  0.422849  0  0.123094  0.28578  0  4.012424  0
C  C52  1  0.31073155  0.51879880  0.74771913  1  0.878184  0  0.180627  0.281391  0  4.030089  0
C  C53  1  0.32736218  0.10474569  0.69155786  1  0.836268  0  0.165835  0.20924  0  4.051135  0
C  C54  1  0.21936953  0.94567013  0.64981020  1  0.848905  0  0.172431  0.218505  0  4.030236  0
C  C55  1  0.63364427  0.78425151  0.53434539  1  0.823919  0  0.187469  0.261661  0  4.028424  0
C  C56  1  0.70633146  0.69544409  0.35893255  1  0.890541  0  0.191221  0.226624  0  3.99298  0
C  C57  1  0.36661071  0.51184134  0.24353477  1  0.042656  0  0.026489  0.068301  0  4.052387  0
C  C58  1  0.65976956  0.53584074  0.23683360  1  0.87495  0  0.183669  0.253912  0  4.01178  0
C  C59  1  0.89965323  0.39770577  0.62120308  1  0.861522  0  0.200135  0.225321  0  3.975378  0
C  C60  1  0.06864578  0.29809205  0.68779216  1  0.840452  0  0.182498  0.222046  0  4.003117  0
C  C61  1  0.25111736  0.65285252  0.43365609  1  0.879901  0  0.187892  0.248958  0  3.995886  0
C  C62  1  0.27141829  0.48450827  0.29201044  1  0.873425  0  0.186392  0.259904  0  4.003133  0
C  C63  1  0.63348303  0.60389209  0.08996039  1  0.836533  0  0.181458  0.224129  0  4.024049  0
C  C64  1  0.35794355  0.53419928  0.16479364  1  0.025119  0  -0.053758  -0.141707  0  3.863355  0
C  C65  1  0.44500953  0.56005282  0.10973779  1  0.013428  0  0.020387  0.112291  0  3.982455  0
C  C66  1  0.50847318  0.56128825  0.96759027  1  -0.060959  0  -0.073716  -0.060269  0  3.960601  0
C  C67  1  0.42847941  0.57041734  0.02845725  1  0.07511  0  -0.084268  -0.136147  0  3.945554  0
N  N68  1  0.76785801  0.55357987  0.44305451  1  -1.194543  0  -0.29263  -0.189643  0  3.476111  0
N  N69  1  0.04623435  0.24309603  0.74177402  1  -0.972118  0  -0.231066  -0.234696  0  2.642968  0
N  N70  1  0.31795715  0.70461723  0.40819191  1  -1.064891  0  -0.284605  -0.313172  0  2.693784  0
N  N71  1  0.18813036  0.46308665  0.32322596  1  -1.12886  0  -0.313467  -0.370621  0  2.721411  0
N  N72  1  0.70757357  0.63680842  0.05248792  1  -1.060733  0  -0.277968  -0.302784  0  2.636058  0
N  N73  1  0.21624191  0.46305352  0.53830938  1  -1.209942  0  -0.282414  -0.324626  0  3.369726  0
N  N74  1  0.22697960  0.51854583  0.72779121  1  -1.129835  0  -0.319041  -0.377722  0  2.71427  0
N  N75  1  0.27612487  0.13205519  0.74890955  1  -1.086826  0  -0.294906  -0.324525  0  2.709283  0
N  N76  1  0.12988348  0.97166078  0.67226038  1  -1.057761  0  -0.293767  -0.32284  0  2.664008  0
N  N77  1  0.72206517  0.74963184  0.53603307  1  -1.140771  0  -0.316437  -0.378177  0  2.737332  0
N  N78  1  0.64561208  0.74950600  0.32747062  1  -1.061762  0  -0.270321  -0.285903  0  2.6463  0
N  N79  1  0.75073319  0.53291522  0.24199926  1  -1.082481  0  -0.30044  -0.342095  0  2.68749  0
N  N80  1  0.81666530  0.37789619  0.65397659  1  -1.040244  0  -0.239282  -0.256698  0  2.680994  0
O  O81  1  0.66051585  0.35371454  0.48725390  1  -1.151036  0  -0.317429  -0.542346  0  2.311996  0
O  O82  1  0.48594025  0.32396997  0.49599274  1  -1.147528  0  -0.313234  -0.556814  0  2.325772  0
O  O83  1  0.59885543  0.50675443  0.59931650  1  -1.157715  0  -0.304775  -0.530374  0  2.315941  0
O  O84  1  0.44352702  0.43278697  0.62871141  1  -1.151482  0  -0.31212  -0.545349  0  2.362835  0
O  O85  1  0.53900151  0.64321236  0.48390348  1  -1.158963  0  -0.300164  -0.540368  0  2.435481  0
O  O86  1  0.38156411  0.60883684  0.55493114  1  -1.152968  0  -0.304991  -0.547654  0  2.366367  0
O  O87  1  0.57049337  0.49080773  0.37210095  1  -1.147827  0  -0.289184  -0.514821  0  2.391951  0
O  O88  1  0.39179801  0.48180333  0.40301948  1  -1.148888  0  -0.296307  -0.533901  0  2.388249  0
F  F89  1  0.90843568  0.75461206  0.34074676  1  -0.611864  0  -0.058558  -0.088076  0  1.35387  0
F  F90  1  0.27440042  0.33294886  0.61627862  1  -0.61248  0  -0.028621  -0.079831  0  1.437211  0
F  F91  1  0.69213279  0.54010400  0.86310817  1  -0.612766  0  -0.075149  -0.111652  0  1.331405  0
F  F92  1  0.31319077  0.56421727  0.89682447  1  -0.618937  0  -0.070288  -0.10666  0  1.36302  0
