# generated using pymatgen
data_ZnH28C32NO16
_symmetry_space_group_name_H-M   'P 1'
_cell_length_a   17.58461345
_cell_length_b   18.24207394
_cell_length_c   19.51344347
_cell_angle_alpha   89.55159027
_cell_angle_beta   90.07899042
_cell_angle_gamma   90.02982195
_symmetry_Int_Tables_number   1
_chemical_formula_structural   ZnH28C32NO16
_chemical_formula_sum   'Zn2 H56 C64 N2 O32'
_cell_volume   6259.32040496
_cell_formula_units_Z   2
loop_
 _symmetry_equiv_pos_site_id
 _symmetry_equiv_pos_as_xyz
  1  'x, y, z'
loop_
 _atom_site_type_symbol
 _atom_site_label
 _atom_site_symmetry_multiplicity
 _atom_site_fract_x
 _atom_site_fract_y
 _atom_site_fract_z
 _atom_site_occupancy
 _atom_site_pbe_bader_charge
 _atom_site_pbe_bader_spin_density
 _atom_site_pbe_cm5_charge
 _atom_site_pbe_ddec_charge
 _atom_site_pbe_ddec_spin_density
 _atom_site_pbe_ddec_sum_bond_order
 _atom_site_pbe_magmom
Zn  Zn0  1  0.49743989  0.42043836  0.50709897  1  1.277084  0  0.680605  0.821016  0  2.406433  0
Zn  Zn1  1  0.50568110  0.57665165  0.51109644  1  1.279835  0  0.679994  0.829313  0  2.378704  0
H  H2  1  0.39406452  0.41256419  0.96077280  1  0.056182  0  0.102263  0.098364  0  0.999409  0
H  H3  1  0.17264739  0.66803977  0.38388745  1  0.626216  0  0.325097  0.359457  0  0.900139  0
H  H4  1  0.13553876  0.35406932  0.50470093  1  0.630838  0  0.325959  0.361134  0  0.897457  0
H  H5  1  0.85653781  0.66308639  0.51490914  1  0.586706  0  0.324466  0.358769  0  0.900807  0
H  H6  1  0.67790718  0.38434291  0.45198186  1  0.656133  0  0.301525  0.3595  0  0.962452  0
H  H7  1  0.33304774  0.62029872  0.43704317  1  0.652935  0  0.302611  0.358944  0  0.963936  0
H  H8  1  0.30624490  0.39446549  0.52124638  1  0.637209  0  0.29952  0.358333  0  0.967492  0
H  H9  1  0.69086367  0.60705785  0.53987162  1  0.668055  0  0.299084  0.356081  0  0.971558  0
H  H10  1  0.37090036  0.62076331  0.75498273  1  0.615189  0  0.321752  0.343816  0  0.922794  0
H  H11  1  0.62273554  0.37501225  0.26044618  1  0.618133  0  0.323814  0.34568  0  0.918123  0
H  H12  1  0.38663311  0.62365680  0.26927337  1  0.617744  0  0.328173  0.353412  0  0.901236  0
H  H13  1  0.58514115  0.58338863  0.05823181  1  0.060712  0  0.103486  0.09993  0  0.996407  0
H  H14  1  0.59708167  0.36579663  0.76243860  1  0.616871  0  0.322677  0.344425  0  0.918119  0
H  H15  1  0.33441190  0.54059371  0.93294132  1  0.059744  0  0.094804  0.096801  0  1.024224  0
H  H16  1  0.28530334  0.54091301  0.85195792  1  0.047694  0  0.097407  0.093528  0  0.989038  0
H  H17  1  0.29246778  0.62365414  0.90108939  1  0.057222  0  0.107796  0.113398  0  0.971301  0
H  H18  1  0.70157361  0.45719017  0.16491854  1  0.047242  0  0.099304  0.096985  0  0.985869  0
H  H19  1  0.65246329  0.46343471  0.08413395  1  0.068955  0  0.094122  0.095144  0  1.025302  0
H  H20  1  0.69526700  0.37853411  0.11017690  1  0.041943  0  0.106515  0.112383  0  0.972005  0
H  H21  1  0.47947977  0.65964588  0.09449895  1  0.045085  0  0.092271  0.091065  0  1.027235  0
H  H22  1  0.47642660  0.69822694  0.17895779  1  0.042508  0  0.095485  0.090254  0  0.994833  0
H  H23  1  0.39482178  0.70444644  0.12342203  1  0.050651  0  0.105929  0.111912  0  0.973253  0
H  H24  1  0.41064239  0.42075669  0.08688285  1  0.05903  0  0.107598  0.112256  0  0.980861  0
H  H25  1  0.49880372  0.29409933  0.83792563  1  0.050124  0  0.093367  0.08591  0  1.004657  0
H  H26  1  0.48854977  0.33080260  0.92265138  1  0.052643  0  0.09353  0.092626  0  1.024343  0
H  H27  1  0.57405019  0.28348284  0.89981853  1  0.070937  0  0.10708  0.11378  0  0.971101  0
H  H28  1  0.38051634  0.22791107  0.66733460  1  0.072829  0  0.104331  0.103133  0  0.980268  0
H  H29  1  0.47850020  0.22287195  0.69358579  1  0.071483  0  0.10302  0.102162  0  0.99141  0
H  H30  1  0.41496896  0.14794470  0.71161169  1  0.077107  0  0.111885  0.11712  0  0.970074  0
H  H31  1  0.30330792  0.76561913  0.58154884  1  0.052684  0  0.103721  0.102173  0  0.97954  0
H  H32  1  0.29454293  0.76427575  0.48977628  1  0.085187  0  0.103682  0.108921  0  1.002721  0
H  H33  1  0.25933344  0.84107759  0.53731859  1  0.072608  0  0.113877  0.12056  0  0.966151  0
H  H34  1  0.61989709  0.24019013  0.34238573  1  0.065602  0  0.103532  0.105496  0  0.98712  0
H  H35  1  0.56881699  0.57500341  0.93207472  1  0.071427  0  0.107004  0.111421  0  0.982117  0
H  H36  1  0.52464933  0.23350648  0.30931264  1  0.064767  0  0.105977  0.107345  0  0.979918  0
H  H37  1  0.59194275  0.16164777  0.29335017  1  0.056749  0  0.112794  0.1188  0  0.968454  0
H  H38  1  0.70531153  0.76504229  0.42641532  1  0.059306  0  0.104957  0.106366  0  0.979469  0
H  H39  1  0.71851889  0.77256878  0.51718636  1  0.072884  0  0.10316  0.107629  0  0.996196  0
H  H40  1  0.74879730  0.84563842  0.46121872  1  0.052917  0  0.113328  0.120364  0  0.96671  0
H  H41  1  0.31825904  0.09209323  0.46826906  1  0.055923  0  0.095999  0.095019  0  0.986565  0
H  H42  1  0.31469619  0.01051880  0.41688260  1  0.071381  0  0.096967  0.096922  0  1.011079  0
H  H43  1  0.30493265  0.09950572  0.37732475  1  0.043948  0  0.107888  0.113674  0  0.971739  0
H  H44  1  0.49914791  0.90120463  0.66886774  1  0.079291  0  0.094942  0.093976  0  0.988205  0
H  H45  1  0.55213494  0.98407651  0.68407255  1  0.080413  0  0.095773  0.095174  0  1.013586  0
H  H46  1  0.45748289  0.30410109  0.60301466  1  0.130378  0  0.121072  0.111315  0  1.026105  0
H  H47  1  0.59511191  0.89606242  0.69999041  1  0.063387  0  0.106666  0.11227  0  0.973722  0
H  H48  1  0.68488983  0.09571997  0.53366426  1  0.053599  0  0.096558  0.096312  0  0.984408  0
H  H49  1  0.68931764  0.01450433  0.58666468  1  0.074353  0  0.097084  0.097606  0  1.013015  0
H  H50  1  0.69642614  0.10384582  0.62463785  1  0.027565  0  0.106706  0.111879  0  0.973457  0
H  H51  1  0.50722400  0.90561103  0.33076337  1  0.053935  0  0.094876  0.09343  0  0.987693  0
H  H52  1  0.44888750  0.98566420  0.31742281  1  0.075777  0  0.096723  0.09684  0  1.014466  0
H  H53  1  0.41067450  0.89573991  0.30224854  1  0.028525  0  0.105129  0.10979  0  0.975199  0
H  H54  1  0.39248785  0.69022820  0.53215707  1  0.13074  0  0.123233  0.110245  0  1.02213  0
H  H55  1  0.53553567  0.31059163  0.40344357  1  0.139779  0  0.120918  0.111243  0  1.032972  0
H  H56  1  0.62200931  0.69220359  0.48490911  1  0.117852  0  0.120693  0.104496  0  1.038178  0
H  H57  1  0.83807817  0.35086064  0.39171113  1  0.609768  0  0.325287  0.360218  0  0.898935  0
C  C58  1  0.51114350  0.50106554  0.37909451  1  1.647339  0  0.222789  0.653531  0  4.124059  0
C  C59  1  0.53402944  0.54128900  0.96615125  1  -0.053843  0  -0.085726  -0.12008  0  3.970951  0
C  C60  1  0.49899639  0.50237339  0.08120200  1  0.015691  0  -0.002979  0.10692  0  3.994447  0
C  C61  1  0.48093796  0.49292053  0.93777214  1  0.048528  0  -0.004386  0.102584  0  3.999966  0
C  C62  1  0.47367980  0.27155918  0.55888130  1  0.473116  0  0.018776  -0.074992  0  3.954432  0
C  C63  1  0.44180930  0.72394194  0.52027382  1  0.53745  0  0.019419  -0.072065  0  3.950161  0
C  C64  1  0.51945410  0.27534387  0.44635811  1  0.444052  0  0.0197  -0.074333  0  3.942986  0
C  C65  1  0.57145597  0.72488509  0.49440645  1  0.469719  0  0.018786  -0.073585  0  3.950646  0
C  C66  1  0.47337277  0.19485345  0.55911128  1  0.522749  0  0.094219  0.188014  0  4.060441  0
C  C67  1  0.43826611  0.80058008  0.51688538  1  0.436705  0  0.09517  0.187354  0  4.065797  0
C  C68  1  0.52305561  0.19867495  0.44408408  1  0.557416  0  0.095159  0.189473  0  4.057876  0
C  C69  1  0.48731103  0.49211980  0.63875660  1  1.579536  0  0.220036  0.636823  0  4.131345  0
C  C70  1  0.57221202  0.80162744  0.49091408  1  0.524609  0  0.095179  0.188969  0  4.06349  0
C  C71  1  0.49901423  0.15691480  0.50104708  1  0.075253  0  -0.003945  -0.072183  0  3.971822  0
C  C72  1  0.50465063  0.84081690  0.50252954  1  0.170446  0  -0.004449  -0.070975  0  3.973647  0
C  C73  1  0.45782689  0.03682565  0.45252996  1  0.499603  0  0.071823  0.104139  0  4.053105  0
C  C74  1  0.54525890  0.96091204  0.55014681  1  0.568579  0  0.07216  0.103116  0  4.053205  0
C  C75  1  0.54617743  0.03783657  0.54844603  1  0.463943  0  0.072166  0.104611  0  4.05481  0
C  C76  1  0.46131075  0.95990155  0.45121325  1  0.557999  0  0.071734  0.103538  0  4.056066  0
C  C77  1  0.50380154  0.92172840  0.50092041  1  -0.023915  0  -0.01907  -0.079374  0  4.044608  0
C  C78  1  0.50117853  0.07606469  0.50045586  1  0.081907  0  -0.019736  -0.081558  0  4.042674  0
C  C79  1  0.35100878  0.50723196  0.48914250  1  1.494194  0  0.2125  0.616474  0  4.134912  0
C  C80  1  0.47507546  0.48833391  0.86188282  1  0.051043  0  -0.020571  -0.0884  0  4.076252  0
C  C81  1  0.65264418  0.49492569  0.50408208  1  1.482333  0  0.211114  0.61477  0  4.138478  0
C  C82  1  0.84311616  0.44699102  0.42658062  1  0.529284  0  0.060964  0.141528  0  4.082799  0
C  C83  1  0.16105982  0.57275793  0.42113537  1  0.575213  0  0.058296  0.138015  0  4.092578  0
C  C84  1  0.14651353  0.44901720  0.46711696  1  0.577356  0  0.062126  0.143382  0  4.085097  0
C  C85  1  0.84993512  0.57008125  0.47366868  1  0.447254  0  0.059354  0.138985  0  4.089408  0
C  C86  1  0.76732481  0.44153278  0.44736266  1  0.505902  0  0.056731  0.17376  0  4.133837  0
C  C87  1  0.23818212  0.57127734  0.43789357  1  0.471542  0  0.051957  0.163828  0  4.141315  0
C  C88  1  0.22378283  0.44725048  0.48344061  1  0.511787  0  0.055207  0.170667  0  4.145207  0
C  C89  1  0.77428713  0.56474064  0.49425290  1  0.565076  0  0.052355  0.165584  0  4.144399  0
C  C90  1  0.73187267  0.50012843  0.48215057  1  0.050678  0  -0.059354  -0.287708  0  4.07478  0
C  C91  1  0.50725225  0.50583372  0.15701014  1  -0.005589  0  -0.022976  -0.098215  0  4.06863  0
C  C92  1  0.27066659  0.50875051  0.46992466  1  0.050776  0  -0.059047  -0.287188  0  4.076018  0
C  C93  1  0.88606279  0.51063879  0.44080544  1  0.175402  0  -0.0143  -0.034113  0  4.116214  0
C  C94  1  0.11373981  0.51219227  0.43672576  1  0.108882  0  -0.014677  -0.03586  0  4.119305  0
C  C95  1  0.96497934  0.51293150  0.42882779  1  -0.250074  0  -0.036922  -0.048861  0  4.079013  0
C  C96  1  0.03434072  0.51482650  0.42755485  1  0.000338  0  -0.035535  -0.045187  0  4.076194  0
C  C97  1  0.43541959  0.53994267  0.75122790  1  0.492544  0  0.077945  0.212984  0  4.098891  0
C  C98  1  0.55540552  0.45455089  0.26457214  1  0.510447  0  0.072249  0.199935  0  4.118981  0
C  C99  1  0.46647293  0.55486565  0.26725058  1  0.541504  0  0.074971  0.203205  0  4.11864  0
C  C100  1  0.52116588  0.43679330  0.75403102  1  0.512573  0  0.075609  0.205075  0  4.103877  0
C  C101  1  0.43285865  0.53901088  0.82339797  1  0.464686  0  0.042733  0.033511  0  4.090683  0
C  C102  1  0.48038074  0.48919921  0.71506440  1  0.055354  0  -0.037374  -0.231585  0  3.927783  0
C  C103  1  0.55404852  0.45624154  0.19258563  1  0.49431  0  0.043384  0.040522  0  4.096664  0
C  C104  1  0.46398003  0.55541409  0.19527160  1  0.430729  0  0.044651  0.041548  0  4.0952  0
C  C105  1  0.51782516  0.43654853  0.82602940  1  0.485305  0  0.040181  0.03287  0  4.09367  0
C  C106  1  0.32160515  0.57297587  0.88666243  1  0.378265  0  -0.138459  -0.169061  0  3.911709  0
C  C107  1  0.66558769  0.42759939  0.12808119  1  0.38144  0  -0.138777  -0.168819  0  3.911823  0
C  C108  1  0.44310416  0.67018996  0.13911941  1  0.395709  0  -0.140403  -0.170779  0  3.927426  0
C  C109  1  0.52894581  0.31993718  0.88102611  1  0.357024  0  -0.139848  -0.170614  0  3.924301  0
C  C110  1  0.42956298  0.19116244  0.67468980  1  0.354385  0  -0.129546  -0.174582  0  3.917011  0
C  C111  1  0.30396687  0.79941117  0.53457131  1  0.360187  0  -0.129816  -0.172804  0  3.898459  0
C  C112  1  0.57296074  0.20236409  0.33049812  1  0.385955  0  -0.129618  -0.176234  0  3.911614  0
C  C113  1  0.51214481  0.50416012  0.30250289  1  0.060688  0  -0.035893  -0.222487  0  3.962944  0
C  C114  1  0.70577513  0.80320449  0.46979952  1  0.390338  0  -0.130213  -0.176085  0  3.90358  0
C  C115  1  0.33285985  0.06817544  0.41834030  1  0.397933  0  -0.137117  -0.168902  0  3.908331  0
C  C116  1  0.55584343  0.92687419  0.66700206  1  0.317392  0  -0.137788  -0.17075  0  3.915032  0
C  C117  1  0.66992775  0.07173531  0.58383366  1  0.39159  0  -0.137792  -0.17023  0  3.908298  0
C  C118  1  0.44920441  0.92801444  0.33429557  1  0.38395  0  -0.13848  -0.17029  0  3.915161  0
C  C119  1  0.43645930  0.44983002  0.98195540  1  -0.092129  0  -0.091403  -0.139883  0  4.015758  0
C  C120  1  0.54298929  0.54592242  0.03697606  1  -0.028529  0  -0.090765  -0.138993  0  4.014093  0
C  C121  1  0.44545894  0.45446838  0.05280792  1  -0.032703  0  -0.085608  -0.120141  0  3.968133  0
N  N122  1  0.49571372  0.30938376  0.50315124  1  -1.233579  0  -0.332262  -0.159299  0  3.644048  0
N  N123  1  0.50728014  0.68823748  0.50914771  1  -1.235705  0  -0.328774  -0.158308  0  3.636491  0
O  O124  1  0.48725285  0.44154805  0.40583905  1  -1.152682  0  -0.310896  -0.535178  0  2.31891  0
O  O125  1  0.13048324  0.63369258  0.39017118  1  -1.139248  0  -0.362939  -0.431059  0  2.258156  0
O  O126  1  0.10178512  0.38990559  0.48278728  1  -1.139304  0  -0.356844  -0.425098  0  2.263042  0
O  O127  1  0.89058181  0.63221853  0.48801683  1  -1.090838  0  -0.360512  -0.429016  0  2.260574  0
O  O128  1  0.73056736  0.37750842  0.43285248  1  -1.177301  0  -0.37746  -0.47915  0  2.293133  0
O  O129  1  0.27982675  0.63256128  0.42173494  1  -1.182515  0  -0.377178  -0.485439  0  2.308789  0
O  O130  1  0.25018867  0.38476423  0.51420712  1  -1.163831  0  -0.378797  -0.478607  0  2.279864  0
O  O131  1  0.74437771  0.62357500  0.52808170  1  -1.204293  0  -0.376448  -0.489052  0  2.310908  0
O  O132  1  0.39334913  0.59165704  0.71790590  1  -1.112516  0  -0.348537  -0.406494  0  2.293386  0
O  O133  1  0.59927992  0.40332300  0.29740298  1  -1.132141  0  -0.348907  -0.418956  0  2.301544  0
O  O134  1  0.42102349  0.60139508  0.30310871  1  -1.121224  0  -0.34747  -0.411361  0  2.286966  0
O  O135  1  0.48093573  0.55436352  0.60954133  1  -1.148657  0  -0.31338  -0.528688  0  2.339944  0
O  O136  1  0.56832471  0.38726216  0.72393963  1  -1.123427  0  -0.348926  -0.408761  0  2.297627  0
O  O137  1  0.39070722  0.59542002  0.85257860  1  -1.074277  0  -0.215341  -0.19927  0  2.555687  0
O  O138  1  0.59660162  0.40194962  0.16045206  1  -1.074655  0  -0.219422  -0.206494  0  2.548935  0
O  O139  1  0.41116805  0.60278339  0.16528809  1  -1.076063  0  -0.217222  -0.199633  0  2.544115  0
O  O140  1  0.56589927  0.38673339  0.85921618  1  -1.068175  0  -0.215727  -0.197601  0  2.543629  0
O  O141  1  0.44811462  0.15374604  0.61272992  1  -1.070917  0  -0.178655  -0.143269  0  2.601318  0
O  O142  1  0.37392980  0.83948914  0.52845812  1  -1.061168  0  -0.180038  -0.147884  0  2.595036  0
O  O143  1  0.55081865  0.16105946  0.38991854  1  -1.069045  0  -0.178482  -0.143684  0  2.602094  0
O  O144  1  0.63489171  0.84161124  0.47522352  1  -1.062104  0  -0.180027  -0.146292  0  2.59438  0
O  O145  1  0.41341936  0.07486571  0.40604502  1  -1.093506  0  -0.206696  -0.185429  0  2.570633  0
O  O146  1  0.50002404  0.43159328  0.60867757  1  -1.15139  0  -0.312342  -0.529636  0  2.370478  0
O  O147  1  0.58667879  0.92270907  0.59877010  1  -1.064482  0  -0.206814  -0.182475  0  2.565114  0
O  O148  1  0.58903620  0.07681200  0.59490152  1  -1.073755  0  -0.206936  -0.185739  0  2.570469  0
O  O149  1  0.42094413  0.92058912  0.40326906  1  -1.067462  0  -0.205617  -0.181743  0  2.56562  0
O  O150  1  0.53321357  0.55758445  0.41094281  1  -1.154105  0  -0.312077  -0.538125  0  2.301584  0
O  O151  1  0.37889980  0.44782434  0.51471525  1  -1.176919  0  -0.309219  -0.545315  0  2.322165  0
O  O152  1  0.62162944  0.55098556  0.53297336  1  -1.168116  0  -0.314982  -0.551079  0  2.309308  0
O  O153  1  0.61618982  0.43494770  0.49335308  1  -1.176444  0  -0.304797  -0.539208  0  2.329279  0
O  O154  1  0.39112822  0.56563513  0.47977212  1  -1.177313  0  -0.307305  -0.549362  0  2.351103  0
O  O155  1  0.87663138  0.38946976  0.39361888  1  -1.115849  0  -0.359856  -0.428213  0  2.259545  0
