# generated using pymatgen
data_CdH8C12S(N2O3)2
_symmetry_space_group_name_H-M   'P 1'
_cell_length_a   7.54966150
_cell_length_b   11.81829326
_cell_length_c   16.49479971
_cell_angle_alpha   89.99989808
_cell_angle_beta   89.99998307
_cell_angle_gamma   94.37677427
_symmetry_Int_Tables_number   1
_chemical_formula_structural   CdH8C12S(N2O3)2
_chemical_formula_sum   'Cd4 H32 C48 S4 N16 O24'
_cell_volume   1467.44196908
_cell_formula_units_Z   4
loop_
 _symmetry_equiv_pos_site_id
 _symmetry_equiv_pos_as_xyz
  1  'x, y, z'
loop_
 _atom_site_type_symbol
 _atom_site_label
 _atom_site_symmetry_multiplicity
 _atom_site_fract_x
 _atom_site_fract_y
 _atom_site_fract_z
 _atom_site_occupancy
 _atom_site_hle17_bader_spin_density
 _atom_site_hle17_ddec_charge
 _atom_site_hle17_ddec_spin_density
 _atom_site_hle17_ddec_sum_bond_order
 _atom_site_hle17_magmom
 _atom_site_hse06_10hf_bader_spin_density
 _atom_site_hse06_10hf_ddec_charge
 _atom_site_hse06_10hf_ddec_spin_density
 _atom_site_hse06_10hf_ddec_sum_bond_order
 _atom_site_hse06_10hf_magmom
 _atom_site_hse06_bader_spin_density
 _atom_site_hse06_ddec_charge
 _atom_site_hse06_ddec_spin_density
 _atom_site_hse06_ddec_sum_bond_order
 _atom_site_hse06_magmom
 _atom_site_pbe_bader_spin_density
 _atom_site_pbe_cm5_charge
 _atom_site_pbe_ddec_charge
 _atom_site_pbe_ddec_spin_density
 _atom_site_pbe_ddec_sum_bond_order
 _atom_site_pbe_magmom
Cd  Cd0  1  0.05035105  0.21500426  0.18425248  1  0  1.124491  0  1.668027  0  0  0.922102  0  2.121482  0  0  0.981018  0  2.067592  0  0  0.797302  0.879882  0  2.158546  0
Cd  Cd1  1  0.44964459  0.78499666  0.68425270  1  0  1.124494  0  1.668016  0  0  0.922101  0  2.121465  0  0  0.981012  0  2.067596  0  0  0.797302  0.879884  0  2.158533  0
Cd  Cd2  1  0.94964666  0.78499586  0.81574623  1  0  1.124472  0  1.668059  0  0  0.922066  0  2.121518  0  0  0.980832  0  2.067702  0  0  0.797291  0.879848  0  2.158576  0
Cd  Cd3  1  0.55035322  0.21500431  0.31574601  1  0  1.124448  0  1.668034  0  0  0.92206  0  2.121482  0  0  0.980975  0  2.067593  0  0  0.797289  0.87984  0  2.158545  0
H  H4  1  0.19965531  0.76263275  0.05867436  1  0  0.116357  0  0.948036  0  0  0.130212  0  1.002042  0  0  0.132789  0  1.001079  0  0  0.106683  0.128313  0  1.002864  0
H  H5  1  0.30034452  0.23736934  0.55867469  1  0  0.116287  0  0.948173  0  0  0.130205  0  1.002103  0  0  0.132781  0  1.00114  0  0  0.106678  0.128306  0  1.002923  0
H  H6  1  0.80035177  0.23736822  0.94132677  1  0  0.116391  0  0.948045  0  0  0.130247  0  1.002045  0  0  0.132822  0  1.001079  0  0  0.106731  0.128345  0  1.002872  0
H  H7  1  0.69965186  0.76263079  0.44132947  1  0  0.116345  0  0.948081  0  0  0.130192  0  1.00209  0  0  0.132768  0  1.001127  0  0  0.10668  0.128284  0  1.002922  0
H  H8  1  0.18583773  0.00967234  0.07389903  1  0  0.089915  0  0.932032  0  0  0.098009  0  0.995615  0  0  0.100753  0  0.992882  0  0  0.120315  0.095947  0  0.997724  0
H  H9  1  0.31415649  0.99032717  0.57389598  1  0  0.089915  0  0.932084  0  0  0.09804  0  0.995626  0  0  0.100778  0  0.992907  0  0  0.120313  0.095975  0  0.99774  0
H  H10  1  0.81416019  0.99032948  0.92610271  1  0  0.089866  0  0.932102  0  0  0.098002  0  0.995632  0  0  0.100736  0  0.992918  0  0  0.120289  0.095935  0  0.997745  0
H  H11  1  0.68584000  0.00967381  0.42610151  1  0  0.089908  0  0.932059  0  0  0.098033  0  0.995597  0  0  0.100778  0  0.992864  0  0  0.120313  0.095969  0  0.99771  0
H  H12  1  0.93702385  0.47188205  0.25606883  1  0  0.118187  0  0.958461  0  0  0.126188  0  1.023095  0  0  0.129311  0  1.021255  0  0  0.102218  0.123966  0  1.024384  0
H  H13  1  0.56297608  0.52811828  0.75606883  1  0  0.11816  0  0.958496  0  0  0.126161  0  1.023131  0  0  0.129285  0  1.021288  0  0  0.102198  0.123935  0  1.024417  0
H  H14  1  0.06297783  0.52811807  0.74392988  1  0  0.118206  0  0.958425  0  0  0.126212  0  1.023061  0  0  0.129336  0  1.021217  0  0  0.102224  0.123989  0  1.024352  0
H  H15  1  0.43702459  0.47188439  0.24393110  1  0  0.118181  0  0.958483  0  0  0.12617  0  1.023131  0  0  0.129294  0  1.021289  0  0  0.102219  0.123948  0  1.024418  0
H  H16  1  0.37613246  0.34761287  0.91256434  1  0  0.107039  0  0.948654  0  0  0.117411  0  1.009623  0  0  0.120599  0  1.00889  0  0  0.105021  0.115135  0  1.010289  0
H  H17  1  0.12387325  0.65238492  0.41256173  1  0  0.107041  0  0.948687  0  0  0.117428  0  1.009635  0  0  0.120621  0  1.008878  0  0  0.105039  0.115153  0  1.010302  0
H  H18  1  0.62387002  0.65238301  0.08743316  1  0  0.107035  0  0.948673  0  0  0.117403  0  1.009665  0  0  0.12061  0  1.008876  0  0  0.10501  0.115121  0  1.010338  0
H  H19  1  0.87612955  0.34761351  0.58743638  1  0  0.107026  0  0.948652  0  0  0.117421  0  1.009601  0  0  0.120609  0  1.008867  0  0  0.105029  0.115145  0  1.010264  0
H  H20  1  0.02539032  0.82091005  0.17757302  1  0  0.098639  0  0.980745  0  0  0.102023  0  1.052596  0  0  0.105114  0  1.050744  0  0  0.09915  0.09975  0  1.054037  0
H  H21  1  0.47460920  0.17909003  0.67757159  1  0  0.09863  0  0.980781  0  0  0.101991  0  1.052638  0  0  0.10507  0  1.050812  0  0  0.099138  0.099718  0  1.054081  0
H  H22  1  0.97461390  0.17908922  0.82242872  1  0  0.098667  0  0.980726  0  0  0.102006  0  1.052609  0  0  0.105069  0  1.05081  0  0  0.099135  0.099734  0  1.054052  0
H  H23  1  0.52539015  0.82091264  0.32242894  1  0  0.098696  0  0.980652  0  0  0.102045  0  1.052536  0  0  0.105136  0  1.050683  0  0  0.099137  0.099774  0  1.053977  0
H  H24  1  0.89391567  0.67913214  0.27456422  1  0  0.089981  0  0.972387  0  0  0.100957  0  1.033399  0  0  0.10257  0  1.034693  0  0  0.097852  0.099777  0  1.032603  0
H  H25  1  0.60608394  0.32086560  0.77456448  1  0  0.089974  0  0.972409  0  0  0.100943  0  1.033438  0  0  0.102557  0  1.034727  0  0  0.097852  0.09976  0  1.032635  0
H  H26  1  0.10608560  0.32086459  0.72543509  1  0  0.089974  0  0.972442  0  0  0.100973  0  1.033429  0  0  0.102583  0  1.034729  0  0  0.097846  0.099786  0  1.032629  0
H  H27  1  0.39392070  0.67913706  0.22543665  1  0  0.089984  0  0.972385  0  0  0.100964  0  1.0334  0  0  0.102577  0  1.034694  0  0  0.097861  0.099784  0  1.032602  0
H  H28  1  0.33986561  0.98343786  0.94058792  1  0  0.113831  0  0.944395  0  0  0.121416  0  1.006414  0  0  0.124628  0  1.00558  0  0  0.109277  0.119078  0  1.007224  0
H  H29  1  0.16013049  0.01655732  0.44058732  1  0  0.113778  0  0.944509  0  0  0.121368  0  1.006534  0  0  0.124588  0  1.005684  0  0  0.10927  0.11903  0  1.007343  0
H  H30  1  0.66013137  0.01655633  0.05941382  1  0  0.113777  0  0.944519  0  0  0.121364  0  1.006541  0  0  0.124586  0  1.00569  0  0  0.109264  0.119024  0  1.007351  0
H  H31  1  0.83986415  0.98343941  0.55941139  1  0  0.1138  0  0.944461  0  0  0.121399  0  1.006473  0  0  0.124618  0  1.00563  0  0  0.109272  0.119059  0  1.007282  0
H  H32  1  0.43924559  0.15616409  0.85955805  1  0  0.105575  0  0.953886  0  0  0.113867  0  1.016054  0  0  0.116829  0  1.013778  0  0  0.110874  0.111687  0  1.017754  0
H  H33  1  0.06075619  0.84383383  0.35955642  1  0  0.105645  0  0.953814  0  0  0.113915  0  1.016  0  0  0.11688  0  1.013718  0  0  0.110876  0.111734  0  1.017692  0
H  H34  1  0.56075414  0.84383094  0.14044127  1  0  0.10563  0  0.953922  0  0  0.113895  0  1.016103  0  0  0.11686  0  1.013824  0  0  0.110864  0.111715  0  1.017801  0
H  H35  1  0.93924507  0.15616289  0.64044290  1  0  0.105605  0  0.953814  0  0  0.113879  0  1.016003  0  0  0.11682  0  1.013758  0  0  0.110876  0.111701  0  1.017693  0
C  C36  1  0.16117217  0.58433096  0.08993524  1  0  -0.046561  0  3.769822  0  0  -0.02888  0  4.02531  0  0  -0.030133  0  4.049198  0  0  -0.009383  -0.02811  0  4.009232  0
C  C37  1  0.33882631  0.41567105  0.58993898  1  0  -0.046715  0  3.770085  0  0  -0.028954  0  4.025472  0  0  -0.030211  0  4.049362  0  0  -0.009432  -0.028164  0  4.009362  0
C  C38  1  0.83882696  0.41567001  0.91006105  1  0  -0.046705  0  3.770019  0  0  -0.028926  0  4.025414  0  0  -0.030183  0  4.049303  0  0  -0.009426  -0.028128  0  4.009296  0
C  C39  1  0.66116509  0.58433163  0.41006519  1  0  -0.046553  0  3.769846  0  0  -0.028909  0  4.025403  0  0  -0.030152  0  4.04928  0  0  -0.009369  -0.028142  0  4.009326  0
C  C40  1  0.20652485  0.38666214  0.05645572  1  0  0.13182  0  3.741368  0  0  0.117256  0  4.023458  0  0  0.130298  0  4.036927  0  0  0.130667  0.108721  0  4.013903  0
C  C41  1  0.29347855  0.61333655  0.55645497  1  0  0.131913  0  3.741287  0  0  0.117382  0  4.023342  0  0  0.130427  0  4.036804  0  0  0.130741  0.108837  0  4.013803  0
C  C42  1  0.79347948  0.61333798  0.94354299  1  0  0.13191  0  3.741311  0  0  0.117285  0  4.023465  0  0  0.130329  0  4.036931  0  0  0.130681  0.108747  0  4.013921  0
C  C43  1  0.70652017  0.38666103  0.44354495  1  0  0.131871  0  3.74135  0  0  0.117299  0  4.023437  0  0  0.130343  0  4.036906  0  0  0.130675  0.108764  0  4.013882  0
C  C44  1  0.14212997  0.70002715  0.10137028  1  0  -0.104409  0  3.745095  0  0  -0.126455  0  3.995222  0  0  -0.12921  0  4.016901  0  0  -0.094572  -0.124455  0  3.980439  0
C  C45  1  0.35786443  0.29997399  0.60137174  1  0  -0.104324  0  3.74514  0  0  -0.12645  0  3.995224  0  0  -0.129203  0  4.016904  0  0  -0.094567  -0.124453  0  3.980439  0
C  C46  1  0.85787050  0.29997382  0.89862903  1  0  -0.104462  0  3.745156  0  0  -0.126535  0  3.99525  0  0  -0.129286  0  4.016922  0  0  -0.094671  -0.124546  0  3.980479  0
C  C47  1  0.64212666  0.70002614  0.39863363  1  0  -0.104347  0  3.745089  0  0  -0.126358  0  3.995191  0  0  -0.129111  0  4.016858  0  0  -0.094527  -0.12436  0  3.980438  0
C  C48  1  0.08829122  0.50206654  0.14601721  1  0  0.183762  0  3.844565  0  0  0.179788  0  4.090614  0  0  0.183061  0  4.116007  0  0  0.087612  0.17751  0  4.073419  0
C  C49  1  0.41170954  0.49793277  0.64601599  1  0  0.183819  0  3.844793  0  0  0.179849  0  4.090766  0  0  0.183126  0  4.116157  0  0  0.087655  0.177564  0  4.073567  0
C  C50  1  0.91171035  0.49793273  0.85398210  1  0  0.183858  0  3.844828  0  0  0.179798  0  4.09093  0  0  0.183075  0  4.116323  0  0  0.087619  0.177516  0  4.073733  0
C  C51  1  0.58829081  0.50206735  0.35398212  1  0  0.183688  0  3.844662  0  0  0.17968  0  4.090779  0  0  0.182951  0  4.116171  0  0  0.087553  0.177404  0  4.073586  0
C  C52  1  0.23043371  0.08181903  0.03589852  1  0  0.147908  0  3.682313  0  0  0.114977  0  3.933781  0  0  0.122497  0  3.951244  0  0  0.05632  0.110016  0  3.921909  0
C  C53  1  0.26956583  0.91818057  0.53589618  1  0  0.14786  0  3.682274  0  0  0.114913  0  3.933756  0  0  0.122423  0  3.951241  0  0  0.056331  0.109962  0  3.921882  0
C  C54  1  0.76956797  0.91818109  0.96410201  1  0  0.147913  0  3.682283  0  0  0.114956  0  3.933756  0  0  0.122472  0  3.951228  0  0  0.056335  0.110004  0  3.921877  0
C  C55  1  0.73043606  0.08182125  0.46410132  1  0  0.147909  0  3.68224  0  0  0.114981  0  3.933713  0  0  0.122503  0  3.951171  0  0  0.056351  0.11002  0  3.921847  0
C  C56  1  0.99241944  0.53575329  0.21366027  1  0  -0.141343  0  3.708244  0  0  -0.162778  0  3.96063  0  0  -0.165795  0  3.980818  0  0  -0.094327  -0.16067  0  3.94695  0
C  C57  1  0.50758462  0.46424799  0.71365793  1  0  -0.141336  0  3.708188  0  0  -0.162777  0  3.960567  0  0  -0.165794  0  3.980748  0  0  -0.094319  -0.160664  0  3.946872  0
C  C58  1  0.00758632  0.46424767  0.78634026  1  0  -0.141324  0  3.708166  0  0  -0.162752  0  3.960572  0  0  -0.165769  0  3.980755  0  0  -0.094297  -0.160644  0  3.946878  0
C  C59  1  0.49242267  0.53575468  0.28633836  1  0  -0.141297  0  3.708199  0  0  -0.162707  0  3.960589  0  0  -0.165724  0  3.980778  0  0  -0.094295  -0.160582  0  3.946877  0
C  C60  1  0.24947751  0.27822387  0.02118285  1  0  0.185483  0  3.804422  0  0  0.181287  0  4.048672  0  0  0.186178  0  4.069904  0  0  0.116743  0.177886  0  4.034219  0
C  C61  1  0.25052062  0.72177493  0.52118318  1  0  0.185412  0  3.804475  0  0  0.181195  0  4.048738  0  0  0.186082  0  4.069972  0  0  0.116694  0.177788  0  4.034299  0
C  C62  1  0.75052275  0.72177541  0.97881465  1  0  0.185286  0  3.804689  0  0  0.181145  0  4.048912  0  0  0.186031  0  4.070145  0  0  0.116688  0.177734  0  4.034468  0
C  C63  1  0.74947830  0.27822435  0.47881674  1  0  0.185383  0  3.804463  0  0  0.181199  0  4.048719  0  0  0.186087  0  4.069953  0  0  0.116729  0.177799  0  4.034267  0
C  C64  1  0.33738824  0.27088229  0.94696493  1  0  -0.130779  0  3.688027  0  0  -0.153569  0  3.939554  0  0  -0.159128  0  3.959683  0  0  -0.076683  -0.149964  0  3.92613  0
C  C65  1  0.16260949  0.72911542  0.44696464  1  0  -0.130756  0  3.688111  0  0  -0.153556  0  3.939631  0  0  -0.159105  0  3.959771  0  0  -0.076665  -0.149953  0  3.926211  0
C  C66  1  0.66261159  0.72911359  0.05303257  1  0  -0.130659  0  3.688058  0  0  -0.153484  0  3.939562  0  0  -0.159037  0  3.959702  0  0  -0.076636  -0.149873  0  3.926143  0
C  C67  1  0.83738658  0.27088216  0.55303528  1  0  -0.130746  0  3.688078  0  0  -0.153555  0  3.939596  0  0  -0.159115  0  3.959722  0  0  -0.076683  -0.149955  0  3.926174  0
C  C68  1  0.04518772  0.73165150  0.16832834  1  0  -0.047533  0  3.734404  0  0  -0.062758  0  3.989601  0  0  -0.064938  0  4.011432  0  0  -0.087041  -0.061248  0  3.974872  0
C  C69  1  0.45481037  0.26834776  0.66832740  1  0  -0.047594  0  3.734463  0  0  -0.062792  0  3.989683  0  0  -0.064983  0  4.011536  0  0  -0.08708  -0.061291  0  3.97496  0
C  C70  1  0.95481518  0.26834777  0.83167340  1  0  -0.047568  0  3.734419  0  0  -0.062758  0  3.989623  0  0  -0.064946  0  4.011472  0  0  -0.087035  -0.061256  0  3.974901  0
C  C71  1  0.54518713  0.73165067  0.33167434  1  0  -0.047659  0  3.734382  0  0  -0.062864  0  3.98959  0  0  -0.065044  0  4.011422  0  0  -0.087084  -0.061359  0  3.974865  0
C  C72  1  0.97086305  0.65062684  0.22361909  1  0  -0.061967  0  3.754878  0  0  -0.076676  0  4.004633  0  0  -0.078821  0  4.02786  0  0  -0.091758  -0.075152  0  3.988875  0
C  C73  1  0.52914099  0.34937442  0.72361811  1  0  -0.061881  0  3.754797  0  0  -0.076589  0  4.004537  0  0  -0.078731  0  4.027758  0  0  -0.091703  -0.075055  0  3.988765  0
C  C74  1  0.02914271  0.34937413  0.77638144  1  0  -0.061965  0  3.754834  0  0  -0.076681  0  4.004551  0  0  -0.078826  0  4.027776  0  0  -0.091708  -0.07514  0  3.98878  0
C  C75  1  0.47086905  0.65062909  0.27638060  1  0  -0.061921  0  3.75485  0  0  -0.076632  0  4.004589  0  0  -0.078776  0  4.027818  0  0  -0.091726  -0.075103  0  3.988831  0
C  C76  1  0.31718051  0.06804964  0.96237719  1  0  -0.092245  0  3.683256  0  0  -0.106688  0  3.93581  0  0  -0.112184  0  3.955135  0  0  -0.071914  -0.103267  0  3.922994  0
C  C77  1  0.18282251  0.93194802  0.46237543  1  0  -0.092078  0  3.683284  0  0  -0.106564  0  3.935876  0  0  -0.11205  0  3.955173  0  0  -0.071894  -0.103147  0  3.923057  0
C  C78  1  0.68282341  0.93194708  0.03762455  1  0  -0.092035  0  3.683312  0  0  -0.106512  0  3.935889  0  0  -0.111991  0  3.955168  0  0  -0.071841  -0.103097  0  3.923077  0
C  C79  1  0.81717632  0.06805041  0.53762449  1  0  -0.092169  0  3.683294  0  0  -0.106659  0  3.935877  0  0  -0.112145  0  3.955165  0  0  -0.071908  -0.103236  0  3.923057  0
C  C80  1  0.37151653  0.16442091  0.91729564  1  0  0.019409  0  3.673569  0  0  -1.2e-05  0  3.925334  0  0  0.00376  0  3.941491  0  0  -0.056631  -0.002342  0  3.914457  0
C  C81  1  0.12848499  0.83557517  0.41729583  1  0  0.019226  0  3.673605  0  0  -0.000155  0  3.925385  0  0  0.003621  0  3.94153  0  0  -0.056674  -0.002482  0  3.914503  0
C  C82  1  0.62848595  0.83557496  0.08270246  1  0  0.019222  0  3.673738  0  0  -0.000147  0  3.925505  0  0  0.003627  0  3.941658  0  0  -0.05668  -0.002479  0  3.914622  0
C  C83  1  0.87151505  0.16442241  0.58270409  1  0  0.019359  0  3.673574  0  0  -3.8e-05  0  3.925354  0  0  0.003735  0  3.941519  0  0  -0.056635  -0.002369  0  3.914468  0
S  S84  1  0.26396980  0.51703637  0.01124017  1  0  0.114781  0  2.546183  0  0  0.106657  0  2.88148  0  0  0.104149  0  2.886299  0  0  0.113996  0.108041  0  2.878392  0
S  S85  1  0.23603099  0.48296244  0.51123959  1  0  0.114778  0  2.546178  0  0  0.106602  0  2.881456  0  0  0.104095  0  2.886273  0  0  0.113961  0.107983  0  2.878359  0
S  S86  1  0.73603310  0.48296290  0.98875976  1  0  0.114814  0  2.546106  0  0  0.10667  0  2.881405  0  0  0.104161  0  2.886223  0  0  0.113999  0.108047  0  2.878305  0
S  S87  1  0.76396275  0.51703769  0.48876215  1  0  0.11475  0  2.546095  0  0  0.106633  0  2.881425  0  0  0.104119  0  2.886243  0  0  0.113974  0.108025  0  2.878329  0
N  N88  1  0.18236463  0.28492719  0.35532270  1  0  0.697134  0  4.112483  0  0  0.726707  0  4.403343  0  0  0.756311  0  4.40852  0  0  0.101391  0.72011  0  4.380177  0
N  N89  1  0.31763207  0.71507245  0.85532304  1  0  0.697103  0  4.11241  0  0  0.726694  0  4.403244  0  0  0.7563  0  4.408417  0  0  0.101385  0.720099  0  4.380071  0
N  N90  1  0.81763176  0.71507294  0.64467722  1  0  0.697066  0  4.112405  0  0  0.726631  0  4.403281  0  0  0.756229  0  4.408478  0  0  0.101368  0.720071  0  4.380059  0
N  N91  1  0.68236431  0.28492767  0.14467810  1  0  0.697019  0  4.112443  0  0  0.726656  0  4.403255  0  0  0.756262  0  4.40843  0  0  0.101401  0.720168  0  4.379936  0
N  N92  1  0.11817392  0.39224100  0.12500763  1  0  -0.391045  0  3.23538  0  0  -0.328662  0  3.505402  0  0  -0.349019  0  3.522036  0  0  -0.33607  -0.314589  0  3.493575  0
N  N93  1  0.38183370  0.60776006  0.62500627  1  0  -0.391022  0  3.235335  0  0  -0.328681  0  3.505379  0  0  -0.349038  0  3.522006  0  0  -0.336089  -0.314602  0  3.493551  0
N  N94  1  0.88183174  0.60775911  0.87499108  1  0  -0.391035  0  3.235331  0  0  -0.328616  0  3.505385  0  0  -0.348974  0  3.522021  0  0  -0.336067  -0.314545  0  3.493562  0
N  N95  1  0.61816952  0.39224176  0.37499305  1  0  -0.391031  0  3.235459  0  0  -0.328621  0  3.505468  0  0  -0.348978  0  3.522102  0  0  -0.336079  -0.314552  0  3.493644  0
N  N96  1  0.91234291  0.00564948  0.25201209  1  0  0.683695  0  4.133951  0  0  0.727335  0  4.408689  0  0  0.74482  0  4.431383  0  0  0.091246  0.707546  0  4.404102  0
N  N97  1  0.58765428  0.99435001  0.75201271  1  0  0.683719  0  4.133708  0  0  0.727467  0  4.408335  0  0  0.744873  0  4.43114  0  0  0.091328  0.707682  0  4.403746  0
N  N98  1  0.08765613  0.99435064  0.74798783  1  0  0.683646  0  4.133952  0  0  0.727324  0  4.408629  0  0  0.743135  0  4.431706  0  0  0.091256  0.707535  0  4.404046  0
N  N99  1  0.41234343  0.00565011  0.24798782  1  0  0.684004  0  4.133624  0  0  0.727445  0  4.408557  0  0  0.744972  0  4.431201  0  0  0.0913  0.707647  0  4.403979  0
N  N100  1  0.19713944  0.18428852  0.06433348  1  0  -0.353317  0  3.246066  0  0  -0.275158  0  3.500623  0  0  -0.295965  0  3.520034  0  0  -0.325112  -0.260832  0  3.487151  0
N  N101  1  0.30285865  0.81571016  0.56433308  1  0  -0.35326  0  3.246017  0  0  -0.275084  0  3.500569  0  0  -0.295901  0  3.520006  0  0  -0.325091  -0.260756  0  3.4871  0
N  N102  1  0.80286081  0.81571075  0.93566462  1  0  -0.353299  0  3.246119  0  0  -0.275147  0  3.500668  0  0  -0.295965  0  3.520105  0  0  -0.325103  -0.260816  0  3.487189  0
N  N103  1  0.69714170  0.18428997  0.43566563  1  0  -0.353264  0  3.245976  0  0  -0.275129  0  3.500557  0  0  -0.295938  0  3.519975  0  0  -0.325128  -0.260806  0  3.487091  0
O  O104  1  0.84007909  0.91499537  0.27832708  1  0  -0.405503  0  1.763084  0  0  -0.403414  0  1.968999  0  0  -0.411714  0  1.969049  0  0  -0.156276  -0.394722  0  1.972248  0
O  O105  1  0.65991940  0.08500405  0.77832824  1  0  -0.405472  0  1.763044  0  0  -0.403421  0  1.968902  0  0  -0.411699  0  1.968998  0  0  -0.15629  -0.394731  0  1.972148  0
O  O106  1  0.15992116  0.08500390  0.72167223  1  0  -0.405517  0  1.763073  0  0  -0.403442  0  1.968965  0  0  -0.411018  0  1.969052  0  0  -0.1563  -0.394752  0  1.972219  0
O  O107  1  0.34008096  0.91499607  0.22167290  1  0  -0.405643  0  1.762935  0  0  -0.403473  0  1.968906  0  0  -0.411785  0  1.968941  0  0  -0.15633  -0.394779  0  1.972157  0
O  O108  1  0.26236328  0.26370202  0.28609119  1  0  -0.554126  0  1.90879  0  0  -0.506124  0  2.175898  0  0  -0.532377  0  2.164204  0  0  -0.228251  -0.491602  0  2.178283  0
O  O109  1  0.23763380  0.73630034  0.78609091  1  0  -0.55416  0  1.90885  0  0  -0.506149  0  2.175947  0  0  -0.532424  0  2.164294  0  0  -0.228287  -0.491631  0  2.178342  0
O  O110  1  0.73763199  0.73629981  0.71390933  1  0  -0.554183  0  1.908847  0  0  -0.506181  0  2.17597  0  0  -0.532454  0  2.164312  0  0  -0.228303  -0.491664  0  2.178331  0
O  O111  1  0.76236401  0.26370063  0.21390902  1  0  -0.554098  0  1.90887  0  0  -0.506139  0  2.176005  0  0  -0.532398  0  2.164314  0  0  -0.228275  -0.491651  0  2.178348  0
O  O112  1  0.03919877  0.32962675  0.35249998  1  0  -0.397479  0  1.792083  0  0  -0.393097  0  2.00823  0  0  -0.406169  0  2.003784  0  0  -0.151031  -0.388719  0  2.005509  0
O  O113  1  0.46079793  0.67037290  0.85249913  1  0  -0.397393  0  1.792026  0  0  -0.393052  0  2.008211  0  0  -0.406129  0  2.003768  0  0  -0.150996  -0.388674  0  2.00549  0
O  O114  1  0.96079772  0.67037423  0.64750116  1  0  -0.397372  0  1.79205  0  0  -0.393008  0  2.008227  0  0  -0.406089  0  2.003796  0  0  -0.150977  -0.388643  0  2.005488  0
O  O115  1  0.53919834  0.32962638  0.14750079  1  0  -0.397378  0  1.792147  0  0  -0.393049  0  2.008302  0  0  -0.406127  0  2.003862  0  0  -0.151004  -0.388709  0  2.005531  0
O  O116  1  0.25789083  0.25886540  0.41935744  1  0  -0.423423  0  1.777419  0  0  -0.417658  0  1.997499  0  0  -0.431861  0  1.991546  0  0  -0.162405  -0.412342  0  1.995874  0
O  O117  1  0.24210449  0.74113408  0.91935775  1  0  -0.42347  0  1.777381  0  0  -0.417663  0  1.997404  0  0  -0.43187  0  1.991452  0  0  -0.162392  -0.412351  0  1.995785  0
O  O118  1  0.74210545  0.74113388  0.58064248  1  0  -0.423452  0  1.777409  0  0  -0.417628  0  1.997435  0  0  -0.431832  0  1.991489  0  0  -0.162381  -0.412331  0  1.995802  0
O  O119  1  0.75789322  0.25886605  0.08064338  1  0  -0.423455  0  1.777292  0  0  -0.417649  0  1.997317  0  0  -0.431849  0  1.991362  0  0  -0.162419  -0.412372  0  1.995648  0
O  O120  1  0.94248061  0.01972011  0.17566741  1  0  -0.493251  0  1.790602  0  0  -0.473407  0  2.020761  0  0  -0.490164  0  2.018168  0  0  -0.200854  -0.45883  0  2.025274  0
O  O121  1  0.55751675  0.98028042  0.67566744  1  0  -0.49331  0  1.790423  0  0  -0.473516  0  2.020559  0  0  -0.490256  0  2.018012  0  0  -0.200921  -0.458943  0  2.025072  0
O  O122  1  0.05751995  0.98028171  0.82433191  1  0  -0.493203  0  1.7906  0  0  -0.47338  0  2.020743  0  0  -0.489454  0  2.018168  0  0  -0.20086  -0.458803  0  2.025255  0
O  O123  1  0.44248218  0.01971885  0.32433309  1  0  -0.493348  0  1.790502  0  0  -0.473439  0  2.020708  0  0  -0.49021  0  2.018102  0  0  -0.200865  -0.458855  0  2.025219  0
O  O124  1  0.95908231  0.08848760  0.29936453  1  0  -0.484994  0  1.774912  0  0  -0.470828  0  1.999616  0  0  -0.487221  0  1.999018  0  0  -0.204344  -0.456492  0  2.002901  0
O  O125  1  0.54091626  0.91151262  0.79936587  1  0  -0.484981  0  1.774903  0  0  -0.470839  0  1.999557  0  0  -0.487212  0  1.998999  0  0  -0.204352  -0.456507  0  2.002844  0
O  O126  1  0.04091550  0.91151337  0.70063539  1  0  -0.484976  0  1.77492  0  0  -0.470814  0  1.999611  0  0  -0.486519  0  1.999034  0  0  -0.204337  -0.456477  0  2.002893  0
O  O127  1  0.45908145  0.08848751  0.20063587  1  0  -0.485079  0  1.77489  0  0  -0.47084  0  1.999647  0  0  -0.487245  0  1.999033  0  0  -0.20433  -0.456502  0  2.002934  0
