# generated using pymatgen
data_CuH22C32N2(O2F3)2
_symmetry_space_group_name_H-M   'P 1'
_cell_length_a   8.48315201
_cell_length_b   9.39307534
_cell_length_c   9.79783781
_cell_angle_alpha   65.85716968
_cell_angle_beta   78.10008586
_cell_angle_gamma   90.09632096
_symmetry_Int_Tables_number   1
_chemical_formula_structural   CuH22C32N2(O2F3)2
_chemical_formula_sum   'Cu1 H22 C32 N2 O4 F6'
_cell_volume   693.87634771
_cell_formula_units_Z   1
loop_
 _symmetry_equiv_pos_site_id
 _symmetry_equiv_pos_as_xyz
  1  'x, y, z'
loop_
 _atom_site_type_symbol
 _atom_site_label
 _atom_site_symmetry_multiplicity
 _atom_site_fract_x
 _atom_site_fract_y
 _atom_site_fract_z
 _atom_site_occupancy
 _atom_site_hle17_ddec_charge
 _atom_site_hle17_ddec_spin_density
 _atom_site_hle17_ddec_sum_bond_order
 _atom_site_hle17_magmom
 _atom_site_hse06_10hf_ddec_charge
 _atom_site_hse06_10hf_ddec_spin_density
 _atom_site_hse06_10hf_ddec_sum_bond_order
 _atom_site_hse06_10hf_magmom
 _atom_site_hse06_ddec_charge
 _atom_site_hse06_ddec_spin_density
 _atom_site_hse06_ddec_sum_bond_order
 _atom_site_hse06_magmom
 _atom_site_pbe_cm5_charge
 _atom_site_pbe_ddec_charge
 _atom_site_pbe_ddec_spin_density
 _atom_site_pbe_ddec_sum_bond_order
 _atom_site_pbe_magmom
Cu  Cu0  1  0.99999592  0.99999739  0.50000597  1  0.908121  -0.710373  1.842716  -0.537  0.902309  -0.803832  2.234001  -0.662  0.989903  -0.871435  2.175339  -0.757  0.719949  0.844192  -0.749459  2.283648  -0.593
H  H1  1  0.99124016  0.49800431  0.23610790  1  0.127158  0.000698  0.992402  0.001  0.129462  0.000299  1.066198  0.0  0.134396  0.00025  1.064757  0.0  0.093968  0.126231  0.000302  1.066958  0.0
H  H2  1  0.00876520  0.50199088  0.76389128  1  0.127137  0.000697  0.992412  0.001  0.129433  0.000299  1.066222  0.0  0.134364  0.00025  1.064787  0.0  0.093956  0.1262  0.000302  1.066985  0.0
H  H3  1  0.82541647  0.61374055  0.31024490  1  0.089567  2.2e-05  0.964769  0.0  0.100305  1e-05  1.026085  0.0  0.103295  1.4e-05  1.024014  0.0  0.098031  0.098422  7e-06  1.027278  0.0
H  H4  1  0.17458971  0.38626524  0.68975398  1  0.089502  2.6e-05  0.964821  0.0  0.100301  1e-05  1.026057  0.0  0.103296  1.3e-05  1.02399  0.0  0.098021  0.098421  7e-06  1.02725  0.0
H  H5  1  0.63131822  0.75123058  0.42326939  1  0.081759  -0.000142  0.984927  0.0  0.089387  -0.000108  1.050431  0.0  0.090236  -7.1e-05  1.053503  0.0  0.09423  0.088909  -0.00014  1.048145  0.0
H  H6  1  0.36868769  0.24877168  0.57672993  1  0.081741  -0.000145  0.984908  0.0  0.089388  -0.000109  1.050391  0.0  0.090239  -7.1e-05  1.053459  0.0  0.094248  0.088917  -0.00014  1.048111  0.0
H  H7  1  0.48735291  0.62160820  0.69875189  1  0.085682  -1.9e-05  0.950506  0.0  0.093764  1.9e-05  1.016225  0.0  0.096555  1.4e-05  1.014361  0.0  0.096228  0.091775  1.2e-05  1.017447  0.0
H  H8  1  0.51264836  0.37839628  0.30124532  1  0.085782  -1.7e-05  0.95043  0.0  0.093881  1.9e-05  1.016123  0.0  0.096673  1.3e-05  1.014258  0.0  0.096256  0.091879  1.2e-05  1.017357  0.0
H  H9  1  0.54228811  0.35142178  0.86070028  1  0.088413  -4e-06  0.981752  0.0  0.091008  -1.3e-05  1.054716  0.0  0.094101  -1e-06  1.053358  0.0  0.087964  0.088762  -2.6e-05  1.055826  0.0
H  H10  1  0.45771306  0.64858152  0.13929640  1  0.088439  -5e-06  0.981713  0.0  0.091015  -1.3e-05  1.054704  0.0  0.094106  -1e-06  1.053343  0.0  0.087946  0.088766  -2.6e-05  1.055807  0.0
H  H11  1  0.73684248  0.21150119  0.74648469  1  0.09182  -0.000321  0.975267  0.0  0.099878  -0.000222  1.04124  0.0  0.102813  -0.000133  1.039499  0.0  0.097464  0.097891  -0.000318  1.042407  0.0
H  H12  1  0.26315999  0.78850333  0.25351331  1  0.091836  -0.00032  0.975257  0.0  0.099863  -0.000222  1.041257  0.0  0.102798  -0.000133  1.039516  0.0  0.097457  0.09788  -0.000318  1.042418  0.0
H  H13  1  0.64049484  0.11630239  0.44335659  1  0.071127  7.6e-05  0.942704  0.0  0.081704  8.3e-05  1.004276  0.0  0.083858  7.6e-05  1.003342  0.0  0.11112  0.079967  8.3e-05  1.005349  0.0
H  H14  1  0.35949548  0.88370071  0.55664311  1  0.071126  7.6e-05  0.942661  0.0  0.0817  8.3e-05  1.004232  0.0  0.083853  7.6e-05  1.003294  0.0  0.111138  0.079962  8.3e-05  1.005306  0.0
H  H15  1  0.43992510  0.11288573  0.28838181  1  0.118432  -3.9e-05  0.963753  0.0  0.125112  -2.5e-05  1.031193  0.0  0.1295  -0.0  1.029054  0.0  0.105413  0.121981  -5.4e-05  1.032381  0.0
H  H16  1  0.56007357  0.88711630  0.71161173  1  0.11846  -3.7e-05  0.963686  0.0  0.125128  -2.5e-05  1.031133  0.0  0.129513  -0.0  1.028996  0.0  0.105431  0.121997  -5.4e-05  1.032317  0.0
H  H17  1  0.80509708  0.93771585  0.03341985  1  0.10272  -0.0  0.970614  0.0  0.111527  -0.0  1.034515  0.0  0.11532  3e-06  1.032453  0.0  0.101898  0.109128  -2e-06  1.036069  0.0
H  H18  1  0.19489752  0.06228033  0.96658290  1  0.102727  2e-06  0.970576  0.0  0.111503  -0.0  1.034507  0.0  0.11532  2e-06  1.032418  0.0  0.101904  0.109104  -2e-06  1.036065  0.0
H  H19  1  0.98564395  0.94619725  0.20084102  1  0.075308  0.000109  0.939299  0.0  0.083599  0.000123  1.004168  0.0  0.087082  0.000106  1.000754  0.0  0.11136  0.081129  0.000113  1.006523  0.0
H  H20  1  0.01435129  0.05380711  0.79915629  1  0.075272  0.000105  0.939282  0.0  0.083588  0.000123  1.004122  0.0  0.087071  0.000106  1.000705  0.0  0.111322  0.081112  0.000113  1.006481  0.0
H  H21  1  0.36980321  0.05932415  0.09450671  1  0.098536  -1e-05  0.948325  0.0  0.107822  -2.1e-05  1.014122  0.0  0.11174  -4e-06  1.01073  0.0  0.104248  0.104856  -4.9e-05  1.016728  0.0
H  H22  1  0.63019157  0.94067429  0.90548795  1  0.098494  -1.3e-05  0.948384  0.0  0.107789  -2.1e-05  1.014181  0.0  0.111708  -4e-06  1.010786  0.0  0.104216  0.104839  -4.9e-05  1.016763  0.0
C  C23  1  0.20474760  0.38641118  0.07816649  1  0.721932  -0.008096  3.611087  -0.01  0.645536  -0.005215  3.952924  -0.007  0.673554  -0.003398  3.9254  -0.005  0.301189  0.625849  -0.006929  3.972371  -0.008
C  C24  1  0.79525600  0.61357700  0.92183990  1  0.722111  -0.008099  3.610604  -0.01  0.645686  -0.005216  3.952409  -0.007  0.673713  -0.003398  3.924848  -0.005  0.301163  0.626001  -0.006929  3.971872  -0.008
C  C25  1  0.11236757  0.29819430  0.24661491  1  0.244472  0.01025  3.888982  0.009  0.231088  0.003338  4.164135  0.003  0.254607  0.003635  4.174527  0.003  0.094803  0.214746  0.002397  4.15742  0.003
C  C26  1  0.88763390  0.70179736  0.75339047  1  0.244516  0.010202  3.888814  0.009  0.231333  0.003339  4.163674  0.003  0.254878  0.003635  4.173998  0.003  0.09487  0.214912  0.002397  4.157083  0.003
C  C27  1  0.00069928  0.37637737  0.30809892  1  -0.369766  -0.00598  3.757756  -0.008  -0.415861  -0.002086  4.040915  -0.004  -0.441094  -0.000637  4.063028  -0.002  -0.150736  -0.399131  -0.003326  4.02655  -0.006
C  C28  1  0.99930496  0.62361901  0.69190305  1  -0.369744  -0.005945  3.757875  -0.008  -0.415855  -0.002087  4.040954  -0.004  -0.441096  -0.000637  4.063059  -0.002  -0.150689  -0.3991  -0.003326  4.026614  -0.006
C  C29  1  0.90430299  0.30753443  0.45977580  1  0.433058  0.00795  3.756437  0.008  0.418008  0.001892  4.023688  0.002  0.450657  0.002422  4.02669  0.002  0.131291  0.395189  0.001265  4.021747  0.002
C  C30  1  0.09570153  0.69246545  0.54022370  1  0.432992  0.007962  3.756496  0.008  0.417893  0.001892  4.023829  0.002  0.450541  0.002421  4.02683  0.002  0.131263  0.395078  0.001264  4.02187  0.002
C  C31  1  0.79483983  0.40138842  0.52139367  1  -0.037959  -0.011612  3.75717  -0.013  -0.012507  -0.006342  3.977446  -0.008  -0.022351  -0.004289  4.00241  -0.006  -0.01869  -0.005919  -0.008154  3.961241  -0.01
C  C32  1  0.20516497  0.59861499  0.47860538  1  -0.03784  -0.011587  3.757166  -0.013  -0.012411  -0.006341  3.977479  -0.008  -0.022255  -0.004287  4.002444  -0.006  -0.018696  -0.005821  -0.008153  3.961278  -0.01
C  C33  1  0.76555525  0.55514017  0.43137690  1  -0.076554  0.002003  3.720002  0.001  -0.09813  0.000377  3.962438  0.0  -0.097624  0.000675  3.983478  0.0  -0.082892  -0.098257  0.00026  3.948019  0.0
C  C34  1  0.23444974  0.44486558  0.56862118  1  -0.076611  0.001935  3.720099  0.001  -0.098215  0.000377  3.962527  0.0  -0.097719  0.000674  3.983577  0.0  -0.082884  -0.098345  0.00026  3.948124  0.0
C  C35  1  0.65560418  0.63357989  0.49517840  1  -0.063329  -0.001634  3.756494  -0.002  -0.075104  -0.000499  4.006361  -0.001  -0.079224  -0.000479  4.030837  -0.001  -0.090998  -0.072202  -0.000607  3.989292  -0.001
C  C36  1  0.34440080  0.36642587  0.50482070  1  -0.063201  -0.001582  3.7565  -0.002  -0.074984  -0.0005  4.006377  -0.001  -0.079104  -0.000478  4.030858  -0.001  -0.091004  -0.072089  -0.000607  3.989324  -0.001
C  C37  1  0.57455966  0.56085198  0.64927744  1  -0.042076  0.00349  3.738442  0.002  -0.060949  0.001296  3.993464  0.001  -0.060008  0.001361  4.013053  0.001  -0.086209  -0.06102  0.001363  3.979705  0.001
C  C38  1  0.42544291  0.43915371  0.35072007  1  -0.042425  0.003415  3.738436  0.002  -0.061333  0.001298  3.993501  0.001  -0.060392  0.001358  4.013089  0.001  -0.086357  -0.061391  0.001363  3.979742  0.001
C  C39  1  0.60473338  0.40887618  0.74038022  1  -0.080737  -0.001358  3.782725  -0.001  -0.096074  -0.00025  4.043775  0.0  -0.10044  -0.000332  4.065993  0.0  -0.098547  -0.092838  -0.000185  4.028283  0.0
C  C40  1  0.39526798  0.59112949  0.25961752  1  -0.08058  -0.001314  3.782565  -0.001  -0.095896  -0.00025  4.043604  0.0  -0.100256  -0.000331  4.065814  0.0  -0.098415  -0.09266  -0.000185  4.028109  0.0
C  C41  1  0.71354753  0.33026011  0.67690229  1  -0.074348  0.003335  3.729971  0.002  -0.097127  0.000962  3.973325  0.001  -0.095739  0.001182  3.9939  0.001  -0.089492  -0.098417  0.000892  3.959536  0.001
C  C42  1  0.28645374  0.66974440  0.32309695  1  -0.074375  0.00327  3.729978  0.002  -0.097106  0.000961  3.973318  0.001  -0.095721  0.001179  3.993898  0.001  -0.089464  -0.098398  0.000891  3.959525  0.001
C  C43  1  0.67190366  0.07815216  0.35050963  1  0.12138  0.000405  3.747515  0.0  0.09905  0.000288  4.004548  0.0  0.105882  0.000267  4.021269  0.0  0.040831  0.094845  0.000308  3.992191  0.0
C  C44  1  0.32809296  0.92185456  0.64948649  1  0.121382  0.000413  3.747519  0.0  0.09906  0.000288  4.004565  0.0  0.105897  0.000266  4.021281  0.0  0.040754  0.094851  0.000308  3.992212  0.0
C  C45  1  0.56084308  0.07654559  0.26440300  1  -0.174609  -0.000252  3.685689  0.0  -0.191613  -9.1e-05  3.928023  0.0  -0.19847  -7.5e-05  3.94604  0.0  -0.085003  -0.184788  -0.000141  3.913606  0.0
C  C46  1  0.43915438  0.92345644  0.73559178  1  -0.174663  -0.000255  3.685729  0.0  -0.191666  -9.1e-05  3.928075  0.0  -0.198519  -7.4e-05  3.94609  0.0  -0.085037  -0.184843  -0.000141  3.913653  0.0
C  C47  1  0.60523166  0.02611285  0.14606655  1  0.135798  0.000352  3.801635  0.0  0.153063  0.000259  4.025812  0.0  0.158178  0.000213  4.048551  0.0  0.00643  0.150183  0.00034  4.010011  0.0
C  C48  1  0.39476692  0.97388804  0.85393053  1  0.135659  0.000349  3.801689  0.0  0.152951  0.000258  4.025833  0.0  0.158063  0.000213  4.04858  0.0  0.006432  0.150074  0.00034  4.010025  0.0
C  C49  1  0.76271080  0.97997645  0.12157525  1  -0.168352  -0.000248  3.692594  0.0  -0.181566  -8.3e-05  3.927387  0.0  -0.18896  -8.2e-05  3.947705  0.0  -0.085643  -0.178825  -0.000107  3.915292  0.0
C  C50  1  0.23728509  0.02002090  0.87842475  1  -0.168297  -0.000261  3.692561  0.0  -0.181488  -8.3e-05  3.927363  0.0  -0.188902  -8.2e-05  3.94767  0.0  -0.085701  -0.178748  -0.000107  3.915267  0.0
C  C51  1  0.86425132  0.98454672  0.21450949  1  0.124139  0.00039  3.74162  0.0  0.099856  0.000307  4.001113  0.0  0.106756  0.000287  4.016986  0.0  0.039897  0.096186  0.000317  3.990327  0.0
C  C52  1  0.13574271  0.01545760  0.78548703  1  0.124111  0.000422  3.741634  0.0  0.099808  0.000308  4.001121  0.0  0.106709  0.000287  4.016999  0.0  0.039954  0.096146  0.000317  3.990329  0.0
C  C53  1  0.48734565  0.02243637  0.05840339  1  -0.09531  6.6e-05  3.708441  0.0  -0.113874  0.000106  3.956938  0.0  -0.116103  7.3e-05  3.975513  0.0  -0.076284  -0.112  0.000181  3.943061  0.0
C  C54  1  0.51265172  0.97756450  0.94159391  1  -0.095127  0.000141  3.70848  0.0  -0.113718  9.9e-05  3.956978  0.0  -0.115947  7.2e-05  3.975553  0.0  -0.076217  -0.111851  0.000182  3.943085  0.0
N  N55  1  0.82090678  0.03212627  0.32797600  1  -0.331288  0.000461  3.21151  -0.001  -0.293447  0.000529  3.494807  -0.001  -0.309291  0.001037  3.510765  -0.001  -0.326751  -0.283896  -7.8e-05  3.484383  -0.002
N  N56  1  0.17909133  0.96788400  0.67201945  1  -0.331173  0.000458  3.211443  -0.001  -0.293332  0.000528  3.494741  -0.001  -0.309179  0.001037  3.510699  -0.001  -0.326688  -0.283782  -7.8e-05  3.484317  -0.002
O  O57  1  0.15052891  0.15812405  0.30736338  1  -0.482324  -0.061038  2.123732  -0.085  -0.46697  -0.041023  2.402474  -0.063  -0.50316  -0.029423  2.398684  -0.049  -0.300758  -0.441926  -0.049438  2.404841  -0.071
O  O58  1  0.84946763  0.84186635  0.69264541  1  -0.482443  -0.061037  2.123445  -0.085  -0.467189  -0.041021  2.402144  -0.063  -0.503384  -0.029422  2.398326  -0.049  -0.300825  -0.442115  -0.049439  2.404544  -0.071
O  O59  1  0.90209198  0.16333830  0.55205688  1  -0.506453  -0.082707  2.125318  -0.114  -0.480715  -0.051067  2.406242  -0.077  -0.520889  -0.036547  2.400051  -0.06  -0.296025  -0.452531  -0.062107  2.410279  -0.089
O  O60  1  0.09790520  0.83666029  0.44794648  1  -0.506384  -0.082707  2.125247  -0.114  -0.480623  -0.051066  2.406202  -0.077  -0.520795  -0.036546  2.400012  -0.06  -0.295996  -0.452442  -0.062108  2.410234  -0.089
F  F61  1  0.15620524  0.31979726  0.98988995  1  -0.266566  -0.000204  1.137785  0.0  -0.220815  -0.000342  1.295256  0.0  -0.234858  -0.000186  1.285554  0.0  -0.104195  -0.214054  -0.00056  1.306226  -0.001
F  F62  1  0.84380180  0.68018865  0.01011674  1  -0.266598  -0.000198  1.137717  0.0  -0.220826  -0.000342  1.295196  0.0  -0.234892  -0.000186  1.285505  0.0  -0.104164  -0.214061  -0.00056  1.306158  -0.001
F  F63  1  0.36708617  0.37488737  0.06342059  1  -0.251186  0.000123  1.201325  0.0  -0.20373  0.000175  1.367077  0.0  -0.213265  0.000238  1.352086  0.0  -0.088166  -0.196641  0.000139  1.377554  0.0
F  F64  1  0.63291353  0.62509725  0.93658996  1  -0.25133  0.000121  1.201227  0.0  -0.203834  0.000174  1.366955  0.0  -0.213368  0.000237  1.351956  0.0  -0.088183  -0.196736  0.000139  1.377424  0.0
F  F65  1  0.18359300  0.54130110  0.01258684  1  -0.24457  -0.000883  1.167556  -0.001  -0.202892  -0.000754  1.327047  -0.001  -0.212053  -0.000473  1.313173  -0.001  -0.095959  -0.195749  -0.001026  1.336489  -0.001
F  F66  1  0.81641163  0.45868474  0.98741826  1  -0.244492  -0.000882  1.167126  -0.001  -0.20295  -0.000753  1.326731  -0.001  -0.212113  -0.000474  1.312852  -0.001  -0.095975  -0.195804  -0.001026  1.336173  -0.001
