# generated using pymatgen
data_AlH7C16Cl2O5
_symmetry_space_group_name_H-M   'P 1'
_cell_length_a   6.62698153
_cell_length_b   23.94313309
_cell_length_c   25.14142331
_cell_angle_alpha   89.99508644
_cell_angle_beta   90.41159835
_cell_angle_gamma   89.70089471
_symmetry_Int_Tables_number   1
_chemical_formula_structural   AlH7C16Cl2O5
_chemical_formula_sum   'Al4 H28 C64 Cl8 O20'
_cell_volume   3989.04993608
_cell_formula_units_Z   4
loop_
 _symmetry_equiv_pos_site_id
 _symmetry_equiv_pos_as_xyz
  1  'x, y, z'
loop_
 _atom_site_type_symbol
 _atom_site_label
 _atom_site_symmetry_multiplicity
 _atom_site_fract_x
 _atom_site_fract_y
 _atom_site_fract_z
 _atom_site_occupancy
 _atom_site_pbe_bader_charge
 _atom_site_pbe_bader_spin_density
 _atom_site_pbe_cm5_charge
 _atom_site_pbe_ddec_charge
 _atom_site_pbe_ddec_spin_density
 _atom_site_pbe_ddec_sum_bond_order
 _atom_site_pbe_magmom
Al  Al0  1  0.86676928  0.99785759  0.49842785  1  2.502278  0  0.398958  1.641033  0  2.580139  0
Al  Al1  1  0.36639837  0.00399827  0.49886450  1  2.501492  0  0.399568  1.63971  0  2.577734  0
Al  Al2  1  0.14358668  0.49698572  0.00319128  1  2.499038  0  0.399814  1.64275  0  2.575076  0
Al  Al3  1  0.64247431  0.50450304  0.00144902  1  2.499315  0  0.400006  1.641506  0  2.57531  0
H  H4  1  0.10163740  0.06851815  0.52368106  1  0.611824  0  0.34886  0.423623  0  0.870189  0
H  H5  1  0.60425901  0.93192770  0.52078659  1  0.625912  0  0.350735  0.427278  0  0.862959  0
H  H6  1  0.40829440  0.43353479  0.97623777  1  0.622354  0  0.347783  0.422516  0  0.871484  0
H  H7  1  0.91117787  0.57104816  0.98319907  1  0.645551  0  0.350311  0.42756  0  0.862713  0
H  H8  1  0.54055750  0.37839647  0.09188716  1  0.116759  0  0.113991  0.123727  0  0.989782  0
H  H9  1  0.48476225  0.30277613  0.15885974  1  0.10348  0  0.100182  0.10692  0  1.022564  0
H  H10  1  0.15916440  0.39223431  0.14374364  1  0.099459  0  0.114807  0.134468  0  0.984702  0
H  H11  1  0.33601469  0.09941913  0.35555322  1  0.115341  0  0.115623  0.135299  0  0.982277  0
H  H12  1  0.95161091  0.12755356  0.40443550  1  0.094988  0  0.113686  0.122887  0  0.98757  0
H  H13  1  0.98423362  0.20107547  0.33430764  1  0.099667  0  0.101355  0.107977  0  1.015268  0
H  H14  1  0.04476070  0.62169144  0.90637349  1  0.082012  0  0.109472  0.1128  0  1.005876  0
H  H15  1  0.98016701  0.69303567  0.83610545  1  0.130851  0  0.099812  0.106072  0  1.025475  0
H  H16  1  0.65978850  0.60515429  0.85472153  1  0.100399  0  0.112204  0.130859  0  0.992125  0
H  H17  1  0.83527084  0.90444825  0.64503333  1  0.106153  0  0.112934  0.132016  0  0.989743  0
H  H18  1  0.43554977  0.86613045  0.59145806  1  0.097828  0  0.109698  0.113953  0  0.997674  0
H  H19  1  0.46917429  0.79351906  0.66216811  1  0.108435  0  0.104044  0.110248  0  1.005859  0
H  H20  1  0.65405732  0.64648775  0.10336543  1  0.110591  0  0.111696  0.119772  0  0.986481  0
H  H21  1  0.60310377  0.72019041  0.17252965  1  0.087858  0  0.107548  0.114537  0  0.989727  0
H  H22  1  0.07587912  0.57668369  0.14149789  1  0.108027  0  0.117516  0.139252  0  0.984352  0
H  H23  1  0.43924169  0.92572372  0.36052311  1  0.12767  0  0.11778  0.140241  0  0.984261  0
H  H24  1  0.86137892  0.85436194  0.39646581  1  0.116797  0  0.111579  0.120283  0  0.986931  0
H  H25  1  0.91911582  0.78069411  0.32757801  1  0.111424  0  0.107534  0.11417  0  0.99069  0
H  H26  1  0.57125333  0.36805838  0.91224766  1  0.093794  0  0.109717  0.112757  0  1.001551  0
H  H27  1  0.52363866  0.29574165  0.84208778  1  0.095214  0  0.104432  0.110677  0  1.004651  0
H  H28  1  0.17023678  0.40006688  0.85495523  1  0.128994  0  0.11262  0.130564  0  0.989314  0
H  H29  1  0.34292466  0.10116317  0.64672622  1  0.10276  0  0.112443  0.130329  0  0.990838  0
H  H30  1  0.94318039  0.13208823  0.58982558  1  0.107984  0  0.109358  0.112057  0  1.002597  0
H  H31  1  0.99434225  0.20293337  0.66115886  1  0.104246  0  0.104127  0.11104  0  1.007144  0
C  C32  1  0.61616039  0.07016525  0.57030860  1  1.572593  0  0.266218  0.638671  0  4.099198  0
C  C33  1  0.62784241  0.06729563  0.42754244  1  1.568538  0  0.270567  0.639345  0  4.09928  0
C  C34  1  0.12986468  0.93539633  0.42685715  1  1.583309  0  0.270259  0.638713  0  4.094788  0
C  C35  1  0.11587944  0.93175215  0.57019031  1  1.550646  0  0.265973  0.639642  0  4.096526  0
C  C36  1  0.89461558  0.43151106  0.93071802  1  1.571323  0  0.266744  0.641585  0  4.095015  0
C  C37  1  0.87737528  0.43345881  0.07249354  1  1.564178  0  0.269687  0.638909  0  4.094143  0
C  C38  1  0.38130031  0.56614445  0.07396803  1  1.578316  0  0.270998  0.639054  0  4.092189  0
C  C39  1  0.38859390  0.56917968  0.93016893  1  1.589333  0  0.265415  0.638377  0  4.09747  0
C  C40  1  0.85295522  0.38918203  0.11350953  1  -0.019139  0  -0.010321  -0.022119  0  3.980636  0
C  C41  1  0.66224347  0.36440483  0.11813264  1  -0.073139  0  -0.082296  -0.09924  0  3.981743  0
C  C42  1  0.63101969  0.32287628  0.15539920  1  0.044793  0  -0.079595  -0.106152  0  3.952592  0
C  C43  1  0.78653237  0.30651225  0.19093659  1  0.126465  0  -0.000578  0.0843  0  4.088669  0
C  C44  1  0.97679998  0.33287472  0.18636488  1  0.034684  0  0.021137  0.107321  0  4.001252  0
C  C45  1  0.01146763  0.37282330  0.14723589  1  0.040939  0  -0.084359  -0.162322  0  3.957986  0
C  C46  1  0.74940730  0.26553399  0.22988097  1  -0.024775  0  -0.042357  -0.086751  0  4.12024  0
C  C47  1  0.71095721  0.23003885  0.26311512  1  -0.301408  0  -0.041942  -0.085077  0  4.117765  0
C  C48  1  0.68346602  0.18981863  0.30336403  1  0.122879  0  -0.001532  0.082008  0  4.087387  0
C  C49  1  0.50113782  0.15987233  0.30954308  1  0.010666  0  0.021084  0.107655  0  4.003707  0
C  C50  1  0.47826194  0.12139049  0.35060862  1  0.025591  0  -0.084531  -0.162916  0  3.954874  0
C  C51  1  0.64174576  0.10979175  0.38449474  1  0.020964  0  -0.009444  -0.019909  0  3.978888  0
C  C52  1  0.82551835  0.13782311  0.37808940  1  -0.042884  0  -0.082532  -0.100694  0  3.985713  0
C  C53  1  0.84404321  0.17818535  0.33905721  1  0.014133  0  -0.078891  -0.104504  0  3.952071  0
C  C54  1  0.35663610  0.60988100  0.88578796  1  -0.075089  0  -0.011718  -0.024523  0  3.964746  0
C  C55  1  0.16459316  0.63422349  0.87964589  1  -0.005657  0  -0.083585  -0.0944  0  3.992228  0
C  C56  1  0.12830120  0.67370685  0.84058790  1  -0.04647  0  -0.080075  -0.105219  0  3.952778  0
C  C57  1  0.28179677  0.68949019  0.80506464  1  0.150046  0  0.00124  0.086196  0  4.089463  0
C  C58  1  0.47302598  0.66313354  0.81041548  1  0.031564  0  0.022124  0.107102  0  3.997506  0
C  C59  1  0.51117634  0.62443490  0.85071824  1  0.073864  0  -0.08458  -0.158879  0  3.952701  0
C  C60  1  0.24208808  0.73055177  0.76617061  1  0.11065  0  -0.039878  -0.083147  0  4.117101  0
C  C61  1  0.20108526  0.76702205  0.73385590  1  -0.439346  0  -0.040797  -0.084872  0  4.114746  0
C  C62  1  0.17376763  0.80825691  0.69438837  1  0.151278  0  0.000845  0.084542  0  4.085461  0
C  C63  1  0.99515045  0.84068513  0.68921326  1  0.059536  0  0.021157  0.10792  0  4.001652  0
C  C64  1  0.97401329  0.88016530  0.64883894  1  -0.005573  0  -0.085261  -0.160565  0  3.956761  0
C  C65  1  0.13324254  0.88939307  0.61357309  1  0.028547  0  -0.012118  -0.023704  0  3.970038  0
C  C66  1  0.31259318  0.85841404  0.61889663  1  -0.063003  0  -0.083072  -0.096311  0  3.994222  0
C  C67  1  0.33151071  0.81817815  0.65811812  1  -0.023506  0  -0.078145  -0.103344  0  3.949088  0
C  C68  1  0.36636974  0.60782282  0.11776251  1  -0.042385  0  -0.011344  -0.028509  0  3.97741  0
C  C69  1  0.51705159  0.64762495  0.12705019  1  -0.022822  0  -0.081353  -0.095926  0  3.990285  0
C  C70  1  0.48886211  0.68842697  0.16558946  1  -0.011031  0  -0.078987  -0.111032  0  3.946769  0
C  C71  1  0.31207540  0.68998288  0.19676416  1  0.164249  0  -0.000202  0.084999  0  4.086875  0
C  C72  1  0.16615795  0.64770069  0.18833713  1  -0.004151  0  0.020804  0.108049  0  4.009085  0
C  C73  1  0.19147417  0.60789788  0.14885297  1  0.084023  0  -0.082936  -0.156395  0  3.957799  0
C  C74  1  0.27941329  0.73250631  0.23452096  1  0.166547  0  -0.042131  -0.088417  0  4.128061  0
C  C75  1  0.24505109  0.76957963  0.26657363  1  -0.492399  0  -0.042718  -0.089597  0  4.130724  0
C  C76  1  0.20972661  0.81196095  0.30428775  1  0.094547  0  -0.000114  0.084097  0  4.090006  0
C  C77  1  0.35378095  0.85459246  0.31325362  1  0.059218  0  0.020682  0.108749  0  4.010621  0
C  C78  1  0.32493688  0.89427915  0.35265691  1  0.01819  0  -0.083625  -0.15881  0  3.959033  0
C  C79  1  0.14820355  0.89386132  0.38303205  1  -0.020994  0  -0.010976  -0.02628  0  3.977352  0
C  C80  1  0.99951485  0.85364793  0.37323159  1  0.000458  0  -0.081621  -0.098958  0  3.996497  0
C  C81  1  0.03145991  0.81288842  0.33486640  1  -0.049791  0  -0.079159  -0.108988  0  3.948553  0
C  C82  1  0.87313172  0.38849638  0.88806798  1  -0.046559  0  -0.011137  -0.023462  0  3.970045  0
C  C83  1  0.69090634  0.35906635  0.88408458  1  -0.072654  0  -0.083544  -0.0957  0  3.996688  0
C  C84  1  0.66417909  0.31890667  0.84520371  1  0.021076  0  -0.077625  -0.103558  0  3.951497  0
C  C85  1  0.81726167  0.30745423  0.80788719  1  0.171532  0  0.000538  0.084063  0  4.087835  0
C  C86  1  0.00003421  0.33773806  0.81213757  1  0.067108  0  0.021405  0.107679  0  3.999399  0
C  C87  1  0.02867436  0.37728330  0.85212077  1  0.006166  0  -0.084838  -0.158956  0  3.955702  0
C  C88  1  0.78186763  0.26708677  0.76813668  1  -0.310262  0  -0.040406  -0.08375  0  4.114539  0
C  C89  1  0.73639424  0.23178645  0.73518263  1  -0.027677  0  -0.039727  -0.084003  0  4.114398  0
C  C90  1  0.69995571  0.19184484  0.69510303  1  0.100807  0  0.000614  0.085435  0  4.086216  0
C  C91  1  0.51587743  0.16223808  0.69044051  1  0.049715  0  0.021731  0.107381  0  3.998526  0
C  C92  1  0.48538683  0.12347421  0.64986060  1  0.055775  0  -0.085143  -0.158903  0  3.955323  0
C  C93  1  0.64004466  0.11240282  0.61360797  1  -0.015741  0  -0.011432  -0.023217  0  3.96694  0
C  C94  1  0.82384133  0.14106211  0.61808799  1  -0.018324  0  -0.083068  -0.094118  0  3.993676  0
C  C95  1  0.85262775  0.18037971  0.65766003  1  -0.035322  0  -0.07812  -0.105683  0  3.953365  0
Cl  Cl96  1  0.16771484  0.31534752  0.23048766  1  -0.199002  0  0.003597  -0.075424  0  1.55415  0
Cl  Cl97  1  0.30538014  0.17101398  0.26505452  1  -0.196704  0  0.002534  -0.074713  0  1.542721  0
Cl  Cl98  1  0.66126396  0.67985830  0.76610257  1  -0.194805  0  0.005133  -0.073441  0  1.541711  0
Cl  Cl99  1  0.80145385  0.83106412  0.73379877  1  -0.19896  0  0.000764  -0.07504  0  1.517201  0
Cl  Cl100  1  0.95211093  0.64598210  0.22705209  1  -0.204776  0  -0.002099  -0.076841  0  1.492801  0
Cl  Cl101  1  0.56953683  0.85691798  0.27524678  1  -0.200115  0  -0.001139  -0.075739  0  1.495659  0
Cl  Cl102  1  0.18985249  0.32544860  0.76687201  1  -0.197943  0  0.000796  -0.07563  0  1.521143  0
Cl  Cl103  1  0.32674150  0.17438092  0.73593461  1  -0.197099  0  0.000915  -0.075551  0  1.522993  0
O  O104  1  0.77837454  0.05638291  0.54665689  1  -1.265975  0  -0.237546  -0.605989  0  2.383351  0
O  O105  1  0.45872003  0.05993070  0.45027148  1  -1.256678  0  -0.234232  -0.58447  0  2.317842  0
O  O106  1  0.29017836  0.96188417  0.43842094  1  -1.257878  0  -0.231033  -0.579682  0  2.369319  0
O  O107  1  0.94083133  0.95103482  0.55882546  1  -1.251446  0  -0.240722  -0.596729  0  2.315604  0
O  O108  1  0.96123910  0.94106350  0.45054180  1  -1.260776  0  -0.234189  -0.586363  0  2.311031  0
O  O109  1  0.27974743  0.94491813  0.54714888  1  -1.255624  0  -0.237741  -0.605761  0  2.360777  0
O  O110  1  0.44049732  0.05142379  0.55948114  1  -1.254376  0  -0.241536  -0.594937  0  2.298164  0
O  O111  1  0.79182684  0.04201927  0.43902512  1  -1.253588  0  -0.23136  -0.58132  0  2.354188  0
O  O112  1  0.11258527  0.03577752  0.50121492  1  -1.41652  0  -0.448803  -0.987763  0  2.204135  0
O  O113  1  0.61300971  0.96622214  0.50049811  1  -1.430668  0  -0.448068  -0.988352  0  2.200083  0
O  O114  1  0.07006675  0.44983825  0.94230767  1  -1.25261  0  -0.240619  -0.594575  0  2.29992  0
O  O115  1  0.71728857  0.46050501  0.06102854  1  -1.261024  0  -0.231179  -0.581063  0  2.364198  0
O  O116  1  0.54715165  0.56135326  0.04881601  1  -1.259152  0  -0.23415  -0.586975  0  2.316502  0
O  O117  1  0.23000690  0.55600644  0.95557276  1  -1.268357  0  -0.238534  -0.611303  0  2.392039  0
O  O118  1  0.22169450  0.53863643  0.06388049  1  -1.264464  0  -0.231408  -0.580191  0  2.358892  0
O  O119  1  0.56660263  0.55124697  0.94039158  1  -1.258127  0  -0.241481  -0.593045  0  2.290442  0
O  O120  1  0.73093033  0.44621499  0.95316442  1  -1.264104  0  -0.237693  -0.60672  0  2.381661  0
O  O121  1  0.04952953  0.44053485  0.05113392  1  -1.255636  0  -0.235182  -0.585794  0  2.30342  0
O  O122  1  0.39802759  0.46559491  0.99960740  1  -1.426111  0  -0.449015  -0.988238  0  2.202983  0
O  O123  1  0.89731238  0.53537328  0.00091067  1  -1.450124  0  -0.447613  -0.990116  0  2.200025  0
