# generated using pymatgen
data_Zn2H20C32N3O10
_symmetry_space_group_name_H-M   'P 1'
_cell_length_a   10.97681950
_cell_length_b   15.13556296
_cell_length_c   16.66265076
_cell_angle_alpha   90.00004630
_cell_angle_beta   95.78873977
_cell_angle_gamma   90.00014837
_symmetry_Int_Tables_number   1
_chemical_formula_structural   Zn2H20C32N3O10
_chemical_formula_sum   'Zn8 H80 C128 N12 O40'
_cell_volume   2754.22150254
_cell_formula_units_Z   4
loop_
 _symmetry_equiv_pos_site_id
 _symmetry_equiv_pos_as_xyz
  1  'x, y, z'
loop_
 _atom_site_type_symbol
 _atom_site_label
 _atom_site_symmetry_multiplicity
 _atom_site_fract_x
 _atom_site_fract_y
 _atom_site_fract_z
 _atom_site_occupancy
 _atom_site_pbe_bader_charge
 _atom_site_pbe_bader_spin_density
 _atom_site_pbe_cm5_charge
 _atom_site_pbe_ddec_charge
 _atom_site_pbe_ddec_spin_density
 _atom_site_pbe_ddec_sum_bond_order
 _atom_site_pbe_magmom
Zn  Zn0  1  0.22206006  0.11891130  0.96500688  1  1.291967  0  0.699702  0.86715  0  2.259553  0
Zn  Zn1  1  0.27794043  0.61891504  0.53498992  1  1.292012  0  0.699678  0.867157  0  2.25954  0
Zn  Zn2  1  0.77793832  0.88108459  0.03499416  1  1.292038  0  0.699722  0.86723  0  2.259495  0
Zn  Zn3  1  0.72205884  0.38108482  0.46500637  1  1.291977  0  0.699681  0.867134  0  2.25949  0
Zn  Zn4  1  0.61934014  0.13542672  0.13692958  1  1.323176  0  0.688855  0.898406  0  2.277244  0
Zn  Zn5  1  0.88065885  0.63542301  0.36306968  1  1.323291  0  0.688859  0.898469  0  2.277155  0
Zn  Zn6  1  0.38065275  0.86457644  0.86307291  1  1.323166  0  0.688907  0.898517  0  2.277054  0
Zn  Zn7  1  0.11933768  0.36457289  0.63692644  1  1.323206  0  0.688913  0.898534  0  2.276994  0
H  H8  1  0.53268036  0.47078011  0.67788026  1  0.165671  0  0.114853  0.126924  0  0.997724  0
H  H9  1  0.96731072  0.97078181  0.82212507  1  0.165564  0  0.114867  0.12691  0  0.997679  0
H  H10  1  0.46731254  0.52922239  0.32212223  1  0.165572  0  0.114882  0.126979  0  0.997673  0
H  H11  1  0.03269042  0.02921673  0.17787855  1  0.165662  0  0.114833  0.126912  0  0.997733  0
H  H12  1  0.63049047  0.42533437  0.93152822  1  0.081995  0  0.103366  0.102226  0  1.032419  0
H  H13  1  0.86950593  0.92532245  0.56847621  1  0.081914  0  0.103358  0.10227  0  1.032313  0
H  H14  1  0.36950517  0.57467408  0.06847444  1  0.082061  0  0.103371  0.102288  0  1.032334  0
H  H15  1  0.13049887  0.07467015  0.43152645  1  0.082044  0  0.103355  0.102251  0  1.03231  0
H  H16  1  0.54017515  0.57057766  0.96219623  1  0.04713  0  0.104072  0.106998  0  1.005762  0
H  H17  1  0.95982539  0.07056475  0.53780339  1  0.0472  0  0.104071  0.106987  0  1.005791  0
H  H18  1  0.45982231  0.42943079  0.03780355  1  0.047186  0  0.104118  0.107043  0  1.005755  0
H  H19  1  0.04017390  0.92943049  0.46219651  1  0.047153  0  0.104089  0.107027  0  1.005724  0
H  H20  1  0.48646079  0.28664561  0.86918530  1  0.12789  0  0.109257  0.118333  0  1.003997  0
H  H21  1  0.01354038  0.78664298  0.63082187  1  0.127909  0  0.109227  0.118222  0  1.004189  0
H  H22  1  0.51353489  0.71335359  0.13082397  1  0.127937  0  0.109226  0.118234  0  1.004099  0
H  H23  1  0.98645984  0.21335291  0.36918048  1  0.127839  0  0.109282  0.118359  0  1.00401  0
H  H24  1  0.85399553  0.25445948  0.80494346  1  0.111257  0  0.108747  0.115251  0  0.997611  0
H  H25  1  0.64600203  0.75445716  0.69505551  1  0.111253  0  0.108743  0.115269  0  0.997638  0
H  H26  1  0.14599734  0.74553840  0.19505483  1  0.111119  0  0.108774  0.115312  0  0.997676  0
H  H27  1  0.35399909  0.24553808  0.30494330  1  0.111206  0  0.108733  0.115237  0  0.997551  0
H  H28  1  0.88324599  0.12678144  0.89992644  1  0.127618  0  0.102288  0.112213  0  1.042322  0
H  H29  1  0.61675200  0.62678493  0.60007066  1  0.127647  0  0.102301  0.112206  0  1.042385  0
H  H30  1  0.11674964  0.87321643  0.10007322  1  0.12758  0  0.102278  0.112249  0  1.04237  0
H  H31  1  0.38324728  0.37321493  0.39992864  1  0.127631  0  0.102289  0.112198  0  1.042416  0
H  H32  1  0.37059652  0.07002094  0.17163537  1  0.17425  0  0.12432  0.113092  0  1.008454  0
H  H33  1  0.12941024  0.57001276  0.32836329  1  0.173941  0  0.124348  0.113111  0  1.008546  0
H  H34  1  0.62940370  0.92998486  0.82836639  1  0.173894  0  0.124326  0.113058  0  1.00861  0
H  H35  1  0.87059178  0.42998644  0.67163499  1  0.173949  0  0.124325  0.113097  0  1.008547  0
H  H36  1  0.28851677  0.95552414  0.25544873  1  0.063516  0  0.105482  0.111194  0  1.035311  0
H  H37  1  0.21148593  0.45551623  0.24454936  1  0.063428  0  0.105449  0.111176  0  1.035315  0
H  H38  1  0.71148253  0.04448034  0.74455357  1  0.063516  0  0.105459  0.111202  0  1.035299  0
H  H39  1  0.78851702  0.54448297  0.75545017  1  0.06348  0  0.105456  0.11117  0  1.035327  0
H  H40  1  0.72459112  0.97529255  0.21937018  1  0.115546  0  0.119724  0.088094  0  1.010454  0
H  H41  1  0.77541370  0.47529074  0.28062612  1  0.115612  0  0.119731  0.088168  0  1.010416  0
H  H42  1  0.27540909  0.02470929  0.78062918  1  0.115553  0  0.119729  0.088112  0  1.010537  0
H  H43  1  0.22458832  0.52470780  0.71937096  1  0.115593  0  0.119718  0.08812  0  1.010435  0
H  H44  1  0.65960998  0.85617836  0.30627552  1  0.12077  0  0.111895  0.125994  0  1.033094  0
H  H45  1  0.84039166  0.35617527  0.19372348  1  0.120768  0  0.111911  0.126026  0  1.033187  0
H  H46  1  0.34039023  0.14382283  0.69372504  1  0.120711  0  0.111908  0.126033  0  1.033094  0
H  H47  1  0.15961312  0.64382393  0.80627617  1  0.120646  0  0.111925  0.126086  0  1.033114  0
H  H48  1  0.59495184  0.75419533  0.36838789  1  0.130935  0  0.115094  0.135553  0  1.011278  0
H  H49  1  0.90504939  0.25418901  0.13160621  1  0.131086  0  0.115091  0.135581  0  1.011218  0
H  H50  1  0.40504651  0.24580849  0.63160835  1  0.131009  0  0.115102  0.13556  0  1.011272  0
H  H51  1  0.09495448  0.74580755  0.86839399  1  0.131062  0  0.11508  0.13557  0  1.011219  0
H  H52  1  0.51399102  0.65160975  0.46447194  1  0.082477  0  0.123885  0.097334  0  0.98574  0
H  H53  1  0.98601532  0.15160350  0.03552120  1  0.082665  0  0.123879  0.097247  0  0.985792  0
H  H54  1  0.48601099  0.34839341  0.53552333  1  0.082426  0  0.123885  0.097285  0  0.985793  0
H  H55  1  0.01399037  0.84839570  0.96447731  1  0.082669  0  0.123868  0.097266  0  0.985769  0
H  H56  1  0.24037600  0.88394041  0.34769783  1  0.073469  0  0.103952  0.106312  0  1.050653  0
H  H57  1  0.25962735  0.38393515  0.15230025  1  0.073437  0  0.10394  0.106383  0  1.050599  0
H  H58  1  0.75962237  0.11606209  0.65229961  1  0.073463  0  0.103941  0.10627  0  1.050652  0
H  H59  1  0.74037560  0.61606537  0.84770049  1  0.073429  0  0.103956  0.106323  0  1.050629  0
H  H60  1  0.17439993  0.77401385  0.44327984  1  0.118033  0  0.119087  0.090159  0  1.002992  0
H  H61  1  0.32560485  0.27401062  0.05671825  1  0.117915  0  0.119052  0.090081  0  1.003015  0
H  H62  1  0.82559935  0.22598468  0.55671646  1  0.118009  0  0.119044  0.090132  0  1.002991  0
H  H63  1  0.67439994  0.72598858  0.94328260  1  0.117969  0  0.11906  0.090122  0  1.003013  0
H  H64  1  0.73419017  0.23215800  0.24749774  1  0.642008  0  0.295639  0.39361  0  0.944127  0
H  H65  1  0.76581192  0.73215463  0.25250060  1  0.642019  0  0.295688  0.393621  0  0.944114  0
H  H66  1  0.26581003  0.76784384  0.75250162  1  0.642016  0  0.295664  0.393632  0  0.944089  0
H  H67  1  0.23418735  0.26784324  0.74749629  1  0.642002  0  0.295645  0.393637  0  0.9441  0
H  H68  1  0.75710929  0.13876409  0.28327223  1  0.650807  0  0.27846  0.3333  0  1.030289  0
H  H69  1  0.74289245  0.63876131  0.21672542  1  0.650726  0  0.278463  0.333314  0  1.03027  0
H  H70  1  0.24289274  0.86123643  0.71672605  1  0.650743  0  0.278448  0.33328  0  1.030309  0
H  H71  1  0.25710591  0.36123591  0.78327082  1  0.650819  0  0.278441  0.333295  0  1.030278  0
H  H72  1  0.07883946  0.30354119  0.85017427  1  0.102254  0  0.11505  0.088564  0  1.018975  0
H  H73  1  0.42116081  0.80354330  0.64982505  1  0.10232  0  0.115026  0.088517  0  1.018989  0
H  H74  1  0.92115525  0.69645801  0.14982533  1  0.102254  0  0.115041  0.088566  0  1.019029  0
H  H75  1  0.57884761  0.19645589  0.35017003  1  0.10231  0  0.115054  0.088646  0  1.01906  0
H  H76  1  0.92959921  0.36531244  0.93658484  1  0.082486  0  0.102932  0.104449  0  1.036557  0
H  H77  1  0.57040335  0.86531448  0.56341634  1  0.082452  0  0.102941  0.104469  0  1.03658  0
H  H78  1  0.07040561  0.63468676  0.06342201  1  0.082354  0  0.102976  0.104498  0  1.036562  0
H  H79  1  0.42960415  0.13468604  0.43657749  1  0.082515  0  0.102959  0.104526  0  1.036583  0
H  H80  1  0.18514560  0.58069391  0.99201846  1  0.092026  0  0.108073  0.118032  0  1.016734  0
H  H81  1  0.31485931  0.08069458  0.50797620  1  0.091749  0  0.108064  0.118005  0  1.016802  0
H  H82  1  0.81486558  0.41930397  0.00797860  1  0.092021  0  0.108053  0.118033  0  1.016805  0
H  H83  1  0.68514819  0.91930660  0.49201823  1  0.092019  0  0.108074  0.118003  0  1.016766  0
H  H84  1  0.32188039  0.50855991  0.90563285  1  0.111428  0  0.105751  0.072136  0  1.056394  0
H  H85  1  0.17812057  0.00855974  0.59435790  1  0.111502  0  0.105746  0.072175  0  1.056334  0
H  H86  1  0.67812161  0.49143598  0.09435882  1  0.111387  0  0.10574  0.072142  0  1.056381  0
H  H87  1  0.82188509  0.99143946  0.40563581  1  0.111387  0  0.10574  0.072123  0  1.056394  0
C  C88  1  0.40320571  0.62008399  0.69001851  1  1.560202  0  0.207893  0.565954  0  4.226943  0
C  C89  1  0.09679022  0.12008187  0.80998100  1  1.55998  0  0.207898  0.565864  0  4.226996  0
C  C90  1  0.59678626  0.37991851  0.30998212  1  1.560061  0  0.207806  0.565728  0  4.226985  0
C  C91  1  0.90320907  0.87991601  0.19001950  1  1.559489  0  0.207923  0.565886  0  4.226784  0
C  C92  1  0.47697271  0.57171258  0.75725162  1  -0.060463  0  -0.013484  -0.067086  0  3.933675  0
C  C93  1  0.02302487  0.07170696  0.74274736  1  -0.060048  0  -0.013589  -0.067224  0  3.933735  0
C  C94  1  0.52302110  0.42829256  0.24274913  1  -0.059914  0  -0.013526  -0.067083  0  3.933579  0
C  C95  1  0.97697626  0.92828893  0.25725386  1  -0.060357  0  -0.013508  -0.067092  0  3.933645  0
C  C96  1  0.53396092  0.49237366  0.74029748  1  0.000969  0  -0.064688  -0.083  0  3.896775  0
C  C97  1  0.96603389  0.99237067  0.75970510  1  0.000907  0  -0.064619  -0.082857  0  3.896552  0
C  C98  1  0.46603382  0.50762951  0.25970573  1  0.000894  0  -0.064617  -0.082912  0  3.896549  0
C  C99  1  0.03396816  0.00762456  0.24029738  1  0.001099  0  -0.064626  -0.082959  0  3.896764  0
C  C100  1  0.58982719  0.43921351  0.80227659  1  -0.032513  0  -0.020436  -0.023089  0  4.003409  0
C  C101  1  0.91017018  0.93920838  0.69772851  1  -0.032299  0  -0.020491  -0.023113  0  4.003342  0
C  C102  1  0.41016754  0.56079032  0.19772601  1  -0.032294  0  -0.02052  -0.023211  0  4.003439  0
C  C103  1  0.08983462  0.06078619  0.30227474  1  -0.032359  0  -0.020466  -0.023129  0  4.003457  0
C  C104  1  0.58882909  0.46664628  0.88267496  1  -0.049837  0  -0.079805  -0.101325  0  3.979298  0
C  C105  1  0.91117477  0.96663778  0.61732818  1  -0.050011  0  -0.079758  -0.101451  0  3.979248  0
C  C106  1  0.41117112  0.53335952  0.11732560  1  -0.050126  0  -0.079766  -0.101444  0  3.97946  0
C  C107  1  0.08883277  0.03335679  0.38267465  1  -0.049957  0  -0.079795  -0.101422  0  3.979205  0
C  C108  1  0.53740025  0.54781798  0.89986729  1  -0.000979  0  -0.090361  -0.126083  0  4.000866  0
C  C109  1  0.96260022  0.04780910  0.60013472  1  -0.000754  0  -0.090329  -0.125944  0  4.000917  0
C  C110  1  0.46259630  0.45219113  0.10013423  1  -0.000892  0  -0.090385  -0.12598  0  4.000939  0
C  C111  1  0.03740091  0.95218812  0.39986830  1  -0.00095  0  -0.090343  -0.125971  0  4.000784  0
C  C112  1  0.48112999  0.60110961  0.83800567  1  -0.077707  0  0.005367  -0.00688  0  3.898006  0
C  C113  1  0.01887136  0.10110325  0.66199298  1  -0.077824  0  0.005419  -0.006877  0  3.897972  0
C  C114  1  0.51886747  0.39889751  0.16199411  1  -0.077919  0  0.005392  -0.006925  0  3.897761  0
C  C115  1  0.98112703  0.89889463  0.33800867  1  -0.077728  0  0.005352  -0.006954  0  3.898082  0
C  C116  1  0.42515167  0.68733497  0.86101534  1  1.594641  0  0.196514  0.563713  0  4.274017  0
C  C117  1  0.07484817  0.18732804  0.63898387  1  1.59503  0  0.196648  0.563768  0  4.273982  0
C  C118  1  0.57484580  0.31267017  0.13898504  1  1.594938  0  0.196451  0.563489  0  4.273934  0
C  C119  1  0.92514471  0.81267116  0.36101622  1  1.595115  0  0.196641  0.563879  0  4.273663  0
C  C120  1  0.65888283  0.35970545  0.78003653  1  0.931196  0  0.160139  0.346506  0  3.995122  0
C  C121  1  0.84111884  0.85969889  0.71997299  1  0.930043  0  0.160173  0.346456  0  3.995014  0
C  C122  1  0.34111192  0.64029705  0.21996908  1  0.930038  0  0.160145  0.346471  0  3.995311  0
C  C123  1  0.15888230  0.14029568  0.28003063  1  0.930271  0  0.16021  0.3465  0  3.995096  0
C  C124  1  0.47832422  0.14912516  0.96778137  1  1.590739  0  0.215305  0.587817  0  4.17594  0
C  C125  1  0.02167548  0.64912973  0.53221900  1  1.59073  0  0.215362  0.588004  0  4.17582  0
C  C126  1  0.52167418  0.85087404  0.03222327  1  1.590668  0  0.215318  0.587839  0  4.175998  0
C  C127  1  0.97832197  0.35087476  0.46777898  1  1.590832  0  0.215267  0.587825  0  4.176018  0
C  C128  1  0.58890318  0.18095954  0.92963579  1  0.002994  0  -0.008768  -0.051648  0  3.928855  0
C  C129  1  0.91109230  0.68095629  0.57036539  1  0.002795  0  -0.008888  -0.051855  0  3.929039  0
C  C130  1  0.41109066  0.81904296  0.07037096  1  0.004025  0  -0.008873  -0.051812  0  3.92927  0
C  C131  1  0.08890608  0.31904159  0.42963445  1  0.00277  0  -0.008813  -0.051693  0  3.928994  0
C  C132  1  0.57542885  0.25410049  0.87794996  1  -0.044164  0  -0.07226  -0.107285  0  3.92242  0
C  C133  1  0.92457607  0.75409532  0.62205429  1  -0.043886  0  -0.072161  -0.107083  0  3.92243  0
C  C134  1  0.42457048  0.74590135  0.12205654  1  -0.045303  0  -0.07218  -0.10718  0  3.922387  0
C  C135  1  0.07542507  0.24589925  0.37794753  1  -0.043939  0  -0.072248  -0.107293  0  3.922306  0
C  C136  1  0.67190599  0.28288971  0.83581220  1  -0.077576  0  -0.02143  -0.021625  0  4.014298  0
C  C137  1  0.82809262  0.78288374  0.66419106  1  -0.077148  0  -0.021428  -0.021564  0  4.014224  0
C  C138  1  0.32808692  0.71711213  0.16419269  1  -0.077343  0  -0.021427  -0.021482  0  4.014106  0
C  C139  1  0.17190760  0.21711149  0.33581069  1  -0.077406  0  -0.021461  -0.021607  0  4.014201  0
C  C140  1  0.78205579  0.23499335  0.84211960  1  -0.017487  0  -0.077161  -0.085873  0  3.953875  0
C  C141  1  0.71794171  0.73499245  0.65788115  1  -0.017482  0  -0.077177  -0.085993  0  3.954089  0
C  C142  1  0.21793619  0.76500519  0.15788283  1  -0.017482  0  -0.077253  -0.086041  0  3.954076  0
C  C143  1  0.28205483  0.26500410  0.34211917  1  -0.01747  0  -0.077176  -0.085879  0  3.954076  0
C  C144  1  0.79746121  0.16375190  0.89462322  1  -0.05677  0  -0.086531  -0.113086  0  3.969196  0
C  C145  1  0.70253236  0.66375027  0.60537663  1  -0.056925  0  -0.086543  -0.11303  0  3.96909  0
C  C146  1  0.20253169  0.83624796  0.10537987  1  -0.056905  0  -0.086482  -0.113146  0  3.969253  0
C  C147  1  0.29746510  0.33624563  0.39462315  1  -0.05683  0  -0.08649  -0.113112  0  3.969279  0
C  C148  1  0.70313005  0.13771250  0.94071994  1  -0.067979  0  0.003848  -0.025007  0  3.896201  0
C  C149  1  0.79686709  0.63771100  0.55928252  1  -0.067969  0  0.003886  -0.024935  0  3.89615  0
C  C150  1  0.29686559  0.86228670  0.05928333  1  -0.067617  0  0.003889  -0.024881  0  3.896205  0
C  C151  1  0.20313129  0.36228555  0.44071852  1  -0.067952  0  0.003831  -0.024929  0  3.896317  0
C  C152  1  0.73373623  0.06199750  0.99802269  1  1.61587  0  0.226667  0.602866  0  4.160588  0
C  C153  1  0.76626063  0.56199457  0.50197910  1  1.615895  0  0.22667  0.6029  0  4.160456  0
C  C154  1  0.26625759  0.93800236  0.00198166  1  1.615862  0  0.226711  0.602847  0  4.160414  0
C  C155  1  0.23373592  0.43800132  0.49802123  1  1.616048  0  0.226705  0.602849  0  4.160457  0
C  C156  1  0.43150402  0.02171029  0.20289197  1  0.451731  0  0.051981  0.104526  0  3.905662  0
C  C157  1  0.06850166  0.52170329  0.29710838  1  0.452591  0  0.051927  0.10446  0  3.90573  0
C  C158  1  0.56849712  0.97829485  0.79711105  1  0.452116  0  0.052013  0.104611  0  3.905723  0
C  C159  1  0.93150221  0.47829525  0.70289121  1  0.452571  0  0.051996  0.104506  0  3.905723  0
C  C160  1  0.38654825  0.95666327  0.25064756  1  0.023259  0  -0.080355  -0.163815  0  3.925731  0
C  C161  1  0.11345354  0.45665452  0.24935047  1  0.022573  0  -0.080348  -0.163821  0  3.925841  0
C  C162  1  0.61345105  0.04334254  0.74935474  1  0.02335  0  -0.080346  -0.163847  0  3.92587  0
C  C163  1  0.88654850  0.54334336  0.75065021  1  0.023014  0  -0.080354  -0.163844  0  3.925748  0
C  C164  1  0.62875207  0.96790324  0.22932518  1  0.512454  0  0.05138  0.109329  0  3.941337  0
C  C165  1  0.87124907  0.46789896  0.27067268  1  0.512657  0  0.051351  0.109163  0  3.941627  0
C  C166  1  0.37124632  0.03209926  0.77067586  1  0.512585  0  0.051364  0.109285  0  3.941528  0
C  C167  1  0.12875204  0.53209826  0.72932554  1  0.512614  0  0.051388  0.109285  0  3.941419  0
C  C168  1  0.59079973  0.90081223  0.27760337  1  -0.003202  0  -0.07459  -0.149281  0  3.89784  0
C  C169  1  0.90920023  0.40080798  0.22239136  1  -0.004598  0  -0.074556  -0.149209  0  3.897902  0
C  C170  1  0.40919772  0.09918961  0.72239461  1  -0.003454  0  -0.074601  -0.149254  0  3.89774  0
C  C171  1  0.09080363  0.59919188  0.77760583  1  -0.003202  0  -0.074632  -0.149368  0  3.897796  0
C  C172  1  0.46702201  0.89548956  0.29132332  1  -0.042707  0  0.013159  0.097233  0  3.957239  0
C  C173  1  0.03298321  0.39548525  0.20867249  1  -0.041141  0  0.013084  0.097226  0  3.957309  0
C  C174  1  0.53298003  0.10451162  0.70867556  1  -0.04251  0  0.013159  0.097232  0  3.957352  0
C  C175  1  0.96702248  0.60451395  0.79132542  1  -0.042777  0  0.013158  0.097369  0  3.957175  0
C  C176  1  0.42456917  0.83027492  0.34851756  1  0.037856  0  0.018769  0.109978  0  3.945057  0
C  C177  1  0.07543581  0.33026734  0.15148058  1  0.037861  0  0.018802  0.11001  0  3.945179  0
C  C178  1  0.57543104  0.16972890  0.65148300  1  0.03775  0  0.018844  0.109917  0  3.94503  0
C  C179  1  0.92456990  0.66972724  0.84852213  1  0.037449  0  0.018845  0.10992  0  3.945008  0
C  C180  1  0.50138384  0.76311398  0.38329173  1  -0.048444  0  -0.070945  -0.153671  0  3.878648  0
C  C181  1  0.99862201  0.26310848  0.11670328  1  -0.048662  0  -0.070974  -0.153702  0  3.878806  0
C  C182  1  0.49861727  0.23688786  0.61670529  1  -0.048531  0  -0.070922  -0.153549  0  3.878468  0
C  C183  1  0.00138370  0.73688675  0.88329884  1  -0.048527  0  -0.07093  -0.153633  0  3.878449  0
C  C184  1  0.45671574  0.70472432  0.43746360  1  0.491178  0  0.055466  0.1067  0  3.929081  0
C  C185  1  0.04328967  0.20471925  0.06253028  1  0.49117  0  0.055536  0.106752  0  3.928949  0
C  C186  1  0.54328628  0.29527752  0.56253288  1  0.491491  0  0.055522  0.106743  0  3.928949  0
C  C187  1  0.95671421  0.79527863  0.93747052  1  0.491192  0  0.055536  0.106737  0  3.928863  0
C  C188  1  0.30531231  0.83403219  0.37157928  1  -0.030726  0  -0.075635  -0.157657  0  3.923715  0
C  C189  1  0.19469268  0.33402812  0.12841887  1  -0.030604  0  -0.075634  -0.157835  0  3.923665  0
C  C190  1  0.69468605  0.16596833  0.62841876  1  0.037837  0  -0.075739  -0.157633  0  3.923538  0
C  C191  1  0.80531303  0.66596844  0.87158264  1  0.038164  0  -0.075746  -0.157725  0  3.923635  0
C  C192  1  0.26742023  0.77321053  0.42601466  1  0.512859  0  0.057135  0.117437  0  3.928928  0
C  C193  1  0.23258636  0.27320515  0.07398234  1  0.512828  0  0.057152  0.117492  0  3.928889  0
C  C194  1  0.73258087  0.22679065  0.57398176  1  0.444285  0  0.057155  0.117388  0  3.929009  0
C  C195  1  0.76741843  0.72679074  0.92602031  1  0.444517  0  0.057156  0.117442  0  3.928992  0
C  C196  1  0.09903797  0.36439987  0.88409909  1  0.499787  0  0.042569  0.091144  0  3.961587  0
C  C197  1  0.40096253  0.86440060  0.61589910  1  0.499714  0  0.042607  0.091222  0  3.961655  0
C  C198  1  0.90096315  0.63560065  0.11589912  1  0.499678  0  0.042593  0.091177  0  3.961786  0
C  C199  1  0.59904406  0.13560058  0.38409647  1  0.499453  0  0.042509  0.090955  0  3.961688  0
C  C200  1  0.01574016  0.39991815  0.93272525  1  -0.032301  0  -0.08367  -0.169687  0  3.941248  0
C  C201  1  0.48426414  0.89991900  0.56727682  1  -0.031862  0  -0.083677  -0.169721  0  3.941341  0
C  C202  1  0.98426556  0.60008237  0.06727867  1  -0.032252  0  -0.083745  -0.169833  0  3.941501  0
C  C203  1  0.51574429  0.10008152  0.43272007  1  -0.032015  0  -0.083702  -0.169751  0  3.941289  0
C  C204  1  0.04345644  0.47921356  0.97457050  1  0.027477  0  0.0087  0.098063  0  3.974508  0
C  C205  1  0.45655365  0.97921432  0.52543020  1  -0.013757  0  0.008707  0.098157  0  3.974369  0
C  C206  1  0.95655385  0.52078828  0.02543131  1  -0.013185  0  0.008756  0.098251  0  3.974493  0
C  C207  1  0.54345571  0.02078686  0.47456795  1  0.027481  0  0.008707  0.098079  0  3.974451  0
C  C208  1  0.15713985  0.51772099  0.96462779  1  -0.051893  0  -0.083416  -0.173664  0  3.942078  0
C  C209  1  0.34286758  0.01772041  0.53536698  1  -0.05143  0  -0.083351  -0.173607  0  3.941978  0
C  C210  1  0.84286950  0.48227821  0.03536915  1  -0.051779  0  -0.083294  -0.173596  0  3.941937  0
C  C211  1  0.65713993  0.98228011  0.46462865  1  -0.051577  0  -0.083413  -0.173609  0  3.942048  0
C  C212  1  0.23521113  0.47727127  0.91516727  1  0.482351  0  0.040359  0.092279  0  3.994159  0
C  C213  1  0.26479068  0.97727436  0.58482689  1  0.482088  0  0.040343  0.092209  0  3.993986  0
C  C214  1  0.76479180  0.52272528  0.08482926  1  0.482215  0  0.040278  0.092136  0  3.994039  0
C  C215  1  0.73521683  0.02272880  0.41516874  1  0.482055  0  0.040365  0.092261  0  3.994109  0
N  N216  1  0.55174570  0.02867810  0.19413082  1  -1.27137  0  -0.330557  -0.241574  0  3.558354  0
N  N217  1  0.94825654  0.52867247  0.30586558  1  -1.271386  0  -0.330463  -0.241461  0  3.558448  0
N  N218  1  0.44825360  0.97132705  0.80587088  1  -1.271458  0  -0.330553  -0.241644  0  3.558441  0
N  N219  1  0.05174457  0.47132540  0.69413204  1  -1.271502  0  -0.330525  -0.241552  0  3.558367  0
N  N220  1  0.34179114  0.70949643  0.45907330  1  -1.240716  0  -0.328357  -0.24627  0  3.58582  0
N  N221  1  0.15821521  0.20949353  0.04092303  1  -1.241022  0  -0.32838  -0.246128  0  3.585849  0
N  N222  1  0.65820904  0.29050343  0.54092305  1  -1.240847  0  -0.328373  -0.246247  0  3.586068  0
N  N223  1  0.84179050  0.79050369  0.95907908  1  -1.241077  0  -0.328385  -0.246228  0  3.585965  0
N  N224  1  0.20779331  0.40202923  0.87474373  1  -1.25661  0  -0.311559  -0.254529  0  3.38957  0
N  N225  1  0.29220824  0.90202976  0.62525335  1  -1.25639  0  -0.311608  -0.254593  0  3.389599  0
N  N226  1  0.79220871  0.59797063  0.12525214  1  -1.256354  0  -0.311588  -0.254522  0  3.389673  0
N  N227  1  0.70779836  0.09797076  0.37474282  1  -1.256658  0  -0.311481  -0.254392  0  3.389514  0
O  O228  1  0.41634592  0.59295515  0.61770311  1  -1.1638  0  -0.328255  -0.561673  0  2.336903  0
O  O229  1  0.08365083  0.09295373  0.88229763  1  -1.163879  0  -0.328271  -0.561587  0  2.336864  0
O  O230  1  0.58364696  0.40704669  0.38229697  1  -1.163897  0  -0.32819  -0.561505  0  2.336839  0
O  O231  1  0.91634938  0.90704547  0.11770293  1  -1.16386  0  -0.328256  -0.561594  0  2.336803  0
O  O232  1  0.32978444  0.67923469  0.70603194  1  -1.176247  0  -0.299724  -0.542463  0  2.277959  0
O  O233  1  0.17020348  0.17923930  0.79396890  1  -1.176111  0  -0.29966  -0.54237  0  2.277921  0
O  O234  1  0.67020570  0.32076649  0.29396797  1  -1.175993  0  -0.299672  -0.542377  0  2.27787  0
O  O235  1  0.82979215  0.82076056  0.20603076  1  -1.175627  0  -0.299698  -0.542399  0  2.277829  0
O  O236  1  0.48032907  0.75750353  0.84007642  1  -1.154891  0  -0.328456  -0.55759  0  2.300138  0
O  O237  1  0.01966735  0.25749387  0.65991843  1  -1.155134  0  -0.328694  -0.557721  0  2.300187  0
O  O238  1  0.51966656  0.24250294  0.15992265  1  -1.155215  0  -0.328569  -0.55757  0  2.300119  0
O  O239  1  0.98032370  0.74250005  0.34008094  1  -1.155157  0  -0.328613  -0.557776  0  2.300096  0
O  O240  1  0.33430691  0.68559133  0.90104161  1  -1.167033  0  -0.326847  -0.557781  0  2.104724  0
O  O241  1  0.16568742  0.18558717  0.59895544  1  -1.167056  0  -0.326829  -0.557757  0  2.104739  0
O  O242  1  0.66568597  0.31441580  0.09895727  1  -1.166948  0  -0.326741  -0.557637  0  2.104762  0
O  O243  1  0.83430179  0.81441599  0.40104261  1  -1.16724  0  -0.326843  -0.557763  0  2.104443  0
O  O244  1  0.70852037  0.35935993  0.71666783  1  -1.090999  0  -0.243761  -0.393154  0  2.184982  0
O  O245  1  0.79148588  0.85935003  0.78334259  1  -1.090661  0  -0.243826  -0.393189  0  2.185017  0
O  O246  1  0.29147346  0.64064324  0.28333712  1  -1.090688  0  -0.243732  -0.393135  0  2.185324  0
O  O247  1  0.20851617  0.14064785  0.21666049  1  -1.090553  0  -0.243826  -0.393168  0  2.185057  0
O  O248  1  0.37469844  0.16389093  0.92649980  1  -1.151544  0  -0.316661  -0.537679  0  2.338494  0
O  O249  1  0.12530313  0.66389705  0.57349651  1  -1.151582  0  -0.316698  -0.537737  0  2.338397  0
O  O250  1  0.62530177  0.83610695  0.07350136  1  -1.151465  0  -0.316659  -0.537696  0  2.338428  0
O  O251  1  0.87469796  0.33611074  0.42649631  1  -1.151673  0  -0.316633  -0.537662  0  2.338464  0
O  O252  1  0.48902169  0.11031748  0.03490623  1  -1.181792  0  -0.307108  -0.546769  0  2.339054  0
O  O253  1  0.01097791  0.61032307  0.46509440  1  -1.181711  0  -0.307111  -0.546846  0  2.339106  0
O  O254  1  0.51097396  0.88967907  0.96509764  1  -1.181591  0  -0.307105  -0.546732  0  2.339119  0
O  O255  1  0.98902137  0.38967745  0.53490430  1  -1.181685  0  -0.307076  -0.546772  0  2.339255  0
O  O256  1  0.74183585  0.07425565  0.07379030  1  -1.183282  0  -0.312911  -0.547785  0  2.346665  0
O  O257  1  0.75816842  0.57425242  0.42621046  1  -1.183183  0  -0.31288  -0.54775  0  2.346496  0
O  O258  1  0.25816164  0.92574487  0.92621428  1  -1.183035  0  -0.313013  -0.547841  0  2.346563  0
O  O259  1  0.24183178  0.42574612  0.57378770  1  -1.183189  0  -0.312932  -0.547799  0  2.346648  0
O  O260  1  0.76044778  0.98934194  0.96552401  1  -1.142232  0  -0.299047  -0.508508  0  2.30046  0
O  O261  1  0.73953968  0.48934183  0.53447749  1  -1.142323  0  -0.299065  -0.508558  0  2.30052  0
O  O262  1  0.23954054  0.01065660  0.03447938  1  -1.14228  0  -0.299049  -0.50848  0  2.300446  0
O  O263  1  0.26045870  0.51065605  0.46552295  1  -1.142405  0  -0.299042  -0.508489  0  2.30031  0
O  O264  1  0.75998672  0.17248928  0.23134197  1  -1.276812  0  -0.578989  -0.743487  0  2.113475  0
O  O265  1  0.74001332  0.67248588  0.26865619  1  -1.276691  0  -0.579054  -0.743511  0  2.113506  0
O  O266  1  0.24000982  0.82751322  0.76865655  1  -1.276736  0  -0.579016  -0.743472  0  2.113468  0
O  O267  1  0.25998504  0.32751134  0.73134005  1  -1.27676  0  -0.579013  -0.743529  0  2.113346  0
