# generated using pymatgen
data_CdH11C14S2N8ClO
_symmetry_space_group_name_H-M   'P 1'
_cell_length_a   5.65434670
_cell_length_b   13.56778795
_cell_length_c   12.94602980
_cell_angle_alpha   90.35156853
_cell_angle_beta   86.97456128
_cell_angle_gamma   95.71967961
_symmetry_Int_Tables_number   1
_chemical_formula_structural   CdH11C14S2N8ClO
_chemical_formula_sum   'Cd2 H22 C28 S4 N16 Cl2 O2'
_cell_volume   986.85783465
_cell_formula_units_Z   2
loop_
 _symmetry_equiv_pos_site_id
 _symmetry_equiv_pos_as_xyz
  1  'x, y, z'
loop_
 _atom_site_type_symbol
 _atom_site_label
 _atom_site_symmetry_multiplicity
 _atom_site_fract_x
 _atom_site_fract_y
 _atom_site_fract_z
 _atom_site_occupancy
 _atom_site_hle17_bader_spin_density
 _atom_site_hle17_ddec_charge
 _atom_site_hle17_ddec_spin_density
 _atom_site_hle17_ddec_sum_bond_order
 _atom_site_hle17_magmom
 _atom_site_hse06_10hf_bader_spin_density
 _atom_site_hse06_10hf_ddec_charge
 _atom_site_hse06_10hf_ddec_spin_density
 _atom_site_hse06_10hf_ddec_sum_bond_order
 _atom_site_hse06_10hf_magmom
 _atom_site_hse06_bader_spin_density
 _atom_site_hse06_ddec_charge
 _atom_site_hse06_ddec_spin_density
 _atom_site_hse06_ddec_sum_bond_order
 _atom_site_hse06_magmom
 _atom_site_pbe_bader_spin_density
 _atom_site_pbe_cm5_charge
 _atom_site_pbe_ddec_charge
 _atom_site_pbe_ddec_spin_density
 _atom_site_pbe_ddec_sum_bond_order
 _atom_site_pbe_magmom
Cd  Cd0  1  0.01209527  0.66748596  0.79270470  1  0  0.968091  0  1.998463  0  0  0.795237  0  2.459342  0  0  0.838238  0  2.42529  0  0  0.725083  0.765229  0  2.482201  0
Cd  Cd1  1  0.98790843  0.33251569  0.20729965  1  0  0.96806  0  1.998634  0  0  0.795227  0  2.459495  0  0  0.838226  0  2.425444  0  0  0.725087  0.765225  0  2.48234  0
H  H2  1  0.46875352  0.81113896  0.48832084  1  0  0.120543  0  0.949108  0  0  0.12925  0  1.013661  0  0  0.131821  0  1.012103  0  0  0.104658  0.127377  0  1.014848  0
H  H3  1  0.53123413  0.18885246  0.51168540  1  0  0.120537  0  0.949092  0  0  0.129279  0  1.013617  0  0  0.131848  0  1.012064  0  0  0.104697  0.127407  0  1.014806  0
H  H4  1  0.41091200  0.00584335  0.23163672  1  0  0.106615  0  0.964347  0  0  0.113788  0  1.034561  0  0  0.116665  0  1.032621  0  0  0.09758  0.111689  0  1.036131  0
H  H5  1  0.58910590  0.99415217  0.76836605  1  0  0.106623  0  0.964246  0  0  0.113849  0  1.034416  0  0  0.116727  0  1.032475  0  0  0.097568  0.111754  0  1.035988  0
H  H6  1  0.81382644  0.89982560  0.16434848  1  0  0.079408  0  0.934514  0  0  0.092106  0  1.003808  0  0  0.093445  0  1.001142  0  0  0.114702  0.091012  0  1.00522  0
H  H7  1  0.18619462  0.10017814  0.83565145  1  0  0.079568  0  0.934453  0  0  0.092199  0  1.003817  0  0  0.093542  0  1.001158  0  0  0.11475  0.09109  0  1.005235  0
H  H8  1  0.03842947  0.99938881  0.15036227  1  0  0.10158  0  0.905621  0  0  0.116131  0  0.968066  0  0  0.117055  0  0.96654  0  0  0.118487  0.115363  0  0.968616  0
H  H9  1  0.96157616  0.00061213  0.84963976  1  0  0.101651  0  0.905627  0  0  0.116235  0  0.968046  0  0  0.117163  0  0.966528  0  0  0.118495  0.115453  0  0.968597  0
H  H10  1  0.49029832  0.84796982  0.88550467  1  0  0.091347  0  0.942354  0  0  0.098824  0  1.009263  0  0  0.10027  0  1.007777  0  0  0.129201  0.097634  0  1.010482  0
H  H11  1  0.50970994  0.15203644  0.11449211  1  0  0.091427  0  0.94225  0  0  0.09885  0  1.009225  0  0  0.100297  0  1.007737  0  0  0.129199  0.097662  0  1.010439  0
H  H12  1  0.79895502  0.77230822  0.01333448  1  0  0.118047  0  0.933993  0  0  0.124851  0  1.000377  0  0  0.127947  0  0.995557  0  0  0.141628  0.122312  0  1.003648  0
H  H13  1  0.20106203  0.22769509  0.98665687  1  0  0.118076  0  0.933875  0  0  0.124841  0  1.000291  0  0  0.127955  0  0.995453  0  0  0.141613  0.122298  0  1.003572  0
H  H14  1  0.13812005  0.69274648  0.53733646  1  0  0.104171  0  0.955378  0  0  0.112021  0  1.03002  0  0  0.113302  0  1.02901  0  0  0.113422  0.111066  0  1.030788  0
H  H15  1  0.86185115  0.30725341  0.46266831  1  0  0.104154  0  0.95532  0  0  0.111982  0  1.029973  0  0  0.11326  0  1.028965  0  0  0.113421  0.111041  0  1.03074  0
H  H16  1  0.87034905  0.68569450  0.46933802  1  0  0.100138  0  0.917935  0  0  0.111821  0  0.984211  0  0  0.113146  0  0.982986  0  0  0.117763  0.11079  0  0.985166  0
H  H17  1  0.12962475  0.31429887  0.53065962  1  0  0.100193  0  0.918027  0  0  0.111838  0  0.984318  0  0  0.113171  0  0.98308  0  0  0.117812  0.110802  0  0.985297  0
H  H18  1  0.82053889  0.54879399  0.32453848  1  0  0.108526  0  0.946166  0  0  0.112746  0  1.021313  0  0  0.115776  0  1.01715  0  0  0.136825  0.110542  0  1.024169  0
H  H19  1  0.17946569  0.45120327  0.67546266  1  0  0.108511  0  0.94619  0  0  0.112751  0  1.021297  0  0  0.11578  0  1.017135  0  0  0.136794  0.110543  0  1.024159  0
H  H20  1  0.45849449  0.42463052  0.37451643  1  0  0.09227  0  0.961315  0  0  0.096986  0  1.033331  0  0  0.098656  0  1.031407  0  0  0.127794  0.095733  0  1.034726  0
H  H21  1  0.54149640  0.57537053  0.62548934  1  0  0.092332  0  0.961229  0  0  0.097037  0  1.03328  0  0  0.098699  0  1.03138  0  0  0.12779  0.095788  0  1.034648  0
H  H22  1  0.73102866  0.78157127  0.25333206  1  0  0.376634  0  0.840509  0  0  0.36282  0  0.895897  0  0  0.370027  0  0.888551  0  0  0.325524  0.357711  0  0.901134  0
H  H23  1  0.26895889  0.21843227  0.74666676  1  0  0.376597  0  0.840487  0  0  0.362789  0  0.895862  0  0  0.369998  0  0.888514  0  0  0.325487  0.357685  0  0.901095  0
C  C24  1  0.13372319  0.88535918  0.24933061  1  0  -0.050224  0  3.799662  0  0  -0.038133  0  4.057332  0  0  -0.042592  0  4.079247  0  0  -0.035704  -0.03504  0  4.041132  0
C  C25  1  0.86626900  0.11464659  0.75066600  1  0  -0.050264  0  3.79976  0  0  -0.037949  0  4.057181  0  0  -0.042399  0  4.079103  0  0  -0.035732  -0.034876  0  4.041001  0
C  C26  1  0.04514251  0.80268765  0.30939078  1  0  0.232242  0  3.782754  0  0  0.209546  0  4.054127  0  0  0.21959  0  4.070373  0  0  0.076494  0.202541  0  4.043195  0
C  C27  1  0.95484762  0.19731599  0.69060342  1  0  0.232451  0  3.782496  0  0  0.209681  0  4.053858  0  0  0.219724  0  4.070102  0  0  0.076555  0.202671  0  4.042943  0
C  C28  1  0.16664691  0.77551520  0.39529626  1  0  -0.007235  0  3.719524  0  0  0.008357  0  3.967757  0  0  0.003919  0  3.991293  0  0  -0.020955  0.011251  0  3.951988  0
C  C29  1  0.83334010  0.22448544  0.60470016  1  0  -0.007361  0  3.719662  0  0  0.008255  0  3.967908  0  0  0.003814  0  3.991449  0  0  -0.020952  0.011154  0  3.952162  0
C  C30  1  0.37688660  0.83089129  0.42068863  1  0  -0.141916  0  3.734333  0  0  -0.178626  0  3.995079  0  0  -0.177713  0  4.01294  0  0  -0.092732  -0.179063  0  3.983015  0
C  C31  1  0.62310520  0.16910468  0.57931235  1  0  -0.14198  0  3.734583  0  0  -0.178746  0  3.995362  0  0  -0.177832  0  4.013217  0  0  -0.092827  -0.17918  0  3.983307  0
C  C32  1  0.46447211  0.91331503  0.36111651  1  0  0.101965  0  3.863059  0  0  0.109012  0  4.14297  0  0  0.110373  0  4.164274  0  0  -0.006166  0.107759  0  4.128848  0
C  C33  1  0.53553257  0.08668294  0.63888542  1  0  0.102006  0  3.863255  0  0  0.109052  0  4.143195  0  0  0.110415  0  4.164499  0  0  -0.006134  0.107804  0  4.129075  0
C  C34  1  0.34445792  0.94011290  0.27604088  1  0  -0.161606  0  3.790386  0  0  -0.198258  0  4.056986  0  0  -0.198685  0  4.076851  0  0  -0.103839  -0.197863  0  4.04381  0
C  C35  1  0.65556086  0.05988416  0.72395962  1  0  -0.161597  0  3.790647  0  0  -0.198392  0  4.057261  0  0  -0.198817  0  4.077117  0  0  -0.103812  -0.197969  0  4.044012  0
C  C36  1  0.00771131  0.91845240  0.15793118  1  0  -0.031702  0  3.661128  0  0  -0.113343  0  3.919391  0  0  -0.098684  0  3.929761  0  0  -0.039998  -0.117066  0  3.914034  0
C  C37  1  0.99231134  0.08154917  0.84206560  1  0  -0.031911  0  3.660918  0  0  -0.113602  0  3.9193  0  0  -0.099008  0  3.929687  0  0  -0.039987  -0.117289  0  3.9139  0
C  C38  1  0.33161050  0.84620329  0.93669641  1  0  0.200539  0  3.710348  0  0  0.150806  0  3.998078  0  0  0.162276  0  4.008992  0  0  0.142213  0.143678  0  3.988654  0
C  C39  1  0.66840952  0.15380270  0.06330357  1  0  0.200568  0  3.710147  0  0  0.150868  0  3.99791  0  0  0.162338  0  4.008835  0  0  0.142153  0.143731  0  3.988498  0
C  C40  1  0.97949659  0.80680254  0.99981897  1  0  0.165374  0  3.637167  0  0  0.09003  0  3.898376  0  0  0.11444  0  3.912108  0  0  0.159712  0.080536  0  3.891126  0
C  C41  1  0.02051219  0.19320450  0.00017628  1  0  0.165528  0  3.637513  0  0  0.090309  0  3.898665  0  0  0.114655  0  3.912369  0  0  0.159853  0.080798  0  3.89143  0
C  C42  1  0.06484412  0.68855360  0.46059092  1  0  -0.048184  0  3.644978  0  0  -0.126969  0  3.890087  0  0  -0.122254  0  3.899889  0  0  -0.048944  -0.129928  0  3.883552  0
C  C43  1  0.93513916  0.31144255  0.53940843  1  0  -0.048074  0  3.645128  0  0  -0.126771  0  3.890172  0  0  -0.122055  0  3.89997  0  0  -0.048965  -0.129769  0  3.883713  0
C  C44  1  0.99251468  0.53431112  0.35097886  1  0  0.179614  0  3.630597  0  0  0.100592  0  3.896265  0  0  0.116184  0  3.906722  0  0  0.159458  0.090722  0  3.888727  0
C  C45  1  0.00747935  0.46568631  0.64902219  1  0  0.179547  0  3.630494  0  0  0.100533  0  3.896143  0  0  0.116127  0  3.906603  0  0  0.159386  0.090662  0  3.888609  0
C  C46  1  0.31981408  0.47453674  0.37654870  1  0  0.194024  0  3.717202  0  0  0.141272  0  4.009032  0  0  0.152659  0  4.022993  0  0  0.13901  0.133905  0  3.999276  0
C  C47  1  0.68017842  0.52546426  0.62345786  1  0  0.193832  0  3.717172  0  0  0.141068  0  4.009006  0  0  0.152453  0  4.022966  0  0  0.138931  0.13371  0  3.999242  0
C  C48  1  0.54159352  0.76367961  0.68857594  1  0  0.292731  0  4.021018  0  0  0.273716  0  4.323141  0  0  0.295517  0  4.337112  0  0  0.141249  0.25889  0  4.313355  0
C  C49  1  0.45838390  0.23631441  0.31142252  1  0  0.292537  0  4.020808  0  0  0.273527  0  4.322935  0  0  0.295333  0  4.336913  0  0  0.141103  0.258699  0  4.31315  0
C  C50  1  0.47829992  0.59432994  0.89150118  1  0  0.309449  0  4.0153  0  0  0.289571  0  4.316612  0  0  0.312037  0  4.331442  0  0  0.139062  0.274354  0  4.306205  0
C  C51  1  0.52170279  0.40566944  0.10850465  1  0  0.309441  0  4.015496  0  0  0.289558  0  4.31679  0  0  0.312018  0  4.331626  0  0  0.139072  0.27434  0  4.306384  0
S  S52  1  0.22356078  0.52682756  0.89469269  1  0  -0.315076  0  2.131081  0  0  -0.284048  0  2.433624  0  0  -0.301046  0  2.427699  0  0  -0.149657  -0.272304  0  2.437334  0
S  S53  1  0.77644972  0.47316449  0.10530526  1  0  -0.315124  0  2.131181  0  0  -0.284094  0  2.43373  0  0  -0.301093  0  2.427807  0  0  -0.149696  -0.272354  0  2.437438  0
S  S54  1  0.81175837  0.81798935  0.68327698  1  0  -0.332626  0  2.119473  0  0  -0.306118  0  2.444228  0  0  -0.32209  0  2.438639  0  0  -0.147728  -0.294842  0  2.447804  0
S  S55  1  0.18823390  0.18200810  0.31672405  1  0  -0.332511  0  2.119815  0  0  -0.306003  0  2.444542  0  0  -0.321972  0  2.438956  0  0  -0.147699  -0.294729  0  2.448126  0
N  N56  1  0.09283125  0.87460695  0.06102397  1  0  0.043002  0  3.555398  0  0  0.161848  0  3.745827  0  0  0.122868  0  3.804317  0  0  -0.133928  0.169179  0  3.729295  0
N  N57  1  0.90719789  0.12539443  0.93897597  1  0  0.042907  0  3.555349  0  0  0.161604  0  3.745965  0  0  0.122769  0  3.804318  0  0  -0.134023  0.168983  0  3.729317  0
N  N58  1  0.31912128  0.90043675  0.02237051  1  0  -0.28066  0  2.848286  0  0  -0.283382  0  3.117306  0  0  -0.281737  0  3.136106  0  0  -0.232207  -0.278449  0  3.108285  0
N  N59  1  0.68089289  0.09956712  0.97762858  1  0  -0.280823  0  2.848132  0  0  -0.283466  0  3.117155  0  0  -0.281872  0  3.135927  0  0  -0.232272  -0.278549  0  3.108139  0
N  N60  1  0.12652237  0.78764014  0.91979844  1  0  -0.395821  0  3.211552  0  0  -0.32467  0  3.494253  0  0  -0.346743  0  3.508465  0  0  -0.343034  -0.309538  0  3.481807  0
N  N61  1  0.87349914  0.21236296  0.08019760  1  0  -0.395894  0  3.211713  0  0  -0.324748  0  3.494386  0  0  -0.346818  0  3.508609  0  0  -0.342991  -0.309622  0  3.481951  0
N  N62  1  0.12094501  0.59427995  0.41456707  1  0  0.049383  0  3.544947  0  0  0.170387  0  3.731296  0  0  0.159089  0  3.755693  0  0  -0.131887  0.1769  0  3.716324  0
N  N63  1  0.87904275  0.40571529  0.58543540  1  0  0.049325  0  3.544849  0  0  0.170299  0  3.731268  0  0  0.159  0  3.755668  0  0  -0.131804  0.176839  0  3.716281  0
N  N64  1  0.33149292  0.55775786  0.43146604  1  0  -0.275597  0  2.844321  0  0  -0.275412  0  3.114319  0  0  -0.283608  0  3.128333  0  0  -0.225179  -0.269694  0  3.104859  0
N  N65  1  0.66848494  0.44224116  0.56853954  1  0  -0.275484  0  2.844112  0  0  -0.275281  0  3.1141  0  0  -0.283478  0  3.128116  0  0  -0.225138  -0.269558  0  3.104629  0
N  N66  1  0.11377851  0.45718725  0.32552061  1  0  -0.411063  0  3.204937  0  0  -0.334838  0  3.487437  0  0  -0.358106  0  3.504429  0  0  -0.348051  -0.319008  0  3.475198  0
N  N67  1  0.88620583  0.54281159  0.67448813  1  0  -0.410965  0  3.204772  0  0  -0.334741  0  3.487258  0  0  -0.358012  0  3.504256  0  0  -0.34799  -0.31891  0  3.475014  0
N  N68  1  0.66130627  0.64543582  0.89114867  1  0  -0.567944  0  2.906388  0  0  -0.514419  0  3.184756  0  0  -0.53677  0  3.192926  0  0  -0.410557  -0.499173  0  3.179004  0
N  N69  1  0.33869745  0.35457175  0.10885662  1  0  -0.567913  0  2.906592  0  0  -0.514413  0  3.185031  0  0  -0.536764  0  3.19321  0  0  -0.410567  -0.499167  0  3.179275  0
N  N70  1  0.34586268  0.72267581  0.68998306  1  0  -0.546472  0  2.882909  0  0  -0.489645  0  3.157137  0  0  -0.510002  0  3.163436  0  0  -0.400193  -0.475716  0  3.152733  0
N  N71  1  0.65414595  0.27732247  0.31000652  1  0  -0.546354  0  2.882318  0  0  -0.489548  0  3.156587  0  0  -0.509913  0  3.162893  0  0  -0.400068  -0.475612  0  3.15218  0
Cl  Cl72  1  0.71729998  0.98648900  0.39551748  1  0  -0.072775  0  1.396085  0  0  -0.051047  0  1.636049  0  0  -0.056141  0  1.634333  0  0  0.010162  -0.047405  0  1.637407  0
Cl  Cl73  1  0.28269079  0.01350540  0.60448655  1  0  -0.072812  0  1.395966  0  0  -0.051068  0  1.635926  0  0  -0.056162  0  1.634209  0  0  0.010142  -0.047425  0  1.637281  0
O  O74  1  0.84041269  0.74423207  0.28915438  1  0  -0.496791  0  2.123784  0  0  -0.452805  0  2.333404  0  0  -0.469116  0  2.32615  0  0  -0.349273  -0.441099  0  2.33812  0
O  O75  1  0.15958421  0.25577141  0.71084143  1  0  -0.4968  0  2.123673  0  0  -0.452815  0  2.333299  0  0  -0.46913  0  2.326042  0  0  -0.349245  -0.441109  0  2.338017  0
