# generated using pymatgen
data_Zn2H33C47S3N2O17
_symmetry_space_group_name_H-M   'P 1'
_cell_length_a   10.97867966
_cell_length_b   13.75506167
_cell_length_c   26.32501274
_cell_angle_alpha   90.17870046
_cell_angle_beta   87.53725529
_cell_angle_gamma   90.01975043
_symmetry_Int_Tables_number   1
_chemical_formula_structural   Zn2H33C47S3N2O17
_chemical_formula_sum   'Zn4 H66 C94 S6 N4 O34'
_cell_volume   3971.71257270
_cell_formula_units_Z   2
loop_
 _symmetry_equiv_pos_site_id
 _symmetry_equiv_pos_as_xyz
  1  'x, y, z'
loop_
 _atom_site_type_symbol
 _atom_site_label
 _atom_site_symmetry_multiplicity
 _atom_site_fract_x
 _atom_site_fract_y
 _atom_site_fract_z
 _atom_site_occupancy
 _atom_site_pbe_bader_charge
 _atom_site_pbe_bader_spin_density
 _atom_site_pbe_cm5_charge
 _atom_site_pbe_ddec_charge
 _atom_site_pbe_ddec_spin_density
 _atom_site_pbe_ddec_sum_bond_order
 _atom_site_pbe_magmom
Zn  Zn0  1  0.52877076  0.40009494  0.50397306  1  1.280825  0  0.667522  0.803529  0  2.436847  0
Zn  Zn1  1  0.52863869  0.59958338  0.50278414  1  1.267667  0  0.667778  0.799335  0  2.467046  0
Zn  Zn2  1  0.48059471  0.59849871  0.08218446  1  1.269782  0  0.66577  0.799636  0  2.448115  0
Zn  Zn3  1  0.48117434  0.39999183  0.08567545  1  1.269003  0  0.668885  0.800385  0  2.462301  0
H  H4  1  0.39776578  0.24767025  0.56604040  1  0.155551  0  0.137632  0.121033  0  0.961363  0
H  H5  1  0.30838248  0.08775216  0.60156401  1  0.115021  0  0.12604  0.140652  0  0.978055  0
H  H6  1  0.63625766  0.25024450  0.44043909  1  0.141402  0  0.127351  0.106075  0  1.021728  0
H  H7  1  0.63532265  0.75129010  0.43554209  1  0.143744  0  0.135708  0.117496  0  0.96412  0
H  H8  1  0.70404361  0.91092387  0.39365225  1  0.147647  0  0.128703  0.146842  0  0.966753  0
H  H9  1  0.39632430  0.74719740  0.56087214  1  0.162376  0  0.12701  0.104077  0  1.021404  0
H  H10  1  0.65097580  0.40183516  0.18278687  1  0.071095  0  0.097018  0.106666  0  1.074753  0
H  H11  1  0.72678723  0.38425913  0.36650231  1  0.098382  0  0.100056  0.110459  0  1.059119  0
H  H12  1  0.49769604  0.65097227  0.66539795  1  0.121954  0  0.111948  0.125303  0  0.998941  0
H  H13  1  0.49044023  0.74151221  0.74642800  1  0.143942  0  0.119565  0.138964  0  0.982349  0
H  H14  1  0.49890461  0.33967031  0.66400498  1  0.137033  0  0.108942  0.124054  0  1.024849  0
H  H15  1  0.48805406  0.33787634  0.92261036  1  0.097704  0  0.110275  0.122609  0  1.001394  0
H  H16  1  0.48059727  0.24757908  0.84171038  1  0.136392  0  0.118514  0.137669  0  0.982756  0
H  H17  1  0.49432174  0.64932333  0.92384980  1  0.142356  0  0.1084  0.124327  0  1.025668  0
H  H18  1  0.80203208  0.60593136  0.59463805  1  0.072405  0  0.100324  0.11475  0  1.017067  0
H  H19  1  0.25401964  0.58307542  0.59218801  1  0.041514  0  0.096948  0.111369  0  1.034838  0
H  H20  1  0.35181472  0.75346477  0.02364325  1  0.151905  0  0.140154  0.122057  0  0.953027  0
H  H21  1  0.27274549  0.91542638  0.98968589  1  0.147187  0  0.127387  0.142254  0  0.975331  0
H  H22  1  0.61692653  0.74556274  0.13002409  1  0.158288  0  0.126578  0.100202  0  1.029642  0
H  H23  1  0.60706340  0.24444533  0.14539937  1  0.136305  0  0.132837  0.112036  0  0.990782  0
H  H24  1  0.68135813  0.08323042  0.18081712  1  0.145681  0  0.126767  0.139916  0  0.981302  0
H  H25  1  0.35843836  0.25372708  0.03212840  1  0.1582  0  0.127434  0.105995  0  1.027273  0
H  H26  1  0.75105503  0.39624558  0.00740796  1  0.113766  0  0.098749  0.113677  0  1.033502  0
H  H27  1  0.20312973  0.40871215  0.99042416  1  0.081148  0  0.098155  0.11445  0  1.023429  0
H  H28  1  0.16970052  0.76150215  0.59385583  1  0.629541  0  0.31809  0.367782  0  0.930251  0
H  H29  1  0.67450581  0.23378612  0.33846305  1  0.629647  0  0.311289  0.361235  0  0.944183  0
H  H30  1  0.30124010  0.82367233  0.85940697  1  0.627999  0  0.355258  0.408077  0  0.830903  0
H  H31  1  0.30143072  0.16291671  0.72859560  1  0.640844  0  0.355935  0.410298  0  0.829468  0
H  H32  1  0.13338528  0.24079535  0.00297268  1  0.654472  0  0.318488  0.370226  0  0.926784  0
H  H33  1  0.61355081  0.75640095  0.21422908  1  0.634875  0  0.348184  0.405218  0  0.84995  0
H  H34  1  0.25573505  0.60389969  0.35161608  1  0.034358  0  0.090784  0.122262  0  1.00787  0
H  H35  1  0.35307932  0.58834713  0.40304909  1  0.075632  0  0.091998  0.140425  0  1.038358  0
H  H36  1  0.37124274  0.68957038  0.36253367  1  0.019934  0  0.092762  0.128374  0  0.985411  0
H  H37  1  0.33531151  0.70652836  0.27479319  1  0.060181  0  0.093099  0.129363  0  0.993806  0
H  H38  1  0.33173148  0.64456520  0.21570532  1  0.038366  0  0.091238  0.134318  0  1.030689  0
H  H39  1  0.23286968  0.60935212  0.26752816  1  0.051478  0  0.094352  0.129925  0  0.995125  0
H  H40  1  0.86126471  0.22075354  0.20633924  1  0.057001  0  0.091323  0.125616  0  0.99749  0
H  H41  1  0.82088207  0.31062833  0.16096793  1  0.055002  0  0.091056  0.130773  0  1.017116  0
H  H42  1  0.94438565  0.33003104  0.20091657  1  0.022269  0  0.095351  0.133052  0  0.987973  0
H  H43  1  0.98546555  0.33564003  0.29030544  1  0.036119  0  0.095098  0.132803  0  0.985659  0
H  H44  1  0.91390559  0.29630543  0.34849472  1  0.033359  0  0.09081  0.13246  0  1.051595  0
H  H45  1  0.91482828  0.22071890  0.29383027  1  0.057534  0  0.09413  0.13527  0  0.993211  0
H  H46  1  0.14076790  0.45640767  0.38704626  1  0.03248  0  0.089476  0.118726  0  1.00974  0
H  H47  1  0.25446968  0.41151415  0.42691700  1  0.037137  0  0.092697  0.139011  0  1.021039  0
H  H48  1  0.12003282  0.34355115  0.41778270  1  0.028775  0  0.09702  0.136881  0  0.978564  0
H  H49  1  0.88584876  0.35528225  0.42626861  1  0.026509  0  0.096283  0.144959  0  0.996193  0
H  H50  1  0.80367063  0.46567872  0.42333374  1  0.049793  0  0.090987  0.130537  0  1.030606  0
H  H51  1  0.94376222  0.45220172  0.38812383  1  0.029015  0  0.089976  0.123031  0  1.013261  0
H  H52  1  0.92116496  0.75724855  0.68535990  1  0.041136  0  0.094949  0.130281  0  0.988318  0
H  H53  1  0.79501653  0.68005287  0.67414637  1  0.037864  0  0.092491  0.128886  0  1.000396  0
H  H54  1  0.91053379  0.64275134  0.71529186  1  0.047346  0  0.092525  0.125084  0  0.99457  0
H  H55  1  0.13101058  0.60514422  0.71313844  1  0.044964  0  0.09385  0.132003  0  0.984846  0
H  H56  1  0.25829028  0.64666471  0.67517237  1  0.052087  0  0.086885  0.129219  0  1.034453  0
H  H57  1  0.14011953  0.72824197  0.69498145  1  0.049842  0  0.089455  0.124244  0  1.007887  0
H  H58  1  0.06713432  0.53771768  0.20396449  1  0.013762  0  0.089035  0.118012  0  1.01333  0
H  H59  1  0.20720721  0.54064172  0.16774487  1  0.072781  0  0.091691  0.135121  0  1.028607  0
H  H60  1  0.11058994  0.64371943  0.17010693  1  0.016109  0  0.096916  0.136776  0  0.977769  0
H  H61  1  0.88394620  0.65104869  0.17618720  1  0.057913  0  0.09205  0.141498  0  1.005968  0
H  H62  1  0.75275048  0.57964614  0.16616900  1  0.032357  0  0.08647  0.126285  0  1.035814  0
H  H63  1  0.86727092  0.53593517  0.20554924  1  0.039983  0  0.08953  0.125023  0  1.011193  0
H  H64  1  0.86206307  0.23364998  0.91542750  1  0.041388  0  0.094706  0.129552  0  0.988525  0
H  H65  1  0.73778102  0.31223557  0.93214063  1  0.06294  0  0.091914  0.13001  0  1.006507  0
H  H66  1  0.84862480  0.34634764  0.88429639  1  0.013456  0  0.09301  0.126026  0  0.992833  0
H  H67  1  0.06976824  0.37164636  0.87512988  1  0.04868  0  0.095601  0.133686  0  0.985333  0
H  H68  1  0.20131484  0.33838122  0.90843719  1  0.020064  0  0.088681  0.131963  0  1.017508  0
H  H69  1  0.08275215  0.25292258  0.89910973  1  0.049937  0  0.091223  0.127182  0  1.002289  0
C  C70  1  0.50564600  0.49348273  0.60330706  1  1.60096  0  0.214719  0.585671  0  4.181032  0
C  C71  1  0.29092640  0.50499815  0.50404640  1  1.507315  0  0.21823  0.608261  0  4.177511  0
C  C72  1  0.54289818  0.49024769  0.40241953  1  1.580637  0  0.216156  0.604242  0  4.168309  0
C  C73  1  0.76334818  0.51664189  0.51008854  1  1.503774  0  0.220422  0.61324  0  4.156534  0
C  C74  1  0.49464665  0.49608182  0.98451794  1  1.562231  0  0.216324  0.590663  0  4.171756  0
C  C75  1  0.24522869  0.48904021  0.07924711  1  1.558573  0  0.220314  0.616582  0  4.150498  0
C  C76  1  0.47660498  0.51582832  0.18407903  1  1.563914  0  0.217991  0.610267  0  4.162045  0
C  C77  1  0.71764235  0.49297453  0.08703813  1  1.543228  0  0.222766  0.611185  0  4.169153  0
C  C78  1  0.44696713  0.20358033  0.53741805  1  0.557037  0  0.081696  0.075984  0  3.824473  0
C  C79  1  0.43781579  0.10197062  0.53649232  1  0.00775  0  0.0099  0.043914  0  4.007958  0
C  C80  1  0.36319459  0.04862940  0.57266415  1  0.085879  0  -0.049412  -0.090292  0  3.903863  0
C  C81  1  0.58222039  0.20464302  0.46639526  1  0.560631  0  0.069766  0.069806  0  3.844109  0
C  C82  1  0.58095969  0.10319667  0.46181843  1  0.023359  0  0.010509  0.033854  0  3.990696  0
C  C83  1  0.65006621  0.04910214  0.42347321  1  -0.164486  0  -0.002772  -0.111974  0  3.940214  0
C  C84  1  0.58056009  0.79529664  0.46247064  1  0.547835  0  0.076198  0.066526  0  3.850887  0
C  C85  1  0.57866028  0.89683009  0.46011873  1  -0.036347  0  0.00786  0.042458  0  4.029917  0
C  C86  1  0.64924327  0.94986727  0.42263655  1  0.04545  0  -0.053958  -0.10366  0  3.925208  0
C  C87  1  0.44434743  0.79339106  0.53318624  1  0.508632  0  0.06924  0.068128  0  3.843276  0
C  C88  1  0.43500009  0.89502012  0.53466600  1  0.080143  0  0.011007  0.032362  0  3.992611  0
C  C89  1  0.36138825  0.94923074  0.57156642  1  -0.242596  0  -0.00337  -0.114231  0  3.927115  0
C  C90  1  0.50748003  0.05082191  0.49819852  1  -0.056661  0  0.024298  0.031959  0  3.920014  0
C  C91  1  0.50584846  0.94772827  0.49749891  1  0.038983  0  0.022955  0.030692  0  3.920035  0
C  C92  1  0.49263644  0.51053148  0.24051924  1  -0.02799  0  -0.01948  -0.138934  0  3.928826  0
C  C93  1  0.58591686  0.44803178  0.25784761  1  -0.002219  0  -0.010149  0.056848  0  4.013995  0
C  C94  1  0.42077699  0.56528332  0.27461658  1  -0.015343  0  -0.009569  0.088118  0  3.937526  0
C  C95  1  0.66599648  0.39729488  0.22328519  1  -0.056954  0  -0.099847  -0.197677  0  3.966371  0
C  C96  1  0.76618938  0.34637061  0.23842677  1  -0.00597  0  -0.019179  0.10204  0  3.976302  0
C  C97  1  0.52711686  0.49507838  0.34580658  1  -0.034491  0  -0.01484  -0.13182  0  3.895352  0
C  C98  1  0.43603120  0.55535125  0.32809473  1  0.009351  0  -0.004795  0.095781  0  3.916012  0
C  C99  1  0.60539210  0.44142533  0.31108072  1  0.01944  0  -0.009211  0.064234  0  4.000535  0
C  C100  1  0.70817406  0.38662814  0.32621972  1  -0.104545  0  -0.106914  -0.23639  0  3.970405  0
C  C101  1  0.79007989  0.34284568  0.29139826  1  -0.087699  0  -0.016412  0.101255  0  3.973458  0
C  C102  1  0.49625492  0.58286889  0.68652022  1  -0.116513  0  -0.071854  -0.13408  0  3.925315  0
C  C103  1  0.49253224  0.58359136  0.73976789  1  0.016389  0  -0.004157  0.078998  0  4.034497  0
C  C104  1  0.49083828  0.67325851  0.76740637  1  0.005466  0  -0.068183  -0.117395  0  3.955045  0
C  C105  1  0.49542066  0.40632261  0.68630524  1  -0.078432  0  -0.073146  -0.123151  0  3.897756  0
C  C106  1  0.49067787  0.40355066  0.73952636  1  0.026723  0  -0.003023  0.064802  0  4.00659  0
C  C107  1  0.48595563  0.31477383  0.76877414  1  -0.114631  0  -0.017693  -0.144147  0  3.97848  0
C  C108  1  0.48954216  0.40604754  0.90155305  1  0.019978  0  -0.071799  -0.131275  0  3.919911  0
C  C109  1  0.48741225  0.40539022  0.84837331  1  0.017196  0  -0.005066  0.078381  0  4.035175  0
C  C110  1  0.48401851  0.31582450  0.82073378  1  -0.099551  0  -0.069082  -0.120332  0  3.955576  0
C  C111  1  0.49191045  0.58264468  0.90167518  1  0.006909  0  -0.075497  -0.12657  0  3.901974  0
C  C112  1  0.49061901  0.58546057  0.84854922  1  0.033145  0  -0.002967  0.067509  0  4.007997  0
C  C113  1  0.48999215  0.67433141  0.81935688  1  -0.218792  0  -0.018924  -0.15017  0  3.984763  0
C  C114  1  0.49837624  0.49471176  0.66023886  1  0.036684  0  -0.013787  -0.020865  0  3.994694  0
C  C115  1  0.49039693  0.49372720  0.76703640  1  -0.012197  0  0.010349  0.010788  0  3.902016  0
C  C116  1  0.49244467  0.49421271  0.92773702  1  -0.008483  0  -0.015039  -0.02389  0  3.997401  0
C  C117  1  0.48922213  0.49525473  0.82108899  1  -0.027874  0  0.009968  0.008258  0  3.903042  0
C  C118  1  0.89983671  0.51564452  0.50994000  1  -0.002273  0  -0.015357  -0.132891  0  3.92269  0
C  C119  1  0.96253602  0.55709481  0.55107781  1  0.027262  0  -0.006074  0.061081  0  4.014165  0
C  C120  1  0.96228625  0.47322169  0.46859550  1  0.031164  0  -0.004872  0.101142  0  3.939215  0
C  C121  1  0.90120719  0.60050999  0.59406622  1  -0.030623  0  -0.093311  -0.187254  0  3.942144  0
C  C122  1  0.96239671  0.63596320  0.63496397  1  -0.015516  0  -0.015229  0.108663  0  3.968093  0
C  C123  1  0.15454107  0.50755729  0.50698576  1  0.003001  0  -0.014774  -0.129383  0  3.93163  0
C  C124  1  0.09184494  0.46714000  0.46734629  1  0.025587  0  -0.006159  0.091989  0  3.933093  0
C  C125  1  0.09279971  0.55315912  0.54946176  1  0.009634  0  -0.009973  0.059496  0  4.0134  0
C  C126  1  0.15482943  0.58972365  0.59201729  1  -0.082554  0  -0.103124  -0.219071  0  3.962435  0
C  C127  1  0.09275860  0.62782720  0.63467484  1  -0.045791  0  -0.0215  0.086906  0  3.986914  0
C  C128  1  0.40851570  0.79646107  0.04829527  1  0.45765  0  0.081972  0.073545  0  3.826607  0
C  C129  1  0.40558433  0.89837416  0.04862062  1  0.068472  0  0.011837  0.048636  0  4.002147  0
C  C130  1  0.32982608  0.95332596  0.01625964  1  -0.003301  0  -0.049615  -0.092973  0  3.904267  0
C  C131  1  0.55622963  0.79255966  0.10961543  1  0.471376  0  0.065101  0.056672  0  3.863585  0
C  C132  1  0.55723704  0.89380639  0.11505358  1  0.068595  0  0.008645  0.031762  0  4.001786  0
C  C133  1  0.62848256  0.94615478  0.15090892  1  -0.1597  0  -0.004796  -0.120748  0  3.947289  0
C  C134  1  0.55186459  0.20193878  0.11996110  1  0.499134  0  0.077061  0.070163  0  3.841201  0
C  C135  1  0.55412830  0.10020989  0.11974353  1  0.028371  0  0.009006  0.044499  0  4.017793  0
C  C136  1  0.62712152  0.04542848  0.15316554  1  0.046892  0  -0.053658  -0.097209  0  3.918435  0
C  C137  1  0.41081492  0.20647639  0.05596925  1  0.514627  0  0.069935  0.070295  0  3.840357  0
C  C138  1  0.40493852  0.10495786  0.05246485  1  0.014651  0  0.010993  0.032465  0  3.993423  0
C  C139  1  0.32938499  0.05268930  0.01818858  1  -0.108265  0  -0.001525  -0.110055  0  3.921416  0
C  C140  1  0.48066157  0.94778198  0.08312705  1  0.045497  0  0.025155  0.033001  0  3.914174  0
C  C141  1  0.47948919  0.05080649  0.08506413  1  -0.03454  0  0.023611  0.031358  0  3.919535  0
C  C142  1  0.85400570  0.48940231  0.08580200  1  -0.002523  0  -0.012722  -0.127108  0  3.933527  0
C  C143  1  0.91524497  0.44320926  0.04348003  1  0.0467  0  -0.008714  0.055762  0  4.022213  0
C  C144  1  0.91664120  0.52992093  0.12527423  1  0.071363  0  -0.005603  0.095947  0  3.930869  0
C  C145  1  0.85047352  0.39854457  0.00407129  1  -0.069624  0  -0.094917  -0.188664  0  3.936988  0
C  C146  1  0.90846316  0.35777513  0.96162802  1  -0.030587  0  -0.015222  0.111597  0  3.961829  0
C  C147  1  0.10887094  0.48699341  0.08079218  1  0.007351  0  -0.018722  -0.142492  0  3.920562  0
C  C148  1  0.04657722  0.52641577  0.12325033  1  -0.073768  0  -0.002401  0.101088  0  3.919596  0
C  C149  1  0.04552531  0.44366345  0.04010297  1  -0.031816  0  -0.009125  0.06332  0  4.007097  0
C  C150  1  0.10402213  0.40377934  0.99521034  1  -0.161283  0  -0.10686  -0.232086  0  3.975876  0
C  C151  1  0.03879591  0.36338703  0.95621075  1  0.003561  0  -0.016219  0.097211  0  3.979412  0
C  C152  1  0.35008935  0.61126663  0.36346963  1  -0.043239  0  -0.242997  -0.404576  0  3.969967  0
C  C153  1  0.32555851  0.63475712  0.25690263  1  -0.07989  0  -0.242303  -0.408354  0  3.976039  0
C  C154  1  0.85185289  0.29934893  0.19958585  1  -0.078458  0  -0.237946  -0.40575  0  3.973269  0
C  C155  1  0.90638407  0.29634751  0.30728865  1  -0.053347  0  -0.246187  -0.425034  0  3.985103  0
C  C156  1  0.15613349  0.41748123  0.42269355  1  -0.038037  0  -0.238183  -0.398593  0  3.959197  0
C  C157  1  0.89529147  0.43487746  0.42429002  1  -0.027584  0  -0.244038  -0.413163  0  3.974882  0
C  C158  1  0.89349725  0.68114605  0.67965887  1  -0.065561  0  -0.234568  -0.397123  0  3.982754  0
C  C159  1  0.15951762  0.65374783  0.68163554  1  -0.082561  0  -0.244914  -0.415829  0  3.99581  0
C  C160  1  0.11203933  0.56373534  0.16842465  1  -0.034547  0  -0.241788  -0.406895  0  3.983386  0
C  C161  1  0.85138323  0.57648001  0.17047973  1  -0.058694  0  -0.245184  -0.407711  0  3.956756  0
C  C162  1  0.83542731  0.31017415  0.92138116  1  -0.066764  0  -0.234819  -0.397685  0  3.974817  0
C  C163  1  0.10222522  0.32973142  0.90745847  1  -0.039524  0  -0.242694  -0.415663  0  3.991363  0
S  S164  1  0.27144156  0.88771309  0.61966839  1  3.09608  0  0.545634  1.162228  0  5.998385  0
S  S165  1  0.74858348  0.10976932  0.37831660  1  3.091144  0  0.545769  1.158324  0  6.001343  0
S  S166  1  0.49140610  0.79122997  0.84893925  1  2.986978  0  0.537595  1.149978  0  5.992941  0
S  S167  1  0.48868240  0.19787075  0.73910036  1  3.00841  0  0.539078  1.151604  0  5.991963  0
S  S168  1  0.23936642  0.11671940  0.97409003  1  3.101225  0  0.547229  1.161899  0  5.999104  0
S  S169  1  0.72216384  0.88312234  0.19394449  1  3.079677  0  0.545438  1.144758  0  6.021205  0
N  N170  1  0.51799264  0.25170985  0.50326784  1  -1.250992  0  -0.313087  -0.172995  0  3.542324  0
N  N171  1  0.51587234  0.74698994  0.49845192  1  -1.258496  0  -0.316618  -0.171188  0  3.562695  0
N  N172  1  0.48211445  0.74684159  0.07813898  1  -1.2469  0  -0.313284  -0.169811  0  3.550893  0
N  N173  1  0.48209314  0.25182579  0.08869572  1  -1.24233  0  -0.315173  -0.173599  0  3.549731  0
O  O174  1  0.51707086  0.41075653  0.58212135  1  -1.160937  0  -0.310956  -0.529784  0  2.33364  0
O  O175  1  0.50023230  0.57526425  0.58076619  1  -1.173361  0  -0.316928  -0.553389  0  2.320027  0
O  O176  1  0.34468325  0.58621811  0.49675875  1  -1.156254  0  -0.314227  -0.547009  0  2.337058  0
O  O177  1  0.34306986  0.42309855  0.50780374  1  -1.163661  0  -0.310313  -0.541208  0  2.32548  0
O  O178  1  0.56105758  0.57045962  0.42517928  1  -1.169106  0  -0.313943  -0.552463  0  2.316645  0
O  O179  1  0.53409272  0.40753274  0.42402254  1  -1.172668  0  -0.314732  -0.549427  0  2.286532  0
O  O180  1  0.70989477  0.43464297  0.50726416  1  -1.156685  0  -0.312106  -0.538099  0  2.309875  0
O  O181  1  0.71097505  0.59922288  0.51173990  1  -1.15288  0  -0.316635  -0.539281  0  2.31567  0
O  O182  1  0.47532386  0.57820306  0.00565570  1  -1.168708  0  -0.313458  -0.534042  0  2.345971  0
O  O183  1  0.51492227  0.41639795  0.00731641  1  -1.169749  0  -0.316736  -0.552092  0  2.308248  0
O  O184  1  0.30044006  0.40818204  0.07254653  1  -1.167562  0  -0.31548  -0.544637  0  2.340489  0
O  O185  1  0.29675489  0.57088394  0.08587287  1  -1.161376  0  -0.313692  -0.544458  0  2.322649  0
O  O186  1  0.44475258  0.43810139  0.16200772  1  -1.17049  0  -0.315053  -0.545185  0  2.292879  0
O  O187  1  0.49835722  0.59688467  0.16172579  1  -1.165682  0  -0.319007  -0.566937  0  2.295045  0
O  O188  1  0.66699912  0.57328077  0.07747880  1  -1.156684  0  -0.306662  -0.525576  0  2.291163  0
O  O189  1  0.66221168  0.41330653  0.09745539  1  -1.168556  0  -0.313143  -0.552499  0  2.36036  0
O  O190  1  0.17784274  0.83172360  0.58489050  1  -1.212156  0  -0.356577  -0.525587  0  2.183419  0
O  O191  1  0.20563693  0.95964240  0.64938773  1  -1.284336  0  -0.31028  -0.520046  0  2.103204  0
O  O192  1  0.34737750  0.81753398  0.64389469  1  -1.299571  0  -0.304313  -0.535067  0  2.152019  0
O  O193  1  0.64871859  0.16577220  0.34693027  1  -1.222578  0  -0.359615  -0.525319  0  2.182602  0
O  O194  1  0.80787441  0.03797885  0.34630281  1  -1.279413  0  -0.301299  -0.508092  0  2.126401  0
O  O195  1  0.81982623  0.17971583  0.40534030  1  -1.300549  0  -0.304725  -0.537654  0  2.167279  0
O  O196  1  0.36092781  0.79358898  0.88108929  1  -1.16773  0  -0.370115  -0.551608  0  2.11122  0
O  O197  1  0.48733709  0.86448313  0.81018410  1  -1.272913  0  -0.307821  -0.523331  0  2.122589  0
O  O198  1  0.58106419  0.79297968  0.88703758  1  -1.267824  0  -0.309116  -0.509124  0  2.103321  0
O  O199  1  0.36357278  0.19760287  0.70787226  1  -1.184718  0  -0.368289  -0.551264  0  2.117472  0
O  O200  1  0.47622180  0.12462035  0.77788115  1  -1.271363  0  -0.310438  -0.526835  0  2.120444  0
O  O201  1  0.58511756  0.19518111  0.70057168  1  -1.278931  0  -0.307087  -0.507067  0  2.100874  0
O  O202  1  0.14728016  0.17187548  0.01314361  1  -1.245089  0  -0.35678  -0.52668  0  2.184421  0
O  O203  1  0.17304883  0.04617871  0.94598033  1  -1.286728  0  -0.308128  -0.51726  0  2.10237  0
O  O204  1  0.31586347  0.18752416  0.94787925  1  -1.2948  0  -0.30401  -0.535001  0  2.14846  0
O  O205  1  0.62272447  0.82248084  0.22793802  1  -1.181813  0  -0.357395  -0.528893  0  2.123157  0
O  O206  1  0.77194056  0.95335925  0.22742425  1  -1.274527  0  -0.290922  -0.486119  0  2.136646  0
O  O207  1  0.79773048  0.81524064  0.16519335  1  -1.294959  0  -0.299482  -0.523703  0  2.154235  0
