# generated using pymatgen
data_MnH7C10N3O5
_symmetry_space_group_name_H-M   'P 1'
_cell_length_a   7.48654572
_cell_length_b   9.57516889
_cell_length_c   9.21517458
_cell_angle_alpha   64.92302944
_cell_angle_beta   80.17632234
_cell_angle_gamma   79.86480166
_symmetry_Int_Tables_number   1
_chemical_formula_structural   MnH7C10N3O5
_chemical_formula_sum   'Mn2 H14 C20 N6 O10'
_cell_volume   585.55850216
_cell_formula_units_Z   2
loop_
 _symmetry_equiv_pos_site_id
 _symmetry_equiv_pos_as_xyz
  1  'x, y, z'
loop_
 _atom_site_type_symbol
 _atom_site_label
 _atom_site_symmetry_multiplicity
 _atom_site_fract_x
 _atom_site_fract_y
 _atom_site_fract_z
 _atom_site_occupancy
 _atom_site_hse06_10hf_bader_charge
 _atom_site_hse06_10hf_bader_spin_density
 _atom_site_hse06_10hf_ddec_charge
 _atom_site_hse06_10hf_ddec_spin_density
 _atom_site_hse06_10hf_ddec_sum_bond_order
 _atom_site_hse06_10hf_magmom
 _atom_site_hse06_ddec_charge
 _atom_site_hse06_ddec_spin_density
 _atom_site_hse06_ddec_sum_bond_order
 _atom_site_hse06_magmom
 _atom_site_pbe_cm5_charge
 _atom_site_pbe_ddec_charge
 _atom_site_pbe_ddec_spin_density
 _atom_site_pbe_ddec_sum_bond_order
 _atom_site_pbe_magmom
Mn  Mn0  1  0.48519631  0.11032950  0.55327700  1  1.537028  4.575814  0.977941  4.681072  2.368097  4.511  1.028162  4.750863  2.303354  4.583  0.608172  0.943452  4.601469  2.416735  4.422
Mn  Mn1  1  0.98385636  0.54679029  0.10597449  1  1.500654  1.365122  0.84621  1.408813  3.173459  1.363  0.884992  1.291624  3.122552  1.255  0.677051  0.818847  1.459126  3.203543  1.408
H  H2  1  0.14685401  0.76115916  0.50554467  1  0.053036  -0.000556  0.120653  -0.000138  0.985563  0.0  0.124721  -0.000122  0.983159  0.0  0.11105  0.119177  -0.000147  0.985347  0.0
H  H3  1  0.62895080  0.50442525  0.75990623  1  0.057696  0.000304  0.128242  0.000136  0.973976  0.0  0.131938  0.000172  0.972761  0.0  0.115512  0.124415  0.000237  0.976982  0.0
H  H4  1  0.98206812  0.77112339  0.75556144  1  0.130504  -0.000835  0.100008  -0.001194  1.010332  0.0  0.104025  -0.001065  1.005355  0.0  0.122951  0.098266  -0.001074  1.011933  0.0
H  H5  1  0.47118576  0.75264302  0.76473690  1  0.152207  0.000918  0.097199  0.000428  1.008146  0.001  0.101038  0.000277  1.004771  0.0  0.121392  0.093724  0.000576  1.012195  0.001
H  H6  1  0.11704267  0.29717572  0.01367496  1  0.146569  -0.00061  0.110972  -0.000833  0.989022  0.0  0.115937  -0.000744  0.982463  0.001  0.126163  0.108515  -0.000657  0.991997  0.0
H  H7  1  0.66103374  0.00265827  0.28908813  1  0.127497  0.001035  0.10941  0.000272  0.97856  0.0  0.113982  0.000106  0.973735  0.0  0.126138  0.105613  0.000483  0.98294  0.001
H  H8  1  0.30067676  0.26831675  0.77662712  1  0.102833  0.000439  0.124847  0.00074  1.018963  0.0  0.129321  0.000669  1.015363  0.0  0.112461  0.122822  0.000792  1.019711  0.0
H  H9  1  0.83626828  0.76511940  0.26292599  1  0.132682  0.000374  0.131277  0.000209  1.020328  0.0  0.136761  0.000238  1.016411  0.0  0.114745  0.126936  0.000181  1.024071  0.0
H  H10  1  0.31488887  0.73008032  0.29792536  1  0.510791  0.000858  0.310259  0.000181  0.886537  0.001  0.31921  0.000171  0.879208  0.0  0.345109  0.304435  0.00041  0.891092  0.001
H  H11  1  0.81399812  0.30610317  0.73989615  1  0.502034  -0.000202  0.313038  -0.000522  0.882443  0.0  0.320512  -0.000408  0.876733  0.0  0.347128  0.306292  -0.000564  0.888871  0.0
H  H12  1  0.54725816  0.95410855  0.86485511  1  0.660906  0.001101  0.390752  0.000675  0.949471  0.002  0.403038  0.00043  0.931719  0.002  0.287351  0.382376  0.00088  0.961519  0.002
H  H13  1  0.04685549  0.84714571  0.95459264  1  0.661269  0.000403  0.391051  -0.000202  0.943173  0.001  0.401523  -3.1e-05  0.928127  0.001  0.295157  0.382932  -0.000234  0.954941  0.001
H  H14  1  0.72651743  0.03983758  0.78342336  1  0.652988  0.001722  0.387464  0.001074  0.94918  0.002  0.398622  0.000751  0.932978  0.002  0.288016  0.380106  0.001358  0.95979  0.003
H  H15  1  0.23449511  0.75587847  0.02716885  1  0.655585  0.001247  0.392303  0.000496  0.933906  0.002  0.401426  0.000336  0.920802  0.002  0.300409  0.385434  0.000577  0.94382  0.002
C  C16  1  0.73248744  0.31546992  0.29945313  1  1.622973  -0.004429  0.593165  -0.004941  4.172656  -0.001  0.632861  -0.003893  4.162805  -0.001  0.220457  0.56402  -0.008001  4.179908  -0.003
C  C17  1  0.22289891  0.30624239  0.30450242  1  1.657332  0.015794  0.591997  0.015448  4.180498  0.014  0.629453  0.010109  4.173652  0.01  0.220841  0.564731  0.021772  4.18672  0.019
C  C18  1  0.58857410  0.42649702  0.33474302  1  0.439775  0.007802  -0.009253  0.005555  4.044807  0.008  -0.006943  0.007369  4.053734  0.009  0.082232  -0.01149  0.001054  4.038334  0.005
C  C19  1  0.08010280  0.33284840  0.42453071  1  0.436711  -0.003598  -0.006871  -0.004215  4.011211  -0.003  -0.006548  -0.004244  4.02562  -0.003  0.088644  -0.008433  -0.001842  4.005839  -0.001
C  C20  1  0.59168696  0.69516309  0.08268638  1  1.637859  -0.005237  0.574169  -0.006333  4.214597  -0.002  0.612114  -0.002188  4.203123  0.001  0.218874  0.545245  -0.01264  4.224782  -0.005
C  C21  1  0.07698341  0.08497401  0.70378938  1  1.684167  0.007721  0.58845  0.007492  4.245171  0.007  0.62247  0.005416  4.238391  0.006  0.222993  0.564733  0.009204  4.250635  0.009
C  C22  1  0.53120260  0.58081398  0.24176250  1  0.396674  -0.021256  0.010106  -0.022272  3.979713  -0.012  0.015868  -0.020094  3.985386  -0.011  0.093061  0.007792  -0.023361  3.974811  -0.012
C  C23  1  0.02188516  0.24393817  0.58488163  1  0.416174  0.005399  0.020343  0.004084  3.925366  0.003  0.019332  0.003291  3.942765  0.002  0.101004  0.016914  0.002019  3.919226  0.002
C  C24  1  0.14706576  0.65410744  0.61471939  1  0.021157  0.005296  -0.174311  0.001379  4.002582  0.008  -0.178052  0.013868  4.015571  0.017  -0.090423  -0.169066  -0.002867  3.985387  0.003
C  C25  1  0.64178993  0.61130405  0.65173144  1  0.079366  -0.004161  -0.165822  -0.004797  3.954384  -0.002  -0.173031  -0.004147  3.974763  -0.002  -0.081904  -0.163415  -0.00682  3.946582  -0.003
C  C26  1  0.05340058  0.66218784  0.75437600  1  0.433109  -0.048393  0.072141  -0.04978  3.948484  -0.026  0.084567  -0.057009  3.954247  -0.031  0.035975  0.066875  -0.036001  3.936402  -0.018
C  C27  1  0.55214624  0.74956451  0.65571908  1  0.44531  0.00657  0.106246  0.005165  3.956293  0.005  0.113469  0.004674  3.971605  0.004  0.054018  0.098781  0.005683  3.951073  0.006
C  C28  1  0.13003825  0.39663336  0.89890190  1  0.37049  -0.051338  0.078405  -0.051683  3.932661  -0.027  0.093519  -0.056196  3.933664  -0.031  0.03163  0.071348  -0.038532  3.924281  -0.02
C  C29  1  0.65834780  0.88922898  0.38936263  1  0.469986  0.008166  0.111306  0.00624  3.93723  0.006  0.120158  0.005647  3.949818  0.005  0.052586  0.104002  0.004933  3.933073  0.005
C  C30  1  0.22966536  0.38141469  0.76529614  1  0.045528  0.006481  -0.172322  0.00192  4.001645  0.009  -0.175703  0.01442  4.012083  0.018  -0.090004  -0.167462  -0.002719  3.986218  0.004
C  C31  1  0.75397762  0.75742796  0.37503281  1  0.004697  -0.002844  -0.169607  -0.003141  3.945373  -0.002  -0.176546  -0.00285  3.963307  -0.002  -0.082441  -0.167691  -0.006817  3.93885  -0.003
C  C32  1  0.24419309  0.51248542  0.61741130  1  -0.039939  -0.086404  0.004663  -0.090114  4.079748  -0.055  0.011026  -0.08845  4.095684  -0.055  -0.016158  0.006541  -0.069333  4.062096  -0.042
C  C33  1  0.74854123  0.61446392  0.50963345  1  -0.027523  0.002356  0.047127  0.001227  4.062348  0.002  0.049459  0.002556  4.0856  0.003  0.006143  0.043006  -0.003936  4.051211  -0.001
C  C34  1  0.36270093  0.50092514  0.48140227  1  0.973615  0.001385  0.303469  0.000471  4.030569  0.01  0.319032  0.007251  4.039435  0.014  0.219475  0.2932  0.001812  4.021452  0.009
C  C35  1  0.86103166  0.47900487  0.50070454  1  0.985565  -0.00546  0.295174  -0.00604  4.021214  -0.003  0.306732  -0.00364  4.037125  -0.002  0.224602  0.285318  -0.012251  4.014687  -0.007
N  N36  1  0.48076486  0.37690373  0.48073428  1  -1.22088  0.005292  -0.412053  -0.001883  3.386336  -0.015  -0.425684  -0.001381  3.394399  -0.014  -0.331656  -0.401111  0.002909  3.381262  -0.011
N  N37  1  0.97589958  0.47576351  0.37270637  1  -1.208474  -0.007202  -0.368601  -0.007856  3.448082  -0.006  -0.384021  -0.004309  3.461182  -0.003  -0.322847  -0.359104  -0.011659  3.440493  -0.008
N  N38  1  0.38694678  0.62299049  0.33513277  1  -1.289566  -0.0204  -0.277447  -0.021876  3.633935  -0.018  -0.289505  -0.017557  3.641283  -0.014  -0.369013  -0.268089  -0.017429  3.627548  -0.014
N  N39  1  0.88260856  0.33823388  0.62774573  1  -1.281844  -0.001575  -0.269752  -0.002162  3.643882  -0.001  -0.284247  0.000488  3.658652  0.002  -0.362625  -0.263067  -0.010359  3.639584  -0.007
N  N40  1  0.04888044  0.53681306  0.89895512  1  -1.215364  -0.05874  -0.220791  -0.060725  3.614513  -0.046  -0.235682  -0.034237  3.623092  -0.023  -0.367268  -0.205361  -0.057111  3.601132  -0.045
N  N41  1  0.56207022  0.88692521  0.52815592  1  -1.283073  0.047402  -0.254011  0.031563  3.487272  0.016  -0.269234  0.028737  3.49791  0.013  -0.321698  -0.245458  0.030242  3.483958  0.015
O  O42  1  0.72828997  0.17282675  0.39056840  1  -1.197706  0.040803  -0.540321  0.02682  2.279751  0.013  -0.571291  0.025614  2.26815  0.012  -0.295808  -0.516901  0.025645  2.287409  0.012
O  O43  1  0.21942497  0.41630906  0.16098248  1  -1.14655  0.015273  -0.507051  0.008019  2.33458  0.003  -0.54737  0.008492  2.333447  0.004  -0.29848  -0.479812  0.009828  2.335385  0.004
O  O44  1  0.85870612  0.36299669  0.18169710  1  -1.163484  0.025276  -0.527985  0.017969  2.428961  0.014  -0.56966  0.016615  2.426455  0.014  -0.30412  -0.498367  0.019585  2.429829  0.014
O  O45  1  0.34215548  0.19011131  0.34036818  1  -1.216044  0.044854  -0.551034  0.030105  2.280254  0.017  -0.583331  0.027673  2.269524  0.015  -0.29963  -0.527317  0.03305  2.287477  0.019
O  O46  1  0.76145519  0.69251640  0.02857875  1  -1.173769  0.002637  -0.511694  -0.001321  2.398971  -0.006  -0.54721  -0.002754  2.393685  -0.007  -0.294414  -0.486565  0.000915  2.401455  -0.005
O  O47  1  0.24132114  0.02587390  0.69258028  1  -1.217568  0.052632  -0.550482  0.03603  2.32404  0.019  -0.580616  0.033186  2.312094  0.017  -0.302238  -0.529516  0.038442  2.332646  0.022
O  O48  1  0.46858052  0.79931716  0.00774497  1  -1.2045  -0.001434  -0.55052  -0.001995  2.184133  -0.001  -0.574998  3.1e-05  2.170847  0.001  -0.299587  -0.535155  -0.005992  2.195263  -0.005
O  O49  1  0.95432667  0.01818416  0.81476824  1  -1.213792  0.00991  -0.557424  0.006824  2.172327  0.008  -0.581389  0.005155  2.15993  0.006  -0.304935  -0.541304  0.008228  2.181026  0.009
O  O50  1  0.59365514  0.04979828  0.77498958  1  -1.324012  0.0615  -0.792534  0.044592  2.101843  0.027  -0.817085  0.040061  2.063223  0.023  -0.582301  -0.773482  0.048414  2.128045  0.03
O  O51  1  0.10063447  0.75148414  0.04312070  1  -1.280678  0.002786  -0.738501  -0.00098  2.17997  -0.007  -0.767119  -0.000973  2.150719  -0.005  -0.553791  -0.717682  0.000523  2.199735  -0.007
