# generated using pymatgen
data_AlH12C21(NO6)3
_symmetry_space_group_name_H-M   'P 1'
_cell_length_a   3.93816851
_cell_length_b   27.93702257
_cell_length_c   27.93702902
_cell_angle_alpha   120.00035506
_cell_angle_beta   90.00078336
_cell_angle_gamma   89.99921635
_symmetry_Int_Tables_number   1
_chemical_formula_structural   AlH12C21(NO6)3
_chemical_formula_sum   'Al2 H24 C42 N6 O36'
_cell_volume   2661.85081129
_cell_formula_units_Z   2
loop_
 _symmetry_equiv_pos_site_id
 _symmetry_equiv_pos_as_xyz
  1  'x, y, z'
loop_
 _atom_site_type_symbol
 _atom_site_label
 _atom_site_symmetry_multiplicity
 _atom_site_fract_x
 _atom_site_fract_y
 _atom_site_fract_z
 _atom_site_occupancy
 _atom_site_pbe_bader_charge
 _atom_site_pbe_bader_spin_density
 _atom_site_pbe_cm5_charge
 _atom_site_pbe_ddec_charge
 _atom_site_pbe_ddec_spin_density
 _atom_site_pbe_ddec_sum_bond_order
 _atom_site_pbe_magmom
Al  Al0  1  0.98422902  0.49999787  0.49999871  1  2.50166  0  0.425643  1.59308  0  2.55426  0
Al  Al1  1  0.98425711  0.16666474  0.83333025  1  2.501755  0  0.425995  1.593455  0  2.552644  0
H  H2  1  0.83406822  0.28990242  0.85103176  1  0.636281  0  0.317132  0.355107  0  0.945662  0
H  H3  1  0.76836653  0.39772010  0.76920486  1  0.605417  0  0.328014  0.345177  0  0.913668  0
H  H4  1  0.13849827  0.16486612  0.71620005  1  0.643536  0  0.317867  0.356742  0  0.941765  0
H  H5  1  0.31291080  0.25759525  0.62071047  1  0.623796  0  0.307271  0.303974  0  1.022696  0
H  H6  1  0.76849763  0.26896197  0.56410248  1  0.606197  0  0.327911  0.345136  0  0.9136  0
H  H7  1  0.83414888  0.37680374  0.48230232  1  0.636762  0  0.317133  0.355158  0  0.9456  0
H  H8  1  0.31279378  0.40911529  0.71261708  1  0.622735  0  0.307355  0.304142  0  1.022231  0
H  H9  1  0.13837157  0.50180920  0.61709470  1  0.643065  0  0.317828  0.356408  0  0.942129  0
H  H10  1  0.83407736  0.06112251  0.71009601  1  0.640456  0  0.317022  0.354719  0  0.946413  0
H  H11  1  0.76836247  0.87147461  0.60228724  1  0.60181  0  0.327962  0.345238  0  0.913648  0
H  H12  1  0.13851657  0.05133937  0.83513752  1  0.641993  0  0.317855  0.356603  0  0.941963  0
H  H13  1  0.31290121  0.86311906  0.74241697  1  0.631049  0  0.307219  0.303869  0  1.022963  0
H  H14  1  0.76844553  0.79513323  0.73104818  1  0.60321  0  0.327903  0.34511  0  0.91362  0
H  H15  1  0.83411943  0.60549242  0.62319686  1  0.641414  0  0.31714  0.35525  0  0.945716  0
H  H16  1  0.31277512  0.80350486  0.59089735  1  0.631393  0  0.307333  0.304115  0  1.022474  0
H  H17  1  0.13835073  0.61528827  0.49819345  1  0.641265  0  0.317885  0.356581  0  0.942081  0
H  H18  1  0.83409143  0.14896811  0.93886989  1  0.633599  0  0.317159  0.355191  0  0.94594  0
H  H19  1  0.76838037  0.23079901  0.12851607  1  0.613655  0  0.327986  0.345267  0  0.9137  0
H  H20  1  0.13849584  0.28379301  0.94865817  1  0.644404  0  0.317882  0.356627  0  0.941873  0
H  H21  1  0.31287539  0.37928809  0.13687849  1  0.625219  0  0.307197  0.303842  0  1.022771  0
H  H22  1  0.76842014  0.43590655  0.20486308  1  0.613864  0  0.327963  0.345174  0  0.913655  0
H  H23  1  0.83410536  0.51769719  0.39450434  1  0.633016  0  0.317127  0.355211  0  0.945618  0
H  H24  1  0.31279348  0.28738127  0.19649176  1  0.625149  0  0.307306  0.304121  0  1.022345  0
H  H25  1  0.13836638  0.38289952  0.38470958  1  0.643585  0  0.317881  0.356557  0  0.942157  0
C  C26  1  0.48429139  0.46110625  0.41339957  1  1.372063  0  0.256693  0.647002  0  4.048706  0
C  C27  1  0.48431025  0.45229044  0.53888981  1  1.439853  0  0.256624  0.646832  0  4.04894  0
C  C28  1  0.48429178  0.58659657  0.54770851  1  1.450452  0  0.256627  0.647016  0  4.048793  0
C  C29  1  0.48432023  0.21438685  0.79443305  1  1.440742  0  0.256763  0.646923  0  4.048567  0
C  C30  1  0.48433108  0.08004413  0.78561084  1  1.450325  0  0.256721  0.646774  0  4.048433  0
C  C31  1  0.48433147  0.20556221  0.91995002  1  1.376644  0  0.256757  0.646997  0  4.048603  0
C  C32  1  0.48686436  0.24726530  0.76763403  1  -0.000103  0  -0.045498  -0.311519  0  4.042063  0
C  C33  1  0.31874160  0.22718415  0.71566776  1  0.641007  0  0.08228  0.211823  0  4.057007  0
C  C34  1  0.35048975  0.25647799  0.68725736  1  0.578824  0  0.077992  0.148477  0  4.031672  0
C  C35  1  0.50592884  0.30946756  0.71457241  1  0.456466  0  0.07336  -0.032609  0  4.127344  0
C  C36  1  0.65489038  0.33120956  0.76771136  1  0.539642  0  0.074343  0.13544  0  4.069261  0
C  C37  1  0.66412828  0.29896308  0.79293771  1  0.601111  0  0.080347  0.211516  0  4.063316  0
C  C38  1  0.65495709  0.33548782  0.56561718  1  0.597397  0  0.074264  0.135391  0  4.069015  0
C  C39  1  0.50594764  0.35722727  0.61875153  1  0.400865  0  0.073589  -0.032239  0  4.127045  0
C  C40  1  0.35044269  0.41020913  0.64605638  1  0.579033  0  0.077702  0.148234  0  4.031499  0
C  C41  1  0.31864861  0.43950173  0.61764506  1  0.640246  0  0.08238  0.211928  0  4.056605  0
C  C42  1  0.48685986  0.41942067  0.56568802  1  -0.001979  0  -0.045317  -0.311481  0  4.042212  0
C  C43  1  0.66422272  0.36772968  0.54038829  1  0.602665  0  0.080565  0.211777  0  4.063018  0
C  C44  1  0.48688935  0.02036697  0.75273720  1  0.019587  0  -0.045574  -0.311655  0  4.04209  0
C  C45  1  0.31875235  0.98848538  0.77282257  1  0.559869  0  0.082293  0.211975  0  4.057252  0
C  C46  1  0.35049685  0.93078213  0.74353112  1  0.651073  0  0.077955  0.148426  0  4.03186  0
C  C47  1  0.50593333  0.90510394  0.69054125  1  0.417432  0  0.073364  -0.03281  0  4.127487  0
C  C48  1  0.65489862  0.93649478  0.66879645  1  0.575036  0  0.074356  0.135595  0  4.069425  0
C  C49  1  0.66415048  0.99397025  0.70104111  1  0.602406  0  0.080431  0.211716  0  4.06319  0
C  C50  1  0.65490538  0.73012338  0.66452005  1  0.57691  0  0.074161  0.135352  0  4.068814  0
C  C51  1  0.50589966  0.76152256  0.64278195  1  0.417387  0  0.073565  -0.032344  0  4.127142  0
C  C52  1  0.35040481  0.73584839  0.58980023  1  0.652304  0  0.077739  0.148375  0  4.031353  0
C  C53  1  0.31861724  0.67814285  0.56050391  1  0.559696  0  0.082488  0.212168  0  4.056535  0
C  C54  1  0.48681964  0.64626489  0.58058240  1  0.018129  0  -0.045384  -0.311768  0  4.042268  0
C  C55  1  0.66417227  0.67265457  0.63227589  1  0.601824  0  0.080657  0.212026  0  4.062548  0
C  C56  1  0.48686715  0.23236331  0.97962673  1  0.106274  0  -0.045536  -0.311675  0  4.042273  0
C  C57  1  0.31873206  0.28432990  0.01151140  1  0.586776  0  0.082348  0.211963  0  4.057306  0
C  C58  1  0.35047658  0.31274140  0.06921547  1  0.592436  0  0.077994  0.148454  0  4.031993  0
C  C59  1  0.50591929  0.28542887  0.09489144  1  0.421646  0  0.073461  -0.032413  0  4.127084  0
C  C60  1  0.65489818  0.23229060  0.06349699  1  0.662907  0  0.074261  0.135324  0  4.069308  0
C  C61  1  0.66414465  0.20706175  0.00602369  1  0.539402  0  0.080482  0.211696  0  4.063149  0
C  C62  1  0.65490342  0.43438551  0.26987224  1  0.6275  0  0.074303  0.135785  0  4.068901  0
C  C63  1  0.50590877  0.38125125  0.23847521  1  0.458188  0  0.073635  -0.03235  0  4.127123  0
C  C64  1  0.35042268  0.35394290  0.26414914  1  0.591293  0  0.077696  0.148353  0  4.031478  0
C  C65  1  0.31863767  0.38235269  0.32185348  1  0.585245  0  0.082312  0.211814  0  4.056579  0
C  C66  1  0.48683676  0.43430958  0.35373059  1  0.11023  0  -0.045486  -0.311687  0  4.042394  0
C  C67  1  0.66417316  0.45961210  0.32734207  1  0.536302  0  0.080523  0.211672  0  4.062948  0
N  N68  1  0.51620260  0.34465440  0.69337140  1  -0.573755  0  -0.174895  -0.145987  0  3.424943  0
N  N69  1  0.51622150  0.32203828  0.63995826  1  -0.648735  0  -0.17486  -0.145886  0  3.425018  0
N  N70  1  0.51619035  0.84871480  0.65535679  1  -0.631647  0  -0.174852  -0.145823  0  3.424746  0
N  N71  1  0.51619281  0.81791797  0.67797230  1  -0.601139  0  -0.174897  -0.145957  0  3.424844  0
N  N72  1  0.51619471  0.30663236  0.15128144  1  -0.647937  0  -0.174896  -0.146039  0  3.425066  0
N  N73  1  0.51618859  0.36004444  0.18207778  1  -0.592453  0  -0.174908  -0.145946  0  3.425094  0
O  O74  1  0.71493367  0.55832059  0.55609036  1  -1.270458  0  -0.245687  -0.615658  0  2.402842  0
O  O75  1  0.71493121  0.49776635  0.44167657  1  -1.267366  0  -0.245682  -0.615597  0  2.402713  0
O  O76  1  0.71494409  0.44390781  0.50223090  1  -1.269781  0  -0.245675  -0.615554  0  2.402938  0
O  O77  1  0.25201571  0.56191192  0.51016717  1  -1.27215  0  -0.24591  -0.615687  0  2.396478  0
O  O78  1  0.25202855  0.48983187  0.55174486  1  -1.264694  0  -0.245865  -0.61557  0  2.396434  0
O  O79  1  0.25202271  0.44825184  0.43808564  1  -1.266487  0  -0.24582  -0.615661  0  2.396526  0
O  O80  1  0.71497207  0.16890601  0.89167340  1  -1.268091  0  -0.245792  -0.615763  0  2.402618  0
O  O81  1  0.71496173  0.22276574  0.83108926  1  -1.268987  0  -0.24576  -0.615731  0  2.402727  0
O  O82  1  0.71496961  0.10832109  0.77723017  1  -1.270521  0  -0.24579  -0.615639  0  2.402665  0
O  O83  1  0.25205172  0.21841539  0.89526374  1  -1.269159  0  -0.24587  -0.615646  0  2.395514  0
O  O84  1  0.25205619  0.10473137  0.82314959  1  -1.272154  0  -0.245835  -0.615457  0  2.395519  0
O  O85  1  0.25204842  0.17684758  0.78157871  1  -1.265812  0  -0.245898  -0.615599  0  2.395615  0
O  O86  1  0.83114882  0.31952807  0.84150714  1  -1.118868  0  -0.338348  -0.38811  0  2.267886  0
O  O87  1  0.80728747  0.38151454  0.79282498  1  -1.092966  0  -0.333578  -0.376366  0  2.278088  0
O  O88  1  0.14848838  0.17877222  0.68992466  1  -1.131059  0  -0.337223  -0.387516  0  2.271937  0
O  O89  1  0.21617721  0.23505576  0.63594848  1  -1.111838  0  -0.336144  -0.372929  0  2.297911  0
O  O90  1  0.80745300  0.28518631  0.54049794  1  -1.093733  0  -0.333565  -0.376496  0  2.278201  0
O  O91  1  0.83129910  0.34717065  0.49182363  1  -1.119669  0  -0.338362  -0.388208  0  2.2679  0
O  O92  1  0.21601355  0.43163351  0.69736167  1  -1.110006  0  -0.33654  -0.373436  0  2.297662  0
O  O93  1  0.14831712  0.48790649  0.64337888  1  -1.130849  0  -0.337051  -0.387088  0  2.272035  0
O  O94  1  0.83117036  0.02196939  0.68047121  1  -1.125721  0  -0.338184  -0.387822  0  2.268555  0
O  O95  1  0.80730080  0.91129984  0.61849118  1  -1.089497  0  -0.333497  -0.376445  0  2.277922  0
O  O96  1  0.14849957  0.01115849  0.82123361  1  -1.126846  0  -0.337156  -0.387397  0  2.272262  0
O  O97  1  0.21618296  0.90089728  0.76495545  1  -1.123894  0  -0.336219  -0.372977  0  2.298145  0
O  O98  1  0.80738857  0.75530415  0.71482231  1  -1.091318  0  -0.333463  -0.376406  0  2.278201  0
O  O99  1  0.83124455  0.64464467  0.65283112  1  -1.126804  0  -0.338584  -0.388553  0  2.267836  0
O  O100  1  0.21598972  0.76573207  0.56837849  1  -1.124048  0  -0.336395  -0.373324  0  2.297734  0
O  O101  1  0.14829323  0.65547576  0.51209864  1  -1.12643  0  -0.33713  -0.387342  0  2.272049  0
O  O102  1  0.83117773  0.15849243  0.97802029  1  -1.125814  0  -0.338398  -0.388198  0  2.268129  0
O  O103  1  0.80730636  0.20717838  0.08869081  1  -1.105008  0  -0.333549  -0.376476  0  2.278095  0
O  O104  1  0.14847319  0.31006987  0.98884043  1  -1.130303  0  -0.337213  -0.387388  0  2.272095  0
O  O105  1  0.21615681  0.36404818  0.09909959  1  -1.118054  0  -0.336167  -0.372919  0  2.298047  0
O  O106  1  0.80738062  0.45950993  0.24469270  1  -1.105057  0  -0.33364  -0.376671  0  2.278254  0
O  O107  1  0.83124480  0.50817762  0.35534918  1  -1.124868  0  -0.338399  -0.38829  0  2.267726  0
O  O108  1  0.21600586  0.30263547  0.23426567  1  -1.117504  0  -0.336406  -0.373364  0  2.297783  0
O  O109  1  0.14831707  0.35661645  0.34452280  1  -1.129909  0  -0.337101  -0.387202  0  2.271928  0
