# generated using pymatgen
data_AgH10C12N3O4
_symmetry_space_group_name_H-M   'P 1'
_cell_length_a   8.46093696
_cell_length_b   10.42523408
_cell_length_c   13.86908986
_cell_angle_alpha   90.00010090
_cell_angle_beta   89.99978800
_cell_angle_gamma   100.50559353
_symmetry_Int_Tables_number   1
_chemical_formula_structural   AgH10C12N3O4
_chemical_formula_sum   'Ag4 H40 C48 N12 O16'
_cell_volume   1202.84730222
_cell_formula_units_Z   4
loop_
 _symmetry_equiv_pos_site_id
 _symmetry_equiv_pos_as_xyz
  1  'x, y, z'
loop_
 _atom_site_type_symbol
 _atom_site_label
 _atom_site_symmetry_multiplicity
 _atom_site_fract_x
 _atom_site_fract_y
 _atom_site_fract_z
 _atom_site_occupancy
 _atom_site_hle17_bader_spin_density
 _atom_site_hle17_ddec_charge
 _atom_site_hle17_ddec_spin_density
 _atom_site_hle17_ddec_sum_bond_order
 _atom_site_hle17_magmom
 _atom_site_hse06_10hf_bader_spin_density
 _atom_site_hse06_10hf_ddec_charge
 _atom_site_hse06_10hf_ddec_spin_density
 _atom_site_hse06_10hf_ddec_sum_bond_order
 _atom_site_hse06_10hf_magmom
 _atom_site_hse06_bader_spin_density
 _atom_site_hse06_ddec_charge
 _atom_site_hse06_ddec_spin_density
 _atom_site_hse06_ddec_sum_bond_order
 _atom_site_hse06_magmom
 _atom_site_pbe_bader_spin_density
 _atom_site_pbe_cm5_charge
 _atom_site_pbe_ddec_charge
 _atom_site_pbe_ddec_spin_density
 _atom_site_pbe_ddec_sum_bond_order
 _atom_site_pbe_magmom
Ag  Ag0  1  0.98002122  0.49973261  0.76606823  1  0  0.558709  0  1.339648  0  0  0.417478  0  1.753559  0  0  0.449666  0  1.712319  0  0  0.452315  0.394872  0  1.78173  0
Ag  Ag1  1  0.51997508  0.00026785  0.26606950  1  0  0.558737  0  1.339614  0  0  0.417505  0  1.753526  0  0  0.449693  0  1.712286  0  0  0.452316  0.394901  0  1.781699  0
Ag  Ag2  1  0.01997868  0.50026750  0.23393058  1  0  0.558752  0  1.339603  0  0  0.417524  0  1.753502  0  0  0.449714  0  1.71226  0  0  0.45232  0.394919  0  1.781674  0
Ag  Ag3  1  0.48002718  0.99973224  0.73393075  1  0  0.558727  0  1.339605  0  0  0.417498  0  1.753495  0  0  0.449685  0  1.712258  0  0  0.4523  0.394892  0  1.781668  0
H  H4  1  0.16421081  0.82550432  0.48418786  1  0  0.106572  0  0.97639  0  0  0.111249  0  1.048649  0  0  0.11496  0  1.046485  0  0  0.10253  0.108824  0  1.049599  0
H  H5  1  0.33579151  0.67449680  0.98418433  1  0  0.106685  0  0.976264  0  0  0.111324  0  1.048566  0  0  0.115058  0  1.046375  0  0  0.102569  0.108899  0  1.049513  0
H  H6  1  0.83579286  0.17449673  0.51581383  1  0  0.106511  0  0.976313  0  0  0.111156  0  1.048614  0  0  0.114902  0  1.046423  0  0  0.10249  0.108731  0  1.049563  0
H  H7  1  0.66420768  0.32550527  0.01581520  1  0  0.106599  0  0.976279  0  0  0.11125  0  1.048584  0  0  0.114968  0  1.046418  0  0  0.102524  0.108825  0  1.049532  0
H  H8  1  0.30189713  0.21762429  0.58873778  1  0  0.101819  0  0.972416  0  0  0.105919  0  1.045686  0  0  0.110515  0  1.041425  0  0  0.100566  0.102792  0  1.048351  0
H  H9  1  0.19810562  0.28237733  0.08873542  1  0  0.101775  0  0.972398  0  0  0.105877  0  1.045668  0  0  0.110473  0  1.041407  0  0  0.100543  0.102751  0  1.048332  0
H  H10  1  0.69811126  0.78237671  0.41126247  1  0  0.101788  0  0.972409  0  0  0.105891  0  1.045671  0  0  0.110487  0  1.041412  0  0  0.100544  0.102764  0  1.048336  0
H  H11  1  0.80189334  0.71762377  0.91126195  1  0  0.101791  0  0.972392  0  0  0.105891  0  1.045666  0  0  0.110487  0  1.041405  0  0  0.100547  0.102765  0  1.048329  0
H  H12  1  0.92361566  0.95388531  0.73168205  1  0  0.129235  0  0.949139  0  0  0.1386  0  1.010682  0  0  0.142705  0  1.007206  0  0  0.109356  0.135665  0  1.013338  0
H  H13  1  0.57638194  0.54611596  0.23168253  1  0  0.129233  0  0.949126  0  0  0.138542  0  1.010726  0  0  0.142648  0  1.00725  0  0  0.109353  0.135608  0  1.013381  0
H  H14  1  0.07638848  0.04611769  0.26831676  1  0  0.129335  0  0.949217  0  0  0.138703  0  1.010742  0  0  0.142809  0  1.007265  0  0  0.10942  0.135769  0  1.013398  0
H  H15  1  0.42361844  0.45388121  0.76831772  1  0  0.1292  0  0.949216  0  0  0.138556  0  1.01077  0  0  0.14266  0  1.007296  0  0  0.109343  0.135622  0  1.013424  0
H  H16  1  0.05236049  0.62736351  0.53878769  1  0  0.063459  0  0.955083  0  0  0.07934  0  1.019156  0  0  0.079088  0  1.020085  0  0  0.10203  0.07943  0  1.018714  0
H  H17  1  0.44764105  0.87263796  0.03878560  1  0  0.063534  0  0.955015  0  0  0.07935  0  1.019175  0  0  0.079097  0  1.020108  0  0  0.102037  0.079443  0  1.018728  0
H  H18  1  0.94763847  0.37263760  0.46121400  1  0  0.063499  0  0.955009  0  0  0.079349  0  1.019124  0  0  0.079095  0  1.020056  0  0  0.102035  0.07944  0  1.018682  0
H  H19  1  0.55235861  0.12736118  0.96121610  1  0  0.063533  0  0.954972  0  0  0.079344  0  1.019135  0  0  0.079091  0  1.02007  0  0  0.102044  0.079439  0  1.018687  0
H  H20  1  0.90129381  0.69121793  0.47633926  1  0  0.068511  0  0.939571  0  0  0.086013  0  1.002224  0  0  0.085076  0  1.003879  0  0  0.101582  0.086567  0  1.001118  0
H  H21  1  0.59871018  0.80878167  0.97633645  1  0  0.068447  0  0.939638  0  0  0.085986  0  1.002246  0  0  0.085049  0  1.0039  0  0  0.101549  0.086541  0  1.00114  0
H  H22  1  0.09870491  0.30878220  0.52366171  1  0  0.068474  0  0.939635  0  0  0.085991  0  1.002264  0  0  0.085053  0  1.003919  0  0  0.101565  0.086546  0  1.001159  0
H  H23  1  0.40129043  0.19121648  0.02366380  1  0  0.068472  0  0.939633  0  0  0.085989  0  1.002263  0  0  0.085053  0  1.003917  0  0  0.101559  0.086545  0  1.001158  0
H  H24  1  0.65468363  0.48838517  0.43750053  1  0  0.128907  0  0.944858  0  0  0.141001  0  1.001747  0  0  0.143874  0  0.999943  0  0  0.126694  0.138837  0  1.003245  0
H  H25  1  0.84531783  0.01161645  0.93749892  1  0  0.12893  0  0.945007  0  0  0.141078  0  1.001811  0  0  0.143949  0  1.000009  0  0  0.12674  0.138914  0  1.003305  0
H  H26  1  0.34531485  0.51161887  0.56250117  1  0  0.128897  0  0.944938  0  0  0.141019  0  1.001794  0  0  0.14389  0  0.99999  0  0  0.126709  0.138855  0  1.003289  0
H  H27  1  0.15468184  0.98838269  0.06250205  1  0  0.128924  0  0.944992  0  0  0.141055  0  1.001823  0  0  0.143925  0  1.000022  0  0  0.126737  0.138891  0  1.003315  0
H  H28  1  0.68922812  0.26728062  0.69005476  1  0  0.095293  0  0.941257  0  0  0.104249  0  1.008619  0  0  0.10754  0  1.00346  0  0  0.134323  0.101797  0  1.012301  0
H  H29  1  0.81076884  0.23272069  0.19005352  1  0  0.095281  0  0.941296  0  0  0.104254  0  1.008621  0  0  0.107542  0  1.003466  0  0  0.134319  0.101804  0  1.012302  0
H  H30  1  0.31077508  0.73271848  0.30994404  1  0  0.095254  0  0.941258  0  0  0.104214  0  1.008618  0  0  0.107505  0  1.003458  0  0  0.134314  0.101763  0  1.012298  0
H  H31  1  0.18922847  0.76727847  0.80994673  1  0  0.095262  0  0.941296  0  0  0.104235  0  1.008617  0  0  0.107523  0  1.00346  0  0  0.134322  0.101784  0  1.012297  0
H  H32  1  0.83736788  0.75025433  0.66108762  1  0  0.266673  0  0.936531  0  0  0.256363  0  0.995702  0  0  0.26086  0  0.993744  0  0  0.298343  0.253155  0  0.997143  0
H  H33  1  0.66263224  0.74974584  0.16108673  1  0  0.266712  0  0.936493  0  0  0.256399  0  0.995656  0  0  0.260896  0  0.993696  0  0  0.29835  0.253191  0  0.997098  0
H  H34  1  0.16263320  0.24975066  0.33891407  1  0  0.266671  0  0.936541  0  0  0.256377  0  0.995671  0  0  0.260875  0  0.993711  0  0  0.29835  0.253169  0  0.997112  0
H  H35  1  0.33736814  0.25025134  0.83891496  1  0  0.266716  0  0.936516  0  0  0.256411  0  0.995648  0  0  0.260909  0  0.993688  0  0  0.298372  0.253203  0  0.99709  0
H  H36  1  0.55140198  0.27427764  0.52509097  1  0  0.314465  0  0.921511  0  0  0.29673  0  0.979087  0  0  0.305193  0  0.972849  0  0  0.312013  0.29072  0  0.98355  0
H  H37  1  0.94859474  0.22572344  0.02509011  1  0  0.314451  0  0.921534  0  0  0.296718  0  0.979101  0  0  0.305179  0  0.972866  0  0  0.312004  0.290712  0  0.983564  0
H  H38  1  0.44860051  0.72572342  0.47490856  1  0  0.314476  0  0.921466  0  0  0.296742  0  0.97904  0  0  0.305205  0  0.972802  0  0  0.312016  0.290745  0  0.983506  0
H  H39  1  0.05140163  0.77427671  0.97491014  1  0  0.314445  0  0.921522  0  0  0.296716  0  0.979089  0  0  0.305179  0  0.972853  0  0  0.312007  0.290717  0  0.983556  0
H  H40  1  0.00072287  0.25076304  0.85005883  1  0  0.393157  0  0.902935  0  0  0.359249  0  0.98956  0  0  0.372797  0  0.973963  0  0  0.294716  0.349812  0  1.000257  0
H  H41  1  0.49927321  0.24923707  0.35005789  1  0  0.393164  0  0.902821  0  0  0.359258  0  0.989453  0  0  0.372806  0  0.973856  0  0  0.294717  0.349821  0  1.00015  0
H  H42  1  0.99927797  0.74923608  0.14994070  1  0  0.393128  0  0.902988  0  0  0.359212  0  0.989625  0  0  0.372763  0  0.974027  0  0  0.294699  0.349774  0  1.000323  0
H  H43  1  0.50072528  0.75076208  0.64994019  1  0  0.393162  0  0.902902  0  0  0.359257  0  0.989527  0  0  0.372806  0  0.97393  0  0  0.294736  0.34982  0  1.000223  0
C  C44  1  0.03463862  0.87151575  0.61153382  1  0  0.240958  0  3.82928  0  0  0.241919  0  4.076872  0  0  0.24875  0  4.098722  0  0  0.096891  0.236865  0  4.062424  0
C  C45  1  0.46535803  0.62848196  0.11152991  1  0  0.240786  0  3.829266  0  0  0.241866  0  4.076662  0  0  0.248693  0  4.098516  0  0  0.096785  0.23681  0  4.062219  0
C  C46  1  0.96536505  0.12848530  0.38846571  1  0  0.240945  0  3.829319  0  0  0.241901  0  4.076922  0  0  0.248731  0  4.098779  0  0  0.096884  0.236842  0  4.062482  0
C  C47  1  0.53463810  0.37151722  0.88846817  1  0  0.241002  0  3.82912  0  0  0.241994  0  4.076657  0  0  0.248823  0  4.098507  0  0  0.096832  0.236932  0  4.06222  0
C  C48  1  0.14964818  0.89872763  0.53749856  1  0  -0.153161  0  3.653408  0  0  -0.186555  0  3.905243  0  0  -0.188062  0  3.923948  0  0  -0.092793  -0.184413  0  3.89186  0
C  C49  1  0.35034795  0.60127096  0.03749633  1  0  -0.153129  0  3.653287  0  0  -0.18654  0  3.905057  0  0  -0.188071  0  3.923738  0  0  -0.092724  -0.184395  0  3.891675  0
C  C50  1  0.85035408  0.10127245  0.46250025  1  0  -0.153038  0  3.653186  0  0  -0.186384  0  3.905029  0  0  -0.18793  0  3.923699  0  0  -0.092726  -0.18424  0  3.891648  0
C  C51  1  0.64964818  0.39872822  0.96250248  1  0  -0.153073  0  3.653083  0  0  -0.186471  0  3.904942  0  0  -0.187992  0  3.923624  0  0  -0.092718  -0.184329  0  3.891565  0
C  C52  1  0.24562191  0.02262422  0.52881886  1  0  -0.057727  0  3.809317  0  0  -0.034391  0  4.048152  0  0  -0.040754  0  4.069386  0  0  -0.025545  -0.030535  0  4.033609  0
C  C53  1  0.25437788  0.47737343  0.02881734  1  0  -0.057782  0  3.809538  0  0  -0.034437  0  4.048376  0  0  -0.040769  0  4.069573  0  0  -0.025513  -0.030581  0  4.033831  0
C  C54  1  0.75438247  0.97737486  0.47118211  1  0  -0.057718  0  3.809416  0  0  -0.034414  0  4.048277  0  0  -0.040748  0  4.06948  0  0  -0.025532  -0.030555  0  4.033729  0
C  C55  1  0.74561849  0.52262672  0.97118363  1  0  -0.05777  0  3.809436  0  0  -0.034443  0  4.048299  0  0  -0.040774  0  4.069491  0  0  -0.025483  -0.030585  0  4.033754  0
C  C56  1  0.22884005  0.12074700  0.59426088  1  0  -0.132784  0  3.78574  0  0  -0.173029  0  4.050872  0  0  -0.171288  0  4.066824  0  0  -0.10423  -0.173134  0  4.039362  0
C  C57  1  0.27115677  0.37925470  0.09426207  1  0  -0.132684  0  3.785854  0  0  -0.17292  0  4.050962  0  0  -0.171185  0  4.066901  0  0  -0.104239  -0.173028  0  4.039457  0
C  C58  1  0.77116268  0.87925504  0.40573793  1  0  -0.132703  0  3.785774  0  0  -0.172941  0  4.05089  0  0  -0.171209  0  4.066834  0  0  -0.104198  -0.173048  0  4.039381  0
C  C59  1  0.72884054  0.62074447  0.90573673  1  0  -0.132661  0  3.785824  0  0  -0.172926  0  4.050949  0  0  -0.171192  0  4.066892  0  0  -0.104225  -0.17303  0  4.03943  0
C  C60  1  0.11142482  0.09528037  0.66659667  1  0  -0.075045  0  3.848074  0  0  -0.051612  0  4.087508  0  0  -0.059646  0  4.110899  0  0  -0.028724  -0.046532  0  4.071946  0
C  C61  1  0.38857230  0.40471947  0.16659259  1  0  -0.075109  0  3.848152  0  0  -0.051679  0  4.087612  0  0  -0.059716  0  4.111006  0  0  -0.028708  -0.046599  0  4.072052  0
C  C62  1  0.88857909  0.90472165  0.33340286  1  0  -0.075175  0  3.84813  0  0  -0.051725  0  4.087568  0  0  -0.059762  0  4.110964  0  0  -0.028746  -0.046646  0  4.072009  0
C  C63  1  0.61142335  0.59527776  0.83340406  1  0  -0.075194  0  3.848334  0  0  -0.051699  0  4.087693  0  0  -0.059738  0  4.11109  0  0  -0.02872  -0.046618  0  4.072129  0
C  C64  1  0.01538574  0.97237336  0.67586689  1  0  -0.145001  0  3.647619  0  0  -0.178599  0  3.8983  0  0  -0.18016  0  3.917319  0  0  -0.086767  -0.178193  0  3.886399  0
C  C65  1  0.48461338  0.52762638  0.17586498  1  0  -0.144934  0  3.647621  0  0  -0.178484  0  3.8982  0  0  -0.180043  0  3.917217  0  0  -0.08674  -0.178079  0  3.886303  0
C  C66  1  0.98462053  0.02762864  0.32413336  1  0  -0.14505  0  3.647691  0  0  -0.178668  0  3.898374  0  0  -0.180226  0  3.917391  0  0  -0.086809  -0.17826  0  3.886477  0
C  C67  1  0.51538251  0.47237182  0.82413455  1  0  -0.145003  0  3.647798  0  0  -0.178621  0  3.898438  0  0  -0.18018  0  3.917457  0  0  -0.086791  -0.178215  0  3.886541  0
C  C68  1  0.93205021  0.65282830  0.54672017  1  0  -0.000749  0  3.741177  0  0  -0.062266  0  3.996757  0  0  -0.057333  0  4.008602  0  0  -0.059324  -0.065522  0  3.988636  0
C  C69  1  0.56795220  0.84716875  0.04672035  1  0  -0.000852  0  3.741222  0  0  -0.062309  0  3.996723  0  0  -0.057381  0  4.008576  0  0  -0.059347  -0.065575  0  3.988616  0
C  C70  1  0.06795087  0.34717180  0.45328008  1  0  -0.000891  0  3.741268  0  0  -0.06237  0  3.996793  0  0  -0.057441  0  4.008652  0  0  -0.059369  -0.065635  0  3.988686  0
C  C71  1  0.43204817  0.15282843  0.95328206  1  0  -0.000844  0  3.741101  0  0  -0.062312  0  3.996654  0  0  -0.057373  0  4.008479  0  0  -0.059354  -0.065584  0  3.988557  0
C  C72  1  0.81494916  0.53104955  0.56729115  1  0  0.129097  0  3.773089  0  0  0.131702  0  4.027496  0  0  0.134301  0  4.052099  0  0  0.073927  0.129847  0  4.010683  0
C  C73  1  0.68505408  0.96895142  0.06729050  1  0  0.129193  0  3.772804  0  0  0.131709  0  4.027317  0  0  0.134308  0  4.051919  0  0  0.073946  0.129859  0  4.010505  0
C  C74  1  0.18505098  0.46895153  0.43271054  1  0  0.129152  0  3.772998  0  0  0.13174  0  4.027425  0  0  0.134337  0  4.052025  0  0  0.073981  0.129889  0  4.010614  0
C  C75  1  0.31494676  0.03104771  0.93271191  1  0  0.12921  0  3.772865  0  0  0.131753  0  4.027342  0  0  0.134352  0  4.051944  0  0  0.07398  0.129901  0  4.010532  0
C  C76  1  0.69595957  0.46528055  0.50833424  1  0  -0.060889  0  3.648191  0  0  -0.10461  0  3.905894  0  0  -0.103626  0  3.924156  0  0  0.002918  -0.105233  0  3.893519  0
C  C77  1  0.80404503  0.03471847  0.00833419  1  0  -0.060979  0  3.648274  0  0  -0.104713  0  3.906002  0  0  -0.103729  0  3.924261  0  0  0.002873  -0.105333  0  3.893627  0
C  C78  1  0.30404151  0.53471955  0.49166601  1  0  -0.060897  0  3.648252  0  0  -0.104645  0  3.905973  0  0  -0.103657  0  3.924234  0  0  0.002899  -0.105261  0  3.8936  0
C  C79  1  0.19595440  0.96527970  0.99166678  1  0  -0.060958  0  3.648255  0  0  -0.104685  0  3.905993  0  0  -0.103698  0  3.924252  0  0  0.002881  -0.105303  0  3.893617  0
C  C80  1  0.71275634  0.34757443  0.63936293  1  0  0.221382  0  3.667668  0  0  0.163406  0  3.931653  0  0  0.177326  0  3.945752  0  0  0.145103  0.15431  0  3.921889  0
C  C81  1  0.78724327  0.15242678  0.13936163  1  0  0.22137  0  3.6677  0  0  0.163399  0  3.931674  0  0  0.177319  0  3.94577  0  0  0.145101  0.154303  0  3.921916  0
C  C82  1  0.28724474  0.65242567  0.36063732  1  0  0.22156  0  3.667584  0  0  0.16359  0  3.931564  0  0  0.177508  0  3.945663  0  0  0.145185  0.154499  0  3.921809  0
C  C83  1  0.21275522  0.84757237  0.86063862  1  0  0.221468  0  3.667661  0  0  0.163506  0  3.931633  0  0  0.177426  0  3.945731  0  0  0.145132  0.154411  0  3.921874  0
C  C84  1  0.36137588  0.05162555  0.44675496  1  0  0.66289  0  3.857196  0  0  0.609308  0  4.141483  0  0  0.644139  0  4.135031  0  0  0.21321  0.585542  0  4.145345  0
C  C85  1  0.13862366  0.44837663  0.94675657  1  0  0.662934  0  3.857184  0  0  0.609344  0  4.141466  0  0  0.644163  0  4.135012  0  0  0.213204  0.585578  0  4.145334  0
C  C86  1  0.63862732  0.94837355  0.55324529  1  0  0.662823  0  3.857391  0  0  0.609267  0  4.141649  0  0  0.64409  0  4.135195  0  0  0.213191  0.5855  0  4.145514  0
C  C87  1  0.86137576  0.55162643  0.05324296  1  0  0.662858  0  3.857307  0  0  0.609282  0  4.14157  0  0  0.64411  0  4.13511  0  0  0.2132  0.585516  0  4.145437  0
C  C88  1  0.09621377  0.20323407  0.73321757  1  0  0.637809  0  3.827824  0  0  0.591551  0  4.1187  0  0  0.625013  0  4.108993  0  0  0.221332  0.568889  0  4.124746  0
C  C89  1  0.40378438  0.29677173  0.23321619  1  0  0.637857  0  3.827807  0  0  0.591525  0  4.118802  0  0  0.624987  0  4.109099  0  0  0.221343  0.568861  0  4.124849  0
C  C90  1  0.90379108  0.79676697  0.26678412  1  0  0.637762  0  3.827963  0  0  0.591482  0  4.118861  0  0  0.624943  0  4.109159  0  0  0.221286  0.56882  0  4.124909  0
C  C91  1  0.59621104  0.70322942  0.76678406  1  0  0.637779  0  3.827887  0  0  0.591503  0  4.118766  0  0  0.624963  0  4.109067  0  0  0.22131  0.568839  0  4.12481  0
N  N92  1  0.94002707  0.74966247  0.62298839  1  0  -0.422231  0  3.315229  0  0  -0.369176  0  3.566952  0  0  -0.387763  0  3.579406  0  0  -0.449834  -0.356404  0  3.558163  0
N  N93  1  0.55997279  0.75033568  0.12298702  1  0  -0.422253  0  3.315223  0  0  -0.369206  0  3.566837  0  0  -0.387801  0  3.579313  0  0  -0.449825  -0.356432  0  3.558055  0
N  N94  1  0.05997212  0.25033960  0.37701186  1  0  -0.422199  0  3.315315  0  0  -0.369146  0  3.56702  0  0  -0.387742  0  3.579489  0  0  -0.449854  -0.35637  0  3.558237  0
N  N95  1  0.44002640  0.24966150  0.87701395  1  0  -0.422311  0  3.315179  0  0  -0.369215  0  3.56681  0  0  -0.38781  0  3.57928  0  0  -0.449842  -0.356438  0  3.558029  0
N  N96  1  0.82380096  0.45582412  0.64903474  1  0  -0.412573  0  3.364961  0  0  -0.325938  0  3.66229  0  0  -0.349794  0  3.680708  0  0  -0.382963  -0.309804  0  3.64948  0
N  N97  1  0.67620048  0.04417513  0.14903571  1  0  -0.412579  0  3.364827  0  0  -0.325923  0  3.662183  0  0  -0.349777  0  3.680598  0  0  -0.382942  -0.309788  0  3.649369  0
N  N98  1  0.17620247  0.54417596  0.35096479  1  0  -0.412692  0  3.364963  0  0  -0.326084  0  3.662355  0  0  -0.349939  0  3.680769  0  0  -0.383035  -0.309948  0  3.64954  0
N  N99  1  0.32380013  0.95582302  0.85096670  1  0  -0.412668  0  3.364881  0  0  -0.326038  0  3.662276  0  0  -0.349894  0  3.68069  0  0  -0.382992  -0.3099  0  3.649456  0
N  N100  1  0.63361957  0.35041344  0.55502511  1  0  -0.274202  0  3.455402  0  0  -0.206905  0  3.690142  0  0  -0.223219  0  3.705798  0  0  -0.375706  -0.196068  0  3.679471  0
N  N101  1  0.86638052  0.14958764  0.05502435  1  0  -0.274175  0  3.455407  0  0  -0.206886  0  3.69016  0  0  -0.223197  0  3.705812  0  0  -0.375719  -0.196061  0  3.6795  0
N  N102  1  0.36638151  0.64958666  0.44497514  1  0  -0.274253  0  3.455374  0  0  -0.206947  0  3.690107  0  0  -0.223263  0  3.705764  0  0  -0.375725  -0.19614  0  3.679459  0
N  N103  1  0.13361797  0.85041151  0.94497590  1  0  -0.274224  0  3.455436  0  0  -0.206936  0  3.690189  0  0  -0.22325  0  3.705842  0  0  -0.375743  -0.196121  0  3.679531  0
O  O104  1  0.36453544  0.96038830  0.38572849  1  0  -0.594288  0  2.115525  0  0  -0.511285  0  2.389839  0  0  -0.543085  0  2.380246  0  0  -0.325374  -0.489115  0  2.395457  0
O  O105  1  0.13546509  0.53960781  0.88572667  1  0  -0.594304  0  2.115561  0  0  -0.511315  0  2.389896  0  0  -0.543116  0  2.38031  0  0  -0.325394  -0.489146  0  2.395515  0
O  O106  1  0.63547035  0.03961175  0.61427249  1  0  -0.594253  0  2.115603  0  0  -0.511237  0  2.389877  0  0  -0.54304  0  2.380295  0  0  -0.325381  -0.489067  0  2.395495  0
O  O107  1  0.86453222  0.46039135  0.11427142  1  0  -0.594262  0  2.115575  0  0  -0.511257  0  2.389905  0  0  -0.543059  0  2.380315  0  0  -0.325358  -0.489088  0  2.395524  0
O  O108  1  0.44904688  0.16498938  0.44176471  1  0  -0.654216  0  2.068894  0  0  -0.589759  0  2.29861  0  0  -0.616148  0  2.289151  0  0  -0.316417  -0.571258  0  2.304116  0
O  O109  1  0.05094750  0.33501578  0.94176564  1  0  -0.654199  0  2.068806  0  0  -0.589737  0  2.298545  0  0  -0.616138  0  2.289119  0  0  -0.3164  -0.57123  0  2.304033  0
O  O110  1  0.55095514  0.83500973  0.55823410  1  0  -0.654174  0  2.068936  0  0  -0.589734  0  2.298643  0  0  -0.616125  0  2.289189  0  0  -0.316373  -0.571239  0  2.304155  0
O  O111  1  0.94905004  0.66498925  0.05823389  1  0  -0.65419  0  2.068879  0  0  -0.589751  0  2.298612  0  0  -0.61615  0  2.289162  0  0  -0.316431  -0.571258  0  2.304125  0
O  O112  1  0.18612490  0.31147225  0.72808382  1  0  -0.584449  0  1.964656  0  0  -0.539002  0  2.199329  0  0  -0.558484  0  2.186884  0  0  -0.30251  -0.525842  0  2.20774  0
O  O113  1  0.31387518  0.18852667  0.22808251  1  0  -0.584474  0  1.964505  0  0  -0.539002  0  2.199216  0  0  -0.558486  0  2.186774  0  0  -0.302538  -0.525844  0  2.207634  0
O  O114  1  0.81387948  0.68853172  0.27191643  1  0  -0.584406  0  1.964766  0  0  -0.538944  0  2.199423  0  0  -0.558427  0  2.18698  0  0  -0.302476  -0.525778  0  2.207822  0
O  O115  1  0.68612307  0.81147151  0.77191630  1  0  -0.584437  0  1.964537  0  0  -0.538984  0  2.199214  0  0  -0.558468  0  2.186771  0  0  -0.302507  -0.525826  0  2.207632  0
O  O116  1  0.98233448  0.17571078  0.80065067  1  0  -0.551596  0  2.0727  0  0  -0.500951  0  2.29145  0  0  -0.52243  0  2.275033  0  0  -0.337656  -0.485869  0  2.301937  0
O  O117  1  0.51766162  0.32428973  0.30064877  1  0  -0.551614  0  2.072709  0  0  -0.500942  0  2.291487  0  0  -0.52242  0  2.275069  0  0  -0.337652  -0.48586  0  2.301981  0
O  O118  1  0.01766943  0.82429124  0.19934886  1  0  -0.551599  0  2.072726  0  0  -0.500925  0  2.291463  0  0  -0.522405  0  2.275047  0  0  -0.337659  -0.485841  0  2.30195  0
O  O119  1  0.48233686  0.67570943  0.69934932  1  0  -0.551579  0  2.072778  0  0  -0.500935  0  2.291529  0  0  -0.522415  0  2.275112  0  0  -0.337682  -0.485854  0  2.302024  0
