# generated using pymatgen
data_Co3P3H18C18N7O9
_symmetry_space_group_name_H-M   'P 1'
_cell_length_a   8.52885370
_cell_length_b   15.53521181
_cell_length_c   15.68494987
_cell_angle_alpha   61.12725522
_cell_angle_beta   77.37707048
_cell_angle_gamma   89.33612896
_symmetry_Int_Tables_number   1
_chemical_formula_structural   Co3P3H18C18N7O9
_chemical_formula_sum   'Co6 P6 H36 C36 N14 O18'
_cell_volume   1765.13289380
_cell_formula_units_Z   2
loop_
 _symmetry_equiv_pos_site_id
 _symmetry_equiv_pos_as_xyz
  1  'x, y, z'
loop_
 _atom_site_type_symbol
 _atom_site_label
 _atom_site_symmetry_multiplicity
 _atom_site_fract_x
 _atom_site_fract_y
 _atom_site_fract_z
 _atom_site_occupancy
 _atom_site_pbe_bader_charge
 _atom_site_pbe_bader_spin_density
 _atom_site_pbe_cm5_charge
 _atom_site_pbe_ddec_charge
 _atom_site_pbe_ddec_spin_density
 _atom_site_pbe_ddec_sum_bond_order
 _atom_site_pbe_magmom
Co  Co0  1  0.91657438  0.31428396  0.35622274  1  1.219813  2.563115  0.666377  0.884739  2.793015  2.537873  2.529
Co  Co1  1  0.08342741  0.68571684  0.64377835  1  1.219782  2.563114  0.666366  0.884781  2.793012  2.537916  2.529
Co  Co2  1  0.32109601  0.08154846  0.53520086  1  1.250654  2.594834  0.690577  1.002574  2.796877  2.469228  2.537
Co  Co3  1  0.67890119  0.91845384  0.46479754  1  1.250606  2.594833  0.690594  1.002583  2.796875  2.469222  2.537
Co  Co4  1  0.30522891  0.45143589  0.46226139  1  1.24938  2.590754  0.691485  0.992677  2.789506  2.475429  2.535
Co  Co5  1  0.69476925  0.54856492  0.53773886  1  1.249354  2.590756  0.691479  0.992675  2.789511  2.475461  2.535
P  P6  1  0.70105208  0.12155670  0.46758627  1  3.356568  0.01435  0.331155  1.282687  0.017528  5.418068  0.011
P  P7  1  0.29894635  0.87844558  0.53241390  1  3.356593  0.014349  0.331114  1.282641  0.017528  5.418262  0.011
P  P8  1  0.11345732  0.25862874  0.51143684  1  3.334455  0.01404  0.333192  1.276819  0.017662  5.431989  0.012
P  P9  1  0.88653836  0.74137129  0.48856791  1  3.334378  0.014041  0.333217  1.276892  0.017661  5.431993  0.012
P  P10  1  0.69322477  0.43311106  0.42351136  1  3.326114  0.013458  0.336838  1.292256  0.016819  5.409021  0.012
P  P11  1  0.30677323  0.56688903  0.57648734  1  3.326106  0.013458  0.336805  1.292166  0.01682  5.40909  0.012
H  H12  1  0.65098791  0.11189538  0.63304849  1  0.053742  0.003122  0.098163  0.112453  0.001188  1.00198  0.001
H  H13  1  0.34901120  0.88810395  0.36695298  1  0.053778  0.003122  0.098167  0.112484  0.001188  1.001943  0.001
H  H14  1  0.85712175  0.10666320  0.58043622  1  0.138897  0.000572  0.123848  0.157687  -7e-05  0.981648  0.0
H  H15  1  0.14287748  0.89333687  0.41956425  1  0.138913  0.000572  0.123861  0.157713  -7e-05  0.981584  0.0
H  H16  1  0.87697064  0.22212744  0.65166947  1  0.041773  0.00315  0.098227  0.113185  0.001262  0.984674  0.001
H  H17  1  0.12302729  0.77787187  0.34833343  1  0.041832  0.00315  0.098242  0.11321  0.001262  0.984646  0.001
H  H18  1  0.90759146  0.34747591  0.55247767  1  0.087145  0.001772  0.119257  0.140635  0.000458  1.017924  0.001
H  H19  1  0.09240407  0.65252339  0.44752617  1  0.087135  0.001772  0.119265  0.140667  0.000458  1.017898  0.001
H  H20  1  0.59553666  0.29867395  0.59761777  1  0.05276  0.003133  0.104843  0.124141  0.001323  0.975154  0.001
H  H21  1  0.40446523  0.70132760  0.40238168  1  0.052766  0.003133  0.104828  0.124108  0.001323  0.975158  0.001
H  H22  1  0.55168214  0.27086884  0.50686339  1  0.12437  0.000381  0.121331  0.149558  -0.000178  1.007855  0.0
H  H23  1  0.44831736  0.72913270  0.49313699  1  0.12432  0.000381  0.121319  0.14952  -0.000178  1.007935  0.0
H  H24  1  0.00541500  0.55570785  0.35951179  1  0.209345  0.001145  0.127156  0.140779  0.000176  1.036873  0.001
H  H25  1  0.99459090  0.44429593  0.64048612  1  0.209269  0.001145  0.127167  0.140829  0.000176  1.036902  0.001
H  H26  1  0.07114028  0.67265880  0.15290683  1  0.10063  0.001106  0.124811  0.122446  0.000459  1.004006  0.0
H  H27  1  0.92886306  0.32734425  0.84709110  1  0.100591  0.001106  0.124783  0.122392  0.000459  1.004062  0.0
H  H28  1  0.49739700  0.55164010  0.23989835  1  0.178366  0.000773  0.142473  0.122365  -0.000133  0.994742  0.0
H  H29  1  0.50260634  0.44835632  0.76010014  1  0.178416  0.000772  0.142447  0.122362  -0.000133  0.994804  0.0
H  H30  1  0.56405040  0.56577582  0.08412574  1  0.098802  -8.4e-05  0.118688  0.137863  -0.000131  1.003699  0.0
H  H31  1  0.43595000  0.43422428  0.91587202  1  0.099086  -8.4e-05  0.118687  0.137846  -0.000131  1.003752  0.0
H  H32  1  0.71631478  0.48981033  0.01338163  1  0.130752  0.001028  0.123788  0.127165  0.000438  1.008297  0.0
H  H33  1  0.28368749  0.51018682  0.98661728  1  0.129817  0.001028  0.12379  0.127165  0.000438  1.008305  0.0
H  H34  1  0.98461678  0.48245970  0.88074971  1  0.083868  0.00082  0.1207  0.112438  0.000167  1.002126  0.001
H  H35  1  0.01539367  0.51754259  0.11924960  1  0.083959  0.00082  0.120701  0.112437  0.000167  1.002141  0.001
H  H36  1  0.85156706  0.77099812  0.74898848  1  0.157078  0.000341  0.149781  0.121174  -0.000351  0.976503  0.001
H  H37  1  0.14843338  0.22900195  0.25101184  1  0.157084  0.000341  0.149782  0.121208  -0.000351  0.976491  0.001
H  H38  1  0.61792756  0.80418473  0.77975767  1  0.118501  -0.000298  0.125397  0.145226  -0.000354  0.998456  0.0
H  H39  1  0.38206789  0.19581463  0.22024041  1  0.118528  -0.000298  0.125415  0.145242  -0.000354  0.998441  0.0
H  H40  1  0.24427477  0.79475342  0.01921261  1  0.087853  -2e-05  0.112979  0.127833  -8.8e-05  1.013154  0.0
H  H41  1  0.75572806  0.20524667  0.98078677  1  0.087871  -1.9e-05  0.112958  0.127812  -8.8e-05  1.013166  0.0
H  H42  1  0.29808185  0.96883825  0.90928301  1  0.121868  0.001031  0.123399  0.123166  0.000435  1.00671  0.0
H  H43  1  0.70191590  0.03116036  0.09071706  1  0.121864  0.001031  0.1234  0.123203  0.000435  1.006684  0.0
H  H44  1  0.24107646  0.11221926  0.72661321  1  0.153827  0.001342  0.128701  0.129977  0.000347  0.987528  0.001
H  H45  1  0.75892663  0.88778231  0.27338544  1  0.153844  0.001342  0.128706  0.129997  0.000347  0.987497  0.001
H  H46  1  0.43183349  0.87727849  0.68996924  1  0.190316  0.000776  0.145027  0.120845  -0.00022  1.01007  0.001
H  H47  1  0.56816436  0.12272088  0.31002854  1  0.190317  0.000776  0.145005  0.12084  -0.000221  1.010088  0.001
C  C48  1  0.74880643  0.14423910  0.56348908  1  -0.280063  0.007644  -0.079717  -0.377632  0.002946  3.886082  0.003
C  C49  1  0.25119642  0.85576097  0.43651222  1  -0.280151  0.007645  -0.079727  -0.377678  0.002946  3.886068  0.003
C  C50  1  0.90796133  0.27016967  0.56918960  1  -0.21284  0.007872  -0.081413  -0.377151  0.003384  3.88437  0.004
C  C51  1  0.09203192  0.72983038  0.43081289  1  -0.212688  0.007872  -0.081463  -0.377243  0.003384  3.88439  0.004
C  C52  1  0.64542522  0.30390031  0.52382458  1  -0.245515  0.002022  -0.079818  -0.390101  6.3e-05  3.887783  0.0
C  C53  1  0.35457548  0.69610124  0.47617565  1  -0.245366  0.002022  -0.079773  -0.389995  6.3e-05  3.887826  0.0
C  C54  1  0.11884945  0.57462100  0.30335973  1  0.441913  0.001717  0.016393  0.009088  0.000895  3.939231  0.001
C  C55  1  0.88115457  0.42537909  0.69663950  1  0.441864  0.001717  0.016367  0.009016  0.000895  3.939253  0.001
C  C56  1  0.14960609  0.63275196  0.20142298  1  0.229997  0.005345  -0.003843  -0.118741  0.002756  3.929613  0.004
C  C57  1  0.85039913  0.36724814  0.79857546  1  0.229971  0.005345  -0.003832  -0.118654  0.002757  3.929594  0.004
C  C58  1  0.37267533  0.56741539  0.24387590  1  0.956985  -0.005107  0.14918  0.112017  -0.006088  3.865734  -0.003
C  C59  1  0.62732562  0.43258101  0.75612416  1  0.956949  -0.005109  0.149243  0.112046  -0.006091  3.865889  -0.003
C  C60  1  0.39597449  0.67537181  0.06186427  1  0.316441  -0.001246  0.105186  0.214559  -0.001627  4.062995  0.0
C  C61  1  0.60403060  0.32462755  0.93813453  1  0.316495  -0.001247  0.105225  0.214658  -0.001628  4.063065  0.0
C  C62  1  0.52715280  0.63405175  0.03014115  1  0.028722  -0.003785  -0.098  -0.288519  -0.004175  3.954462  -0.002
C  C63  1  0.47284759  0.36594836  0.96985661  1  0.028293  -0.003786  -0.097966  -0.288446  -0.004177  3.954589  -0.002
C  C64  1  0.60781932  0.68122304  0.92852698  1  0.324539  -0.001661  0.105685  0.215834  -0.002189  4.054489  -0.001
C  C65  1  0.39218198  0.31877562  0.07146879  1  0.324178  -0.00166  0.10567  0.215767  -0.002189  4.054571  -0.001
C  C66  1  0.78377143  0.54630546  0.94008278  1  0.252807  0.003864  -0.008444  -0.126671  0.002029  3.938452  0.002
C  C67  1  0.21623112  0.45369315  0.05991669  1  0.253833  0.003864  -0.008457  -0.126779  0.00203  3.938402  0.002
C  C68  1  0.91609810  0.54366572  0.87390856  1  0.459265  0.00129  0.007345  -0.01244  0.00053  4.003925  0.001
C  C69  1  0.08390716  0.45633434  0.12609244  1  0.459064  0.00129  0.007297  -0.012465  0.00053  4.003877  0.001
C  C70  1  0.85084336  0.69358780  0.80235474  1  0.994377  -0.013538  0.152832  0.11634  -0.015915  3.859194  -0.009
C  C71  1  0.14915838  0.30641304  0.19764379  1  0.994413  -0.013536  0.152783  0.116128  -0.015912  3.859414  -0.009
C  C72  1  0.55761925  0.76798515  0.85912973  1  0.053228  -0.005489  -0.092008  -0.275399  -0.005991  3.929122  -0.003
C  C73  1  0.44237766  0.23201569  0.14086812  1  0.053571  -0.00549  -0.09199  -0.275388  -0.005992  3.929116  -0.003
C  C74  1  0.42770138  0.80816524  0.89276206  1  0.313445  -0.000272  0.104153  0.218871  -0.000635  4.057381  0.0
C  C75  1  0.57229782  0.19183487  0.10723585  1  0.3135  -0.000273  0.104127  0.218909  -0.000636  4.057309  0.0
C  C76  1  0.34587431  0.76291878  0.99388560  1  -0.0227  -0.003952  -0.100751  -0.282787  -0.004313  3.952116  -0.002
C  C77  1  0.65412744  0.23708205  0.00611293  1  -0.022759  -0.003951  -0.100783  -0.282882  -0.004312  3.95234  -0.002
C  C78  1  0.31414200  0.97136201  0.83767209  1  0.223385  0.004998  -0.010673  -0.13321  0.002518  3.957422  0.003
C  C79  1  0.68585362  0.02863807  0.16232819  1  0.224232  0.004999  -0.010715  -0.133282  0.002519  3.957484  0.003
C  C80  1  0.28866643  0.04163291  0.74748410  1  0.424538  -0.000331  0.008123  -0.011885  -0.000711  4.000083  0.0
C  C81  1  0.71133293  0.95836791  0.25251601  1  0.423934  -0.000331  0.008121  -0.01191  -0.000711  4.000189  0.0
C  C82  1  0.39009168  0.92288615  0.72372992  1  0.968238  -0.01078  0.1582  0.124735  -0.012697  3.849388  -0.007
C  C83  1  0.60990516  0.07711391  0.27627148  1  0.969728  -0.01078  0.15814  0.124691  -0.012701  3.849349  -0.007
N  N84  1  0.78992988  0.25085928  0.52265343  1  -1.007913  0.060594  -0.319931  -0.008767  0.030885  3.627955  0.056
N  N85  1  0.21006709  0.74914152  0.47734762  1  -1.007912  0.060594  -0.31994  -0.008785  0.030885  3.628033  0.056
N  N86  1  0.25904337  0.53514400  0.32853511  1  -1.207911  0.061425  -0.351232  -0.301539  0.031686  3.646114  0.045
N  N87  1  0.74096145  0.46485389  0.67146378  1  -1.207893  0.061424  -0.351243  -0.30155  0.031686  3.646025  0.045
N  N88  1  0.31126246  0.62769977  0.16368012  1  -1.244459  0.00193  -0.230243  -0.006755  0.000662  3.820947  0.002
N  N89  1  0.68874129  0.37229885  0.83631856  1  -1.244327  0.001929  -0.230288  -0.006865  0.000661  3.821092  0.002
N  N90  1  0.74133949  0.64241605  0.89359304  1  -1.27155  0.000287  -0.226907  -0.00015  -0.000346  3.79184  0.001
N  N91  1  0.25865945  0.35758256  0.10640623  1  -1.27153  0.000287  -0.226938  -1.6e-05  -0.000346  3.791574  0.001
N  N92  1  0.95616301  0.63567985  0.78867166  1  -1.177533  0.045612  -0.343263  -0.25886  0.024406  3.567594  0.037
N  N93  1  0.04384238  0.36432095  0.21132898  1  -1.177518  0.045612  -0.343162  -0.258671  0.024406  3.567507  0.037
N  N94  1  0.37889919  0.89612316  0.82195232  1  -1.250941  0.001876  -0.226952  0.006163  0.000586  3.788409  0.002
N  N95  1  0.62109615  0.10387544  0.17804804  1  -1.2511  0.001875  -0.226786  0.006253  0.000586  3.788369  0.002
N  N96  1  0.33582770  0.01007320  0.67769665  1  -1.202738  0.062146  -0.353081  -0.315853  0.03194  3.671108  0.048
N  N97  1  0.66417247  0.98992540  0.32230440  1  -1.204274  0.062145  -0.353084  -0.315835  0.03194  3.671262  0.048
O  O98  1  0.53088824  0.15125724  0.45166987  1  -1.415077  0.108262  -0.38667  -0.768315  0.054122  2.324016  0.078
O  O99  1  0.46910901  0.84874503  0.54833173  1  -1.415078  0.108264  -0.386663  -0.768305  0.054123  2.324085  0.078
O  O100  1  0.71312987  0.00997645  0.50946004  1  -1.408781  0.114096  -0.385485  -0.754427  0.05672  2.335748  0.081
O  O101  1  0.28686724  0.99002509  0.49054128  1  -1.408827  0.114094  -0.385469  -0.754381  0.056719  2.33589  0.081
O  O102  1  0.82958608  0.18884460  0.37040533  1  -1.411468  0.109864  -0.385158  -0.742634  0.054999  2.25689  0.083
O  O103  1  0.17041342  0.81115694  0.62959506  1  -1.411465  0.10987  -0.385164  -0.742664  0.055003  2.256888  0.083
O  O104  1  0.13663710  0.14786637  0.55986418  1  -1.420302  0.101454  -0.382625  -0.750669  0.050616  2.332997  0.071
O  O105  1  0.86336366  0.85213514  0.44013989  1  -1.42018  0.101452  -0.382626  -0.750658  0.050618  2.332913  0.071
O  O106  1  0.23223250  0.31298109  0.53595147  1  -1.409187  0.114396  -0.387829  -0.749892  0.056978  2.31599  0.08
O  O107  1  0.76776212  0.68701967  0.46405371  1  -1.409239  0.114393  -0.387796  -0.749924  0.056978  2.316049  0.08
O  O108  1  0.12001671  0.30780002  0.39845511  1  -1.402454  0.10596  -0.381587  -0.755336  0.052834  2.31462  0.08
O  O109  1  0.87998004  0.69219928  0.60154922  1  -1.402517  0.10596  -0.381602  -0.755361  0.052833  2.314546  0.08
O  O110  1  0.53569029  0.47793842  0.40315925  1  -1.434861  0.096093  -0.38174  -0.779012  0.048129  2.420757  0.068
O  O111  1  0.46430714  0.52205876  0.59683770  1  -1.434897  0.096095  -0.381708  -0.778942  0.048129  2.420716  0.068
O  O112  1  0.79042960  0.48866036  0.45845309  1  -1.415624  0.10522  -0.378811  -0.752345  0.052794  2.363711  0.075
O  O113  1  0.20956569  0.51134491  0.54154288  1  -1.415669  0.105214  -0.37879  -0.752344  0.052793  2.363747  0.075
O  O114  1  0.79725803  0.43009813  0.33145397  1  -1.412851  0.111557  -0.389092  -0.739205  0.056079  2.253366  0.083
O  O115  1  0.20274492  0.56990271  0.66854441  1  -1.412838  0.111552  -0.389121  -0.739218  0.056076  2.253412  0.083
