# generated using pymatgen
data_CdH11C17SN5O4
_symmetry_space_group_name_H-M   'P 1'
_cell_length_a   9.54571285
_cell_length_b   9.54371987
_cell_length_c   21.88056281
_cell_angle_alpha   102.59629840
_cell_angle_beta   102.60348078
_cell_angle_gamma   90.00678776
_symmetry_Int_Tables_number   1
_chemical_formula_structural   CdH11C17SN5O4
_chemical_formula_sum   'Cd4 H44 C68 S4 N20 O16'
_cell_volume   1896.11646378
_cell_formula_units_Z   4
loop_
 _symmetry_equiv_pos_site_id
 _symmetry_equiv_pos_as_xyz
  1  'x, y, z'
loop_
 _atom_site_type_symbol
 _atom_site_label
 _atom_site_symmetry_multiplicity
 _atom_site_fract_x
 _atom_site_fract_y
 _atom_site_fract_z
 _atom_site_occupancy
 _atom_site_pbe_bader_charge
 _atom_site_pbe_bader_spin_density
 _atom_site_pbe_cm5_charge
 _atom_site_pbe_ddec_charge
 _atom_site_pbe_ddec_spin_density
 _atom_site_pbe_ddec_sum_bond_order
 _atom_site_pbe_magmom
Cd  Cd0  1  0.67738224  0.67739926  0.35477120  1  1.266137  0  0.75861  0.812216  0  2.245499  0
Cd  Cd1  1  0.32269243  0.32255543  0.64515893  1  1.265995  0  0.758886  0.812757  0  2.24458  0
Cd  Cd2  1  0.07256402  0.57267430  0.14514305  1  1.266154  0  0.75872  0.812294  0  2.245291  0
Cd  Cd3  1  0.42736683  0.92743063  0.85486206  1  1.265472  0  0.758441  0.81203  0  2.244405  0
H  H4  1  0.54670079  0.19733641  0.34313248  1  0.110096  0  0.107541  0.137719  0  1.019152  0
H  H5  1  0.79649902  0.14571428  0.34287369  1  0.118273  0  0.107905  0.138384  0  1.019826  0
H  H6  1  0.85457263  0.45375859  0.65714586  1  0.110803  0  0.107296  0.137125  0  1.019863  0
H  H7  1  0.80261101  0.20336622  0.65696388  1  0.13027  0  0.107899  0.13835  0  1.020148  0
H  H8  1  0.95342384  0.05258824  0.15686523  1  0.132532  0  0.107768  0.138194  0  1.020045  0
H  H9  1  0.20373390  0.10471538  0.15709745  1  0.116593  0  0.107262  0.137066  0  1.01956  0
H  H10  1  0.94716857  0.79686717  0.84313993  1  0.109292  0  0.107512  0.137618  0  1.019355  0
H  H11  1  0.89580978  0.04684806  0.84308149  1  0.117069  0  0.107871  0.138519  0  1.019502  0
H  H12  1  0.92271670  0.62594622  0.47268347  1  0.14717  0  0.126081  0.117635  0  0.992501  0
H  H13  1  0.55023359  0.84664031  0.47273114  1  0.155692  0  0.125451  0.116436  0  0.993175  0
H  H14  1  0.15336582  0.07735861  0.52724681  1  0.136406  0  0.125738  0.116595  0  0.994236  0
H  H15  1  0.37392903  0.45002525  0.52723308  1  0.131238  0  0.125513  0.117002  0  0.992886  0
H  H16  1  0.20008427  0.62364032  0.02725183  1  0.132604  0  0.125451  0.11668  0  0.992887  0
H  H17  1  0.82719211  0.40338646  0.02730078  1  0.135838  0  0.125874  0.116884  0  0.994312  0
H  H18  1  0.37598436  0.17272432  0.97278773  1  0.129871  0  0.125836  0.117112  0  0.992803  0
H  H19  1  0.59654713  0.80006364  0.97285299  1  0.158184  0  0.125583  0.116767  0  0.992875  0
H  H20  1  0.82819977  0.82807849  0.65603402  1  0.129043  0  0.124246  0.147854  0  0.982256  0
H  H21  1  0.17198400  0.17194651  0.34390125  1  0.128074  0  0.124236  0.148014  0  0.98215  0
H  H22  1  0.92197341  0.42198998  0.84399747  1  0.130009  0  0.124211  0.147781  0  0.982764  0
H  H23  1  0.57756629  0.07776992  0.15612578  1  0.127642  0  0.124326  0.14739  0  0.982525  0
H  H24  1  0.11987925  0.87469585  0.66475801  1  0.164717  0  0.123698  0.133685  0  1.027867  0
H  H25  1  0.54535160  0.79000890  0.66480908  1  0.170787  0  0.123903  0.134135  0  1.02825  0
H  H26  1  0.20998526  0.88022026  0.33522202  1  0.162932  0  0.123785  0.133987  0  1.028059  0
H  H27  1  0.12530133  0.45497325  0.33509899  1  0.165449  0  0.123582  0.133573  0  1.028097  0
H  H28  1  0.20507032  0.37502467  0.83523977  1  0.194337  0  0.123623  0.133546  0  1.028392  0
H  H29  1  0.63025099  0.46003009  0.83522555  1  0.162604  0  0.123776  0.134152  0  1.027751  0
H  H30  1  0.62467051  0.36956772  0.16485580  1  0.164845  0  0.123426  0.133463  0  1.027862  0
H  H31  1  0.53990233  0.79454394  0.16480385  1  0.169136  0  0.123936  0.134327  0  1.02815  0
H  H32  1  0.33568988  0.69485889  0.70136528  1  0.18659  0  0.121403  0.133765  0  1.026917  0
H  H33  1  0.36590048  0.00629264  0.70138819  1  0.189648  0  0.122453  0.134846  0  1.026683  0
H  H34  1  0.99363063  0.66425826  0.29867706  1  0.191375  0  0.121672  0.133853  0  1.026689  0
H  H35  1  0.30524392  0.63438857  0.29858185  1  0.160388  0  0.12213  0.135246  0  1.027434  0
H  H36  1  0.38425836  0.55497908  0.79857578  1  0.154592  0  0.122117  0.135  0  1.02728  0
H  H37  1  0.41437009  0.24355351  0.79860758  1  0.192086  0  0.121731  0.133964  0  1.026461  0
H  H38  1  0.44502919  0.58563243  0.20139059  1  0.183745  0  0.121379  0.13376  0  1.026661  0
H  H39  1  0.75660604  0.61542328  0.20137661  1  0.180178  0  0.122386  0.13487  0  1.027733  0
H  H40  1  0.00525554  0.44682056  0.55788494  1  0.148431  0  0.139083  0.111277  0  0.978345  0
H  H41  1  0.55251350  0.11095506  0.55784556  1  0.162869  0  0.138683  0.111535  0  0.978535  0
H  H42  1  0.88899705  0.99463581  0.44208978  1  0.156566  0  0.138599  0.11156  0  0.978639  0
H  H43  1  0.55309357  0.44749413  0.44208807  1  0.157026  0  0.139128  0.110995  0  0.977983  0
H  H44  1  0.19741778  0.80288814  0.94208175  1  0.156001  0  0.13897  0.111063  0  0.978249  0
H  H45  1  0.74458851  0.13898591  0.94211870  1  0.156131  0  0.138509  0.111419  0  0.978581  0
H  H46  1  0.19673771  0.25541604  0.05793156  1  0.149671  0  0.139098  0.111267  0  0.978164  0
H  H47  1  0.86080081  0.80278599  0.05798456  1  0.163176  0  0.138801  0.111966  0  0.978708  0
C  C48  1  0.46550132  0.14618256  0.30109892  1  -0.254428  0  -0.107767  -0.23691  0  3.983871  0
C  C49  1  0.83561851  0.15495420  0.30085200  1  -0.287875  0  -0.105835  -0.233523  0  3.981546  0
C  C50  1  0.84515239  0.53488639  0.69914746  1  -0.269578  0  -0.105983  -0.232902  0  3.980548  0
C  C51  1  0.85395543  0.16443376  0.69901399  1  -0.287876  0  -0.107962  -0.237757  0  3.98607  0
C  C52  1  0.91441138  0.10398811  0.19890069  1  -0.291023  0  -0.107684  -0.237106  0  3.984235  0
C  C53  1  0.28487904  0.09530292  0.19909769  1  -0.276063  0  -0.106707  -0.234036  0  3.980593  0
C  C54  1  0.89595612  0.71572280  0.80109669  1  -0.230942  0  -0.10747  -0.236064  0  3.982958  0
C  C55  1  0.90498553  0.08583350  0.80100756  1  -0.26593  0  -0.106247  -0.234599  0  3.982492  0
C  C56  1  0.42833550  0.00108351  0.27979697  1  -0.019939  0  -0.035871  -0.06376  0  4.011259  0
C  C57  1  0.85150543  0.27885778  0.27963484  1  0.052004  0  -0.037322  -0.067099  0  4.012246  0
C  C58  1  0.72119388  0.57197111  0.72029973  1  0.031486  0  -0.037233  -0.066767  0  4.01108  0
C  C59  1  0.99903849  0.14851369  0.72020609  1  0.001843  0  -0.035361  -0.062062  0  4.010767  0
C  C60  1  0.89838778  0.24908748  0.22011515  1  0.002059  0  -0.035352  -0.062271  0  4.010543  0
C  C61  1  0.32189172  0.97132713  0.22029041  1  0.031526  0  -0.036373  -0.065424  0  4.010339  0
C  C62  1  0.75089190  0.67848511  0.77978365  1  -0.02321  0  -0.035786  -0.064028  0  4.011747  0
C  C63  1  0.02882620  0.10170032  0.77975034  1  0.030215  0  -0.036854  -0.066444  0  4.012361  0
C  C64  1  0.50929870  0.89430949  0.31272825  1  1.570272  0  0.185313  0.576206  0  4.241538  0
C  C65  1  0.80348941  0.41854380  0.31262947  1  1.606762  0  0.185096  0.575813  0  4.242479  0
C  C66  1  0.58153272  0.49082935  0.68726776  1  1.552586  0  0.185721  0.574751  0  4.241427  0
C  C67  1  0.10572444  0.19642276  0.68717357  1  1.546412  0  0.186077  0.57657  0  4.241239  0
C  C68  1  0.94647351  0.35584593  0.18717855  1  1.544874  0  0.18634  0.576732  0  4.241708  0
C  C69  1  0.24070496  0.83166486  0.18729926  1  1.587648  0  0.185285  0.57448  0  4.242649  0
C  C70  1  0.64407613  0.75946308  0.81266735  1  1.5795  0  0.185768  0.576969  0  4.240673  0
C  C71  1  0.16844164  0.05352137  0.81271362  1  1.600798  0  0.186023  0.576394  0  4.241904  0
C  C72  1  0.85585719  0.68962651  0.50184684  1  0.548055  0  0.053532  -0.000471  0  3.915687  0
C  C73  1  0.64621401  0.81207227  0.50189984  1  0.466835  0  0.05429  0.000172  0  3.915524  0
C  C74  1  0.18789217  0.14426559  0.49809733  1  0.503606  0  0.053814  4.4e-05  0  3.916574  0
C  C75  1  0.31034843  0.35392366  0.49806812  1  0.564388  0  0.054129  -5.3e-05  0  3.916168  0
C  C76  1  0.10392166  0.56015370  0.99811443  1  0.561931  0  0.054523  0.001258  0  3.91541  0
C  C77  1  0.89416926  0.43783888  0.99816021  1  0.56665  0  0.054066  8e-06  0  3.91697  0
C  C78  1  0.43957569  0.10576181  0.00194087  1  0.57017  0  0.053801  -0.000768  0  3.916074  0
C  C79  1  0.56187384  0.89601964  0.00198518  1  0.46173  0  0.053526  -0.001528  0  3.916322  0
C  C80  1  0.89338917  0.72227819  0.56892567  1  0.324946  0  0.109121  0.149918  0  4.007844  0
C  C81  1  0.67580795  0.84659667  0.56898160  1  0.400374  0  0.108924  0.150331  0  4.004187  0
C  C82  1  0.15339297  0.10674105  0.43102526  1  0.385196  0  0.109306  0.151554  0  4.004753  0
C  C83  1  0.27771684  0.32430125  0.43097902  1  0.332585  0  0.108872  0.149951  0  4.006326  0
C  C84  1  0.07434612  0.52757765  0.93104037  1  0.292769  0  0.108531  0.148812  0  4.007741  0
C  C85  1  0.85667838  0.40335151  0.93108510  1  0.306379  0  0.109215  0.151375  0  4.004807  0
C  C86  1  0.47204043  0.14315534  0.06902349  1  0.329316  0  0.109134  0.150154  0  4.008003  0
C  C87  1  0.59632291  0.92555024  0.06905911  1  0.425374  0  0.109256  0.151179  0  4.003793  0
C  C88  1  0.80200547  0.80184168  0.60366808  1  0.059937  0  -0.051551  -0.170066  0  3.86125  0
C  C89  1  0.19818817  0.19812420  0.39627178  1  0.041346  0  -0.051346  -0.170062  0  3.85924  0
C  C90  1  0.94815791  0.44808875  0.89635998  1  0.095721  0  -0.05153  -0.169993  0  3.859605  0
C  C91  1  0.55145466  0.05167191  0.10376100  1  0.037111  0  -0.051409  -0.169099  0  3.860196  0
C  C92  1  0.13011033  0.76062471  0.64784539  1  0.298748  0  0.001133  -0.099956  0  3.910966  0
C  C93  1  0.51797644  0.88712371  0.64787390  1  0.288016  0  0.000893  -0.101473  0  3.915049  0
C  C94  1  0.11287821  0.86992222  0.35215479  1  0.29046  0  0.001379  -0.100312  0  3.913444  0
C  C95  1  0.23934918  0.48223774  0.35205828  1  0.249057  0  0.001168  -0.098972  0  3.913196  0
C  C96  1  0.23227297  0.48909189  0.85212267  1  0.217878  0  0.000746  -0.100153  0  3.913676  0
C  C97  1  0.61997416  0.36285063  0.85213312  1  0.29047  0  0.001312  -0.100374  0  3.912496  0
C  C98  1  0.51062596  0.37990048  0.14792067  1  0.298192  0  0.001359  -0.09964  0  3.911013  0
C  C99  1  0.63704691  0.76741343  0.14788302  1  0.290632  0  0.000362  -0.102163  0  3.917027  0
C  C100  1  0.23549246  0.67006378  0.66545132  1  0.377453  0  -0.00028  -0.026796  0  3.974558  0
C  C101  1  0.43003703  0.99516142  0.66542985  1  0.371464  0  -0.001186  -0.027473  0  3.976945  0
C  C102  1  0.00479498  0.76449293  0.33457235  1  0.382929  0  -0.000767  -0.026885  0  3.977036  0
C  C103  1  0.32993742  0.57010556  0.33449116  1  0.453263  0  -0.001344  -0.029537  0  3.976839  0
C  C104  1  0.32007823  0.57965926  0.83452035  1  0.462041  0  -0.001089  -0.028595  0  3.976197  0
C  C105  1  0.51456297  0.25469371  0.83451878  1  0.382864  0  -0.001003  -0.027501  0  3.976771  0
C  C106  1  0.42020619  0.48541612  0.16550409  1  0.379812  0  -0.000395  -0.027342  0  3.975873  0
C  C107  1  0.74525625  0.67966957  0.16544867  1  0.377645  0  -0.001263  -0.02774  0  3.979357  0
C  C108  1  0.06865039  0.53689808  0.59150273  1  0.931968  0  0.134717  0.082272  0  3.931748  0
C  C109  1  0.52281779  0.05444142  0.59147303  1  0.928976  0  0.134174  0.079208  0  3.934961  0
C  C110  1  0.94559116  0.93126856  0.40852774  1  0.930491  0  0.134705  0.080631  0  3.933502  0
C  C111  1  0.46299510  0.47717868  0.40844810  1  0.92938  0  0.134833  0.083815  0  3.930884  0
C  C112  1  0.22715611  0.71279057  0.90845470  1  0.929237  0  0.13504  0.082844  0  3.933227  0
C  C113  1  0.68118350  0.19556349  0.90855650  1  0.931613  0  0.134753  0.080748  0  3.932936  0
C  C114  1  0.28688137  0.31870219  0.09156090  1  0.931722  0  0.134837  0.08223  0  3.932201  0
C  C115  1  0.80435103  0.77289434  0.09157984  1  0.917594  0  0.134281  0.079083  0  3.935271  0
S  S116  1  0.37524277  0.24494892  0.25011419  1  0.297131  0  0.1047  0.232057  0  3.141999  0
S  S117  1  0.87492279  0.00525534  0.24986551  1  0.277742  0  0.103987  0.230991  0  3.141599  0
S  S118  1  0.99476046  0.62533151  0.75016513  1  0.276717  0  0.10429  0.231395  0  3.140261  0
S  S119  1  0.75530133  0.12516480  0.75002296  1  0.277309  0  0.104282  0.231667  0  3.142071  0
N  N120  1  0.73498941  0.73486618  0.46987406  1  -1.254217  0  -0.316274  -0.191011  0  3.564448  0
N  N121  1  0.26512541  0.26513073  0.53009152  1  -1.254309  0  -0.316321  -0.191075  0  3.565731  0
N  N122  1  0.01506223  0.51502401  0.03013226  1  -1.25495  0  -0.31644  -0.191218  0  3.564702  0
N  N123  1  0.48477578  0.98489213  0.96995424  1  -1.254077  0  -0.315716  -0.189449  0  3.563132  0
N  N124  1  0.02458176  0.67523616  0.60061502  1  -1.26268  0  -0.23235  -0.0098  0  3.834328  0
N  N125  1  0.57624759  0.92533208  0.60064673  1  -1.247948  0  -0.230862  -0.006886  0  3.834307  0
N  N126  1  0.07471826  0.97547224  0.39937714  1  -1.245836  0  -0.232153  -0.010184  0  3.835583  0
N  N127  1  0.32469567  0.42391669  0.39930106  1  -1.261719  0  -0.231175  -0.010213  0  3.836431  0
N  N128  1  0.17391598  0.57448440  0.89933731  1  -1.26011  0  -0.231299  -0.00859  0  3.835452  0
N  N129  1  0.72539713  0.32471379  0.89941162  1  -1.246401  0  -0.232111  -0.010114  0  3.835121  0
N  N130  1  0.42511833  0.27441658  0.10070780  1  -1.269663  0  -0.232614  -0.010123  0  3.835665  0
N  N131  1  0.67513140  0.82597182  0.10071213  1  -1.246766  0  -0.231002  -0.007435  0  3.834942  0
N  N132  1  0.19530064  0.53154299  0.63040243  1  -1.20552  0  -0.346939  -0.287494  0  3.505927  0
N  N133  1  0.43502830  0.09862234  0.63035997  1  -1.209751  0  -0.346428  -0.285345  0  3.507303  0
N  N134  1  0.90135856  0.80459772  0.36962829  1  -1.20516  0  -0.346333  -0.285927  0  3.507503  0
N  N135  1  0.46841052  0.56498460  0.36956813  1  -1.213825  0  -0.34716  -0.287406  0  3.506059  0
N  N136  1  0.31493205  0.71818074  0.86957408  1  -1.213563  0  -0.34668  -0.287085  0  3.506007  0
N  N137  1  0.55458706  0.15128003  0.86961390  1  -1.205187  0  -0.345879  -0.285223  0  3.507388  0
N  N138  1  0.28168589  0.44541597  0.13043518  1  -1.205389  0  -0.346674  -0.286713  0  3.505584  0
N  N139  1  0.84870690  0.68505948  0.13043350  1  -1.198902  0  -0.346525  -0.285534  0  3.509111  0
O  O140  1  0.53683617  0.77740821  0.27650431  1  -1.162335  0  -0.328595  -0.53968  0  2.226615  0
O  O141  1  0.73946610  0.49917935  0.27644577  1  -1.16024  0  -0.328301  -0.539332  0  2.226272  0
O  O142  1  0.50082088  0.46307056  0.72343437  1  -1.153934  0  -0.329207  -0.539513  0  2.226023  0
O  O143  1  0.22256546  0.26040443  0.72335730  1  -1.162184  0  -0.328434  -0.538647  0  2.227433  0
O  O144  1  0.01040310  0.47267727  0.22341789  1  -1.160461  0  -0.328347  -0.538914  0  2.227055  0
O  O145  1  0.21315044  0.75079731  0.22344610  1  -1.153869  0  -0.329086  -0.539458  0  2.226358  0
O  O146  1  0.52718352  0.78685327  0.77640946  1  -1.162622  0  -0.328882  -0.539901  0  2.225205  0
O  O147  1  0.24914478  0.98973456  0.77652450  1  -1.160148  0  -0.328684  -0.539617  0  2.226314  0
O  O148  1  0.55301921  0.92567140  0.37335932  1  -1.181262  0  -0.360527  -0.594267  0  2.097154  0
O  O149  1  0.82056460  0.44778193  0.37326428  1  -1.216512  0  -0.360667  -0.594189  0  2.097579  0
O  O150  1  0.55243623  0.44717816  0.62663124  1  -1.16938  0  -0.359887  -0.592453  0  2.096212  0
O  O151  1  0.07437088  0.17927480  0.62653132  1  -1.153439  0  -0.36183  -0.596243  0  2.094358  0
O  O152  1  0.92950450  0.32449994  0.12654602  1  -1.153941  0  -0.361865  -0.595851  0  2.095656  0
O  O153  1  0.19683059  0.80263750  0.12667306  1  -1.204211  0  -0.360059  -0.592837  0  2.096732  0
O  O154  1  0.67541736  0.80336792  0.87330207  1  -1.189233  0  -0.360755  -0.59483  0  2.097101  0
O  O155  1  0.19759409  0.07032711  0.87334528  1  -1.210333  0  -0.361709  -0.595033  0  2.096228  0
