# generated using pymatgen
data_CdB5H9C2N2O9
_symmetry_space_group_name_H-M   'P 1'
_cell_length_a   6.67253288
_cell_length_b   11.27779041
_cell_length_c   14.35402373
_cell_angle_alpha   90.00009140
_cell_angle_beta   90.00002377
_cell_angle_gamma   92.02608321
_symmetry_Int_Tables_number   1
_chemical_formula_structural   CdB5H9C2N2O9
_chemical_formula_sum   'Cd4 B20 H36 C8 N8 O36'
_cell_volume   1079.48549563
_cell_formula_units_Z   4
loop_
 _symmetry_equiv_pos_site_id
 _symmetry_equiv_pos_as_xyz
  1  'x, y, z'
loop_
 _atom_site_type_symbol
 _atom_site_label
 _atom_site_symmetry_multiplicity
 _atom_site_fract_x
 _atom_site_fract_y
 _atom_site_fract_z
 _atom_site_occupancy
 _atom_site_hle17_bader_spin_density
 _atom_site_hle17_ddec_charge
 _atom_site_hle17_ddec_spin_density
 _atom_site_hle17_ddec_sum_bond_order
 _atom_site_hle17_magmom
 _atom_site_hse06_10hf_bader_spin_density
 _atom_site_hse06_10hf_ddec_charge
 _atom_site_hse06_10hf_ddec_spin_density
 _atom_site_hse06_10hf_ddec_sum_bond_order
 _atom_site_hse06_10hf_magmom
 _atom_site_hse06_bader_spin_density
 _atom_site_hse06_ddec_charge
 _atom_site_hse06_ddec_spin_density
 _atom_site_hse06_ddec_sum_bond_order
 _atom_site_hse06_magmom
 _atom_site_pbe_bader_spin_density
 _atom_site_pbe_cm5_charge
 _atom_site_pbe_ddec_charge
 _atom_site_pbe_ddec_spin_density
 _atom_site_pbe_ddec_sum_bond_order
 _atom_site_pbe_magmom
Cd  Cd0  1  0.88730491  0.29123221  0.26738035  1  0  1.249101  0  1.503588  0  0  1.055232  0  1.933561  0  0  1.108481  0  1.883686  0  0  0.873878  1.01747  0  1.967314  0
Cd  Cd1  1  0.61269747  0.20876623  0.76738084  1  0  1.249032  0  1.503678  0  0  1.055144  0  1.93368  0  0  1.108391  0  1.883809  0  0  0.873848  1.017378  0  1.967434  0
Cd  Cd2  1  0.11269325  0.70876707  0.73262012  1  0  1.249056  0  1.503646  0  0  1.055181  0  1.933629  0  0  1.108423  0  1.883764  0  0  0.873868  1.017416  0  1.967385  0
Cd  Cd3  1  0.38730669  0.79123308  0.23261893  1  0  1.249041  0  1.503618  0  0  1.055167  0  1.933604  0  0  1.108411  0  1.883738  0  0  0.87385  1.0174  0  1.967357  0
B  B4  1  0.29710893  0.42781190  0.44199831  1  0  1.133302  0  2.92642  0  0  0.977585  0  3.262416  0  0  1.019832  0  3.219149  0  0  0.093035  0.947011  0  3.294694  0
B  B5  1  0.20289426  0.07218600  0.94200004  1  0  1.133301  0  2.926485  0  0  0.97756  0  3.262607  0  0  1.019762  0  3.21949  0  0  0.093077  0.947024  0  3.294782  0
B  B6  1  0.70289366  0.57218564  0.55800146  1  0  1.133235  0  2.92654  0  0  0.977524  0  3.262612  0  0  1.019718  0  3.219515  0  0  0.093093  0.946981  0  3.29479  0
B  B7  1  0.79711140  0.92781333  0.05799973  1  0  1.133254  0  2.926501  0  0  0.977568  0  3.262454  0  0  1.019811  0  3.219196  0  0  0.093046  0.946993  0  3.294734  0
B  B8  1  0.42114309  0.32755862  0.30597926  1  0  1.220321  0  2.752092  0  0  1.056655  0  3.078209  0  0  1.089096  0  3.054079  0  0  0.069324  1.033609  0  3.096232  0
B  B9  1  0.07885400  0.17243985  0.80597970  1  0  1.220194  0  2.752122  0  0  1.056512  0  3.078285  0  0  1.088943  0  3.054169  0  0  0.069273  1.033471  0  3.096292  0
B  B10  1  0.57885354  0.67243976  0.69402121  1  0  1.220127  0  2.7522  0  0  1.056339  0  3.078652  0  0  1.088813  0  3.054414  0  0  0.069255  1.03332  0  3.096614  0
B  B11  1  0.92114710  0.82755767  0.19402077  1  0  1.220331  0  2.75201  0  0  1.056644  0  3.078194  0  0  1.089067  0  3.054092  0  0  0.069324  1.033605  0  3.096205  0
B  B12  1  0.19825009  0.48587188  0.28184464  1  0  1.207557  0  2.77358  0  0  1.043107  0  3.100518  0  0  1.076153  0  3.074627  0  0  0.063365  1.019568  0  3.119859  0
B  B13  1  0.30175146  0.01412657  0.78184840  1  0  1.207573  0  2.773671  0  0  1.043126  0  3.100588  0  0  1.076219  0  3.074553  0  0  0.063401  1.019574  0  3.119973  0
B  B14  1  0.80174954  0.51412652  0.71815304  1  0  1.207523  0  2.773636  0  0  1.043083  0  3.100556  0  0  1.07614  0  3.074613  0  0  0.063374  1.019543  0  3.1199  0
B  B15  1  0.69825420  0.98587276  0.21815415  1  0  1.207525  0  2.773669  0  0  1.04308  0  3.100619  0  0  1.076284  0  3.074292  0  0  0.063391  1.019556  0  3.119904  0
B  B16  1  0.89983202  0.60706753  0.22753667  1  0  1.231031  0  2.781012  0  0  1.06834  0  3.111238  0  0  1.111982  0  3.06722  0  0  0.147986  1.037884  0  3.141346  0
B  B17  1  0.60016712  0.89292907  0.72753878  1  0  1.23103  0  2.781029  0  0  1.068281  0  3.111404  0  0  1.111956  0  3.067235  0  0  0.148015  1.037827  0  3.141505  0
B  B18  1  0.10016600  0.39292820  0.77246101  1  0  1.23088  0  2.781141  0  0  1.068178  0  3.11138  0  0  1.111881  0  3.067163  0  0  0.147976  1.037724  0  3.14148  0
B  B19  1  0.39983401  0.10706934  0.27246308  1  0  1.231047  0  2.781082  0  0  1.068324  0  3.11139  0  0  1.111979  0  3.067324  0  0  0.148014  1.037865  0  3.141502  0
B  B20  1  0.54558530  0.52340995  0.24155425  1  0  1.169413  0  2.870466  0  0  1.009091  0  3.197283  0  0  1.052168  0  3.154777  0  0  0.115686  0.978478  0  3.227557  0
B  B21  1  0.95441239  0.97658756  0.74155445  1  0  1.169426  0  2.87046  0  0  1.009063  0  3.197368  0  0  1.052121  0  3.154908  0  0  0.115654  0.978441  0  3.227662  0
B  B22  1  0.45441426  0.47658668  0.75844552  1  0  1.169453  0  2.870446  0  0  1.009108  0  3.197311  0  0  1.052168  0  3.154855  0  0  0.115645  0.978486  0  3.227606  0
B  B23  1  0.04558720  0.02340995  0.25844671  1  0  1.169458  0  2.870528  0  0  1.009062  0  3.197497  0  0  1.052104  0  3.155074  0  0  0.115684  0.978455  0  3.22776  0
H  H24  1  0.33062512  0.38329102  0.57385679  1  0  0.40243  0  0.843317  0  0  0.387029  0  0.896696  0  0  0.394579  0  0.888513  0  0  0.3394  0.381785  0  0.902365  0
H  H25  1  0.16938393  0.11671239  0.07385743  1  0  0.402356  0  0.843346  0  0  0.38699  0  0.896699  0  0  0.394535  0  0.888506  0  0  0.339398  0.381745  0  0.902372  0
H  H26  1  0.66938347  0.61670656  0.42614507  1  0  0.40247  0  0.843166  0  0  0.387081  0  0.896579  0  0  0.394629  0  0.888375  0  0  0.339456  0.381841  0  0.902253  0
H  H27  1  0.83062020  0.88328605  0.92613955  1  0  0.402474  0  0.84318  0  0  0.387096  0  0.896551  0  0  0.39464  0  0.888359  0  0  0.339418  0.381855  0  0.902222  0
H  H28  1  0.68771564  0.42420374  0.09378937  1  0  0.05883  0  0.942028  0  0  0.080585  0  0.999751  0  0  0.080396  0  0.999965  0  0  0.112406  0.080565  0  0.999753  0
H  H29  1  0.81227927  0.07579962  0.59378763  1  0  0.058814  0  0.9421  0  0  0.080542  0  0.999828  0  0  0.080351  0  1.000044  0  0  0.112415  0.080523  0  0.99983  0
H  H30  1  0.31228277  0.57580175  0.90620971  1  0  0.05886  0  0.942136  0  0  0.080589  0  0.999841  0  0  0.080402  0  1.000051  0  0  0.112415  0.080568  0  0.999843  0
H  H31  1  0.18771589  0.92419964  0.40621144  1  0  0.058865  0  0.942109  0  0  0.080595  0  0.999817  0  0  0.080411  0  1.000025  0  0  0.112424  0.080574  0  0.999822  0
H  H32  1  0.53404588  0.29412065  0.10464755  1  0  0.078018  0  0.916028  0  0  0.097323  0  0.97248  0  0  0.098148  0  0.971998  0  0  0.115762  0.096599  0  0.972969  0
H  H33  1  0.96594744  0.20588006  0.60464810  1  0  0.078042  0  0.916031  0  0  0.097296  0  0.972526  0  0  0.098122  0  0.972042  0  0  0.115762  0.096573  0  0.973015  0
H  H34  1  0.46594647  0.70588302  0.89535083  1  0  0.078061  0  0.915986  0  0  0.097306  0  0.972486  0  0  0.098128  0  0.972008  0  0  0.115755  0.096581  0  0.972976  0
H  H35  1  0.03404926  0.79412010  0.39535167  1  0  0.078054  0  0.916057  0  0  0.097319  0  0.972525  0  0  0.098145  0  0.972041  0  0  0.115772  0.096596  0  0.973014  0
H  H36  1  0.51827823  0.37160306  0.94510183  1  0  0.066524  0  0.924682  0  0  0.087417  0  0.982401  0  0  0.087301  0  0.982895  0  0  0.109518  0.087377  0  0.982142  0
H  H37  1  0.98171994  0.12839837  0.44510254  1  0  0.066558  0  0.924652  0  0  0.087414  0  0.982415  0  0  0.087325  0  0.982878  0  0  0.109521  0.087373  0  0.982156  0
H  H38  1  0.48172760  0.62840070  0.05489515  1  0  0.06653  0  0.924692  0  0  0.087393  0  0.982459  0  0  0.087303  0  0.982919  0  0  0.109527  0.087355  0  0.982197  0
H  H39  1  0.01827833  0.87160357  0.55489723  1  0  0.066562  0  0.92463  0  0  0.087423  0  0.982377  0  0  0.087324  0  0.98285  0  0  0.109529  0.087382  0  0.982118  0
H  H40  1  0.78153606  0.37905270  0.93418366  1  0  0.071156  0  0.916541  0  0  0.091762  0  0.97161  0  0  0.092308  0  0.971453  0  0  0.111979  0.091223  0  0.971901  0
H  H41  1  0.71846207  0.12094783  0.43418154  1  0  0.071191  0  0.916435  0  0  0.091791  0  0.971523  0  0  0.092336  0  0.971373  0  0  0.111979  0.091254  0  0.971813  0
H  H42  1  0.21846967  0.62094841  0.06581750  1  0  0.071162  0  0.916511  0  0  0.09177  0  0.971586  0  0  0.092316  0  0.97143  0  0  0.11198  0.091232  0  0.971875  0
H  H43  1  0.28153471  0.87905410  0.56581754  1  0  0.071168  0  0.916528  0  0  0.091767  0  0.971596  0  0  0.092313  0  0.971441  0  0  0.111965  0.091229  0  0.971885  0
H  H44  1  0.96890273  0.28732081  0.07449576  1  0  0.289138  0  0.888165  0  0  0.287925  0  0.930107  0  0  0.293277  0  0.927103  0  0  0.302583  0.283992  0  0.932494  0
H  H45  1  0.53108756  0.21267982  0.57449624  1  0  0.28917  0  0.88819  0  0  0.287956  0  0.930124  0  0  0.293307  0  0.927125  0  0  0.302667  0.284024  0  0.932504  0
H  H46  1  0.03108954  0.71268109  0.92550610  1  0  0.289151  0  0.888237  0  0  0.287934  0  0.930174  0  0  0.293286  0  0.927173  0  0  0.302639  0.284002  0  0.932555  0
H  H47  1  0.46890761  0.78731944  0.42550423  1  0  0.289116  0  0.888196  0  0  0.287906  0  0.930132  0  0  0.293257  0  0.927133  0  0  0.30259  0.283973  0  0.932515  0
H  H48  1  0.80977897  0.17520846  0.10258048  1  0  0.303847  0  0.93061  0  0  0.288446  0  0.993861  0  0  0.295603  0  0.989009  0  0  0.295841  0.28338  0  0.997259  0
H  H49  1  0.69021592  0.32479403  0.60258113  1  0  0.303859  0  0.930613  0  0  0.288455  0  0.993874  0  0  0.295619  0  0.989007  0  0  0.295823  0.283389  0  0.997271  0
H  H50  1  0.19021495  0.82479700  0.89741998  1  0  0.303822  0  0.930541  0  0  0.288412  0  0.993829  0  0  0.295575  0  0.988962  0  0  0.295793  0.283345  0  0.997226  0
H  H51  1  0.30978074  0.67520523  0.39741864  1  0  0.303848  0  0.930597  0  0  0.288439  0  0.993868  0  0  0.295601  0  0.989003  0  0  0.295824  0.283373  0  0.997263  0
H  H52  1  0.55461679  0.15129824  0.95657165  1  0  0.299493  0  0.898307  0  0  0.292546  0  0.949606  0  0  0.297919  0  0.946641  0  0  0.307832  0.288697  0  0.951795  0
H  H53  1  0.94538582  0.34870147  0.45657054  1  0  0.299485  0  0.898392  0  0  0.292525  0  0.949711  0  0  0.297895  0  0.946748  0  0  0.30783  0.288675  0  0.951899  0
H  H54  1  0.44538601  0.84870462  0.04342812  1  0  0.299507  0  0.898334  0  0  0.292537  0  0.949665  0  0  0.297911  0  0.946713  0  0  0.307812  0.288687  0  0.951847  0
H  H55  1  0.05461388  0.65129870  0.54343062  1  0  0.299467  0  0.898329  0  0  0.292513  0  0.949639  0  0  0.297882  0  0.946687  0  0  0.307829  0.288661  0  0.951824  0
H  H56  1  0.79350171  0.17248609  0.93158287  1  0  0.309593  0  0.916624  0  0  0.293598  0  0.980043  0  0  0.300384  0  0.975751  0  0  0.299656  0.288763  0  0.983072  0
H  H57  1  0.70649952  0.32751712  0.43158170  1  0  0.309576  0  0.916607  0  0  0.29358  0  0.980027  0  0  0.300365  0  0.975739  0  0  0.299649  0.288745  0  0.983052  0
H  H58  1  0.20650113  0.82751766  0.06841760  1  0  0.309578  0  0.916515  0  0  0.293581  0  0.979947  0  0  0.300368  0  0.975654  0  0  0.299633  0.288746  0  0.982976  0
H  H59  1  0.29350025  0.67248483  0.56841877  1  0  0.309511  0  0.916603  0  0  0.293568  0  0.979982  0  0  0.300352  0  0.975694  0  0  0.299612  0.288733  0  0.98301  0
C  C60  1  0.67134725  0.33101579  0.07189370  1  0  0.049372  0  3.646464  0  0  -0.010062  0  3.915951  0  0  -0.005688  0  3.928503  0  0  -0.071723  -0.012877  0  3.907241  0
C  C61  1  0.82864764  0.16898753  0.57189279  1  0  0.049351  0  3.646684  0  0  -0.010005  0  3.916114  0  0  -0.005632  0  3.928673  0  0  -0.071765  -0.012825  0  3.907412  0
C  C62  1  0.32864813  0.66898879  0.92810676  1  0  0.049246  0  3.646819  0  0  -0.010087  0  3.916232  0  0  -0.005715  0  3.928795  0  0  -0.071755  -0.012907  0  3.907532  0
C  C63  1  0.17135053  0.83101175  0.42810629  1  0  0.04924  0  3.646846  0  0  -0.01011  0  3.916236  0  0  -0.005736  0  3.928786  0  0  -0.071766  -0.012931  0  3.907537  0
C  C64  1  0.65601440  0.32799670  0.96600536  1  0  0.047966  0  3.665618  0  0  -0.013425  0  3.938444  0  0  -0.009349  0  3.95181  0  0  -0.074129  -0.016074  0  3.929179  0
C  C65  1  0.84398533  0.17200567  0.46600541  1  0  0.0479  0  3.665536  0  0  -0.013479  0  3.93835  0  0  -0.009423  0  3.951722  0  0  -0.074127  -0.016128  0  3.929085  0
C  C66  1  0.34399147  0.67200795  0.03399371  1  0  0.04797  0  3.665614  0  0  -0.013416  0  3.938439  0  0  -0.009357  0  3.951813  0  0  -0.074139  -0.016066  0  3.929171  0
C  C67  1  0.15601141  0.82799537  0.53399366  1  0  0.047898  0  3.665711  0  0  -0.01346  0  3.93848  0  0  -0.009396  0  3.951848  0  0  -0.074155  -0.016109  0  3.929212  0
N  N68  1  0.84046135  0.26529826  0.11050097  1  0  -0.64163  0  3.070598  0  0  -0.583887  0  3.324844  0  0  -0.605362  0  3.323374  0  0  -0.622422  -0.568843  0  3.325524  0
N  N69  1  0.65953633  0.23469894  0.61050080  1  0  -0.641655  0  3.070742  0  0  -0.583917  0  3.324975  0  0  -0.605392  0  3.323502  0  0  -0.622464  -0.568871  0  3.325651  0
N  N70  1  0.15953670  0.73469835  0.88950019  1  0  -0.641593  0  3.070712  0  0  -0.583853  0  3.324929  0  0  -0.605328  0  3.323463  0  0  -0.622426  -0.568806  0  3.3256  0
N  N71  1  0.34046034  0.76530032  0.38949966  1  0  -0.641547  0  3.070694  0  0  -0.583817  0  3.324902  0  0  -0.605293  0  3.323435  0  0  -0.622382  -0.568771  0  3.325576  0
N  N72  1  0.65478547  0.20870538  0.92436957  1  0  -0.63087  0  3.068242  0  0  -0.567982  0  3.318199  0  0  -0.589862  0  3.31796  0  0  -0.621843  -0.55261  0  3.317972  0
N  N73  1  0.84521422  0.29129691  0.42436908  1  0  -0.630894  0  3.068313  0  0  -0.567928  0  3.31814  0  0  -0.589815  0  3.31792  0  0  -0.621849  -0.552553  0  3.317907  0
N  N74  1  0.34521887  0.79129837  0.07563020  1  0  -0.63086  0  3.068041  0  0  -0.567953  0  3.317999  0  0  -0.589849  0  3.317784  0  0  -0.621804  -0.552575  0  3.317767  0
N  N75  1  0.15478256  0.70870502  0.57563209  1  0  -0.630738  0  3.068196  0  0  -0.567873  0  3.318011  0  0  -0.589761  0  3.317784  0  0  -0.621779  -0.552495  0  3.31778  0
O  O76  1  0.26595627  0.44325579  0.53719880  1  0  -0.774684  0  1.933976  0  0  -0.706567  0  2.153779  0  0  -0.72655  0  2.128991  0  0  -0.364905  -0.692162  0  2.170465  0
O  O77  1  0.23404535  0.05675015  0.03720426  1  0  -0.774553  0  1.933963  0  0  -0.70653  0  2.153864  0  0  -0.726496  0  2.129089  0  0  -0.364906  -0.69213  0  2.170538  0
O  O78  1  0.73404064  0.55674969  0.46279330  1  0  -0.774639  0  1.933772  0  0  -0.706607  0  2.15366  0  0  -0.726573  0  2.128888  0  0  -0.364966  -0.692212  0  2.17033  0
O  O79  1  0.76596056  0.94325539  0.96279969  1  0  -0.774715  0  1.933882  0  0  -0.706667  0  2.15373  0  0  -0.726634  0  2.128939  0  0  -0.364931  -0.692266  0  2.170414  0
O  O80  1  0.40194213  0.33340885  0.40993966  1  0  -0.897581  0  2.071322  0  0  -0.795964  0  2.32673  0  0  -0.821619  0  2.303597  0  0  -0.218595  -0.777588  0  2.342222  0
O  O81  1  0.09805648  0.16658806  0.90994079  1  0  -0.897569  0  2.071338  0  0  -0.795923  0  2.326715  0  0  -0.82159  0  2.303624  0  0  -0.218599  -0.777554  0  2.342201  0
O  O82  1  0.59805592  0.66658776  0.59005942  1  0  -0.897545  0  2.071323  0  0  -0.795894  0  2.326717  0  0  -0.821561  0  2.303615  0  0  -0.218614  -0.777524  0  2.3422  0
O  O83  1  0.90194614  0.83341036  0.09005898  1  0  -0.897551  0  2.071299  0  0  -0.795898  0  2.32664  0  0  -0.82158  0  2.303553  0  0  -0.218585  -0.777526  0  2.342135  0
O  O84  1  0.23432590  0.36076559  0.26191287  1  0  -0.966457  0  2.100019  0  0  -0.851976  0  2.365977  0  0  -0.880034  0  2.346872  0  0  -0.240656  -0.831671  0  2.37831  0
O  O85  1  0.26567410  0.13923192  0.76191539  1  0  -0.966426  0  2.100041  0  0  -0.851952  0  2.366002  0  0  -0.880008  0  2.346896  0  0  -0.240683  -0.831649  0  2.378339  0
O  O86  1  0.76567523  0.63923282  0.73808620  1  0  -0.966379  0  2.100015  0  0  -0.851892  0  2.365993  0  0  -0.879947  0  2.346882  0  0  -0.240651  -0.831592  0  2.378322  0
O  O87  1  0.73433002  0.86076651  0.23808438  1  0  -0.966501  0  2.1001  0  0  -0.852024  0  2.366071  0  0  -0.880081  0  2.346924  0  0  -0.240712  -0.831724  0  2.378402  0
O  O88  1  0.21190279  0.50958609  0.38471547  1  0  -0.86942  0  2.069257  0  0  -0.756919  0  2.315501  0  0  -0.784137  0  2.29448  0  0  -0.201832  -0.737561  0  2.329599  0
O  O89  1  0.28810021  0.99041174  0.88471843  1  0  -0.869463  0  2.069395  0  0  -0.756969  0  2.315664  0  0  -0.784193  0  2.294653  0  0  -0.20185  -0.737617  0  2.329759  0
O  O90  1  0.78809834  0.49041232  0.61528291  1  0  -0.869397  0  2.069365  0  0  -0.756934  0  2.315661  0  0  -0.784153  0  2.294655  0  0  -0.20186  -0.737581  0  2.329753  0
O  O91  1  0.71190395  0.00958758  0.11528343  1  0  -0.869388  0  2.069253  0  0  -0.756913  0  2.315506  0  0  -0.784147  0  2.29446  0  0  -0.201846  -0.737559  0  2.329599  0
O  O92  1  0.99567355  0.50563697  0.24807789  1  0  -0.877946  0  2.160487  0  0  -0.760601  0  2.433645  0  0  -0.789963  0  2.408761  0  0  -0.189683  -0.73995  0  2.450278  0
O  O93  1  0.50432568  0.99436145  0.74808151  1  0  -0.877933  0  2.16044  0  0  -0.760567  0  2.4336  0  0  -0.789919  0  2.408682  0  0  -0.189753  -0.739914  0  2.450235  0
O  O94  1  0.00432454  0.49436054  0.75192118  1  0  -0.877875  0  2.160494  0  0  -0.760525  0  2.433651  0  0  -0.789884  0  2.40874  0  0  -0.189718  -0.739874  0  2.450283  0
O  O95  1  0.49567698  0.00563786  0.25192105  1  0  -0.877866  0  2.160454  0  0  -0.760511  0  2.433616  0  0  -0.7899  0  2.40871  0  0  -0.189708  -0.739865  0  2.450247  0
O  O96  1  0.99974471  0.71373747  0.22114481  1  0  -0.869223  0  2.131201  0  0  -0.755236  0  2.400258  0  0  -0.783962  0  2.376494  0  0  -0.187116  -0.735042  0  2.416201  0
O  O97  1  0.50025453  0.78626178  0.72114677  1  0  -0.86921  0  2.131267  0  0  -0.755203  0  2.40035  0  0  -0.783942  0  2.37657  0  0  -0.187125  -0.735009  0  2.416288  0
O  O98  1  0.00025342  0.28626092  0.77885427  1  0  -0.869131  0  2.131275  0  0  -0.755139  0  2.400336  0  0  -0.783877  0  2.376561  0  0  -0.1871  -0.734945  0  2.416276  0
O  O99  1  0.49974517  0.21373839  0.27885231  1  0  -0.869258  0  2.131277  0  0  -0.755279  0  2.400389  0  0  -0.784021  0  2.376621  0  0  -0.187128  -0.735077  0  2.416324  0
O  O100  1  0.69400446  0.60317827  0.21119140  1  0  -0.857307  0  2.155687  0  0  -0.747432  0  2.427674  0  0  -0.774153  0  2.396468  0  0  -0.16865  -0.728486  0  2.448596  0
O  O101  1  0.80599470  0.89681919  0.71119495  1  0  -0.857258  0  2.155724  0  0  -0.747342  0  2.427681  0  0  -0.774066  0  2.396467  0  0  -0.168581  -0.728398  0  2.448604  0
O  O102  1  0.30599503  0.39681659  0.78880210  1  0  -0.857268  0  2.155781  0  0  -0.747362  0  2.427709  0  0  -0.774098  0  2.396498  0  0  -0.168648  -0.728412  0  2.448629  0
O  O103  1  0.19400636  0.10317744  0.28881039  1  0  -0.857332  0  2.155726  0  0  -0.747458  0  2.42777  0  0  -0.774176  0  2.396565  0  0  -0.168648  -0.728516  0  2.448695  0
O  O104  1  0.35419608  0.56428837  0.23608054  1  0  -0.895837  0  2.14653  0  0  -0.781273  0  2.414221  0  0  -0.810846  0  2.391995  0  0  -0.199842  -0.76025  0  2.428825  0
O  O105  1  0.14580237  0.93571178  0.73608410  1  0  -0.895945  0  2.146576  0  0  -0.781327  0  2.414208  0  0  -0.810918  0  2.392015  0  0  -0.199878  -0.760303  0  2.42881  0
O  O106  1  0.64580212  0.43571180  0.76391784  1  0  -0.895891  0  2.146594  0  0  -0.781295  0  2.414262  0  0  -0.810875  0  2.392049  0  0  -0.199819  -0.760268  0  2.428853  0
O  O107  1  0.85420179  0.06428754  0.26391636  1  0  -0.895886  0  2.146667  0  0  -0.781297  0  2.414365  0  0  -0.810881  0  2.392112  0  0  -0.199858  -0.760274  0  2.428951  0
O  O108  1  0.58662898  0.41471919  0.27648586  1  0  -0.906067  0  2.19847  0  0  -0.785206  0  2.463625  0  0  -0.815983  0  2.442529  0  0  -0.196816  -0.763198  0  2.477111  0
O  O109  1  0.91336744  0.08528012  0.77648346  1  0  -0.90601  0  2.198477  0  0  -0.785115  0  2.463581  0  0  -0.815909  0  2.442542  0  0  -0.196751  -0.763088  0  2.477033  0
O  O110  1  0.41336768  0.58528008  0.72351670  1  0  -0.906014  0  2.198489  0  0  -0.785114  0  2.46364  0  0  -0.815884  0  2.442527  0  0  -0.196728  -0.7631  0  2.477109  0
O  O111  1  0.08663215  0.91471739  0.22351770  1  0  -0.906127  0  2.198638  0  0  -0.785195  0  2.463727  0  0  -0.815999  0  2.442707  0  0  -0.196787  -0.763168  0  2.477175  0
