# generated using pymatgen
data_CuH10C6N2O5
_symmetry_space_group_name_H-M   'P 1'
_cell_length_a   7.98559613
_cell_length_b   8.31538980
_cell_length_c   8.57945110
_cell_angle_alpha   92.14734374
_cell_angle_beta   115.29352486
_cell_angle_gamma   110.62944229
_symmetry_Int_Tables_number   1
_chemical_formula_structural   CuH10C6N2O5
_chemical_formula_sum   'Cu2 H20 C12 N4 O10'
_cell_volume   470.01004661
_cell_formula_units_Z   2
loop_
 _symmetry_equiv_pos_site_id
 _symmetry_equiv_pos_as_xyz
  1  'x, y, z'
loop_
 _atom_site_type_symbol
 _atom_site_label
 _atom_site_symmetry_multiplicity
 _atom_site_fract_x
 _atom_site_fract_y
 _atom_site_fract_z
 _atom_site_occupancy
 _atom_site_hle17_ddec_charge
 _atom_site_hle17_ddec_spin_density
 _atom_site_hle17_ddec_sum_bond_order
 _atom_site_hle17_magmom
 _atom_site_hse06_10hf_ddec_charge
 _atom_site_hse06_10hf_ddec_spin_density
 _atom_site_hse06_10hf_ddec_sum_bond_order
 _atom_site_hse06_10hf_magmom
 _atom_site_hse06_ddec_charge
 _atom_site_hse06_ddec_spin_density
 _atom_site_hse06_ddec_sum_bond_order
 _atom_site_hse06_magmom
 _atom_site_pbe_cm5_charge
 _atom_site_pbe_ddec_charge
 _atom_site_pbe_ddec_spin_density
 _atom_site_pbe_ddec_sum_bond_order
 _atom_site_pbe_magmom
Cu  Cu0  1  0.58271631  0.63395869  0.62560704  1  0.886348  -0.662306  1.84808  -0.477  0.879512  -0.79175  2.251881  -0.627  0.996335  -0.882104  2.137674  -0.727  0.669357  0.812196  -0.690297  2.314223  -0.536
Cu  Cu1  1  0.41727183  0.36602127  0.37439418  1  0.886348  0.662324  1.848209  0.477  0.879428  0.791758  2.25207  0.627  0.996329  0.882111  2.137847  0.727  0.669368  0.812145  0.690316  2.314414  0.536
H  H2  1  0.08923171  0.67452440  0.04741840  1  0.113525  -0.001404  0.941845  -0.002  0.122813  -0.000916  1.008148  -0.001  0.12488  -0.000565  1.007561  -0.001  0.099511  0.121172  -0.00112  1.008627  -0.001
H  H3  1  0.91077606  0.32546574  0.95260436  1  0.113516  0.001404  0.941751  0.002  0.122756  0.000917  1.00812  0.001  0.124828  0.000565  1.007533  0.001  0.099436  0.12111  0.00112  1.008608  0.001
H  H4  1  0.19393567  0.85964586  0.22450386  1  0.119968  0.001272  0.934735  0.002  0.132007  0.000787  0.991147  0.001  0.133348  0.000509  0.991532  0.001  0.101728  0.130858  0.000938  0.990969  0.001
H  H5  1  0.80607356  0.14035940  0.77550540  1  0.120008  -0.001272  0.934703  -0.002  0.132026  -0.000787  0.991127  -0.001  0.133365  -0.00051  0.991515  -0.001  0.101762  0.130883  -0.000938  0.990934  -0.001
H  H6  1  0.81347862  0.64604256  0.09948196  1  0.078441  -0.000141  0.944764  0.0  0.092818  -8.7e-05  1.008512  0.0  0.092498  -3.5e-05  1.009665  0.0  0.093284  0.093208  -0.000129  1.007565  0.0
H  H7  1  0.18651471  0.35395487  0.90051444  1  0.078437  0.000141  0.944811  0.0  0.092837  8.7e-05  1.008541  0.0  0.092515  3.5e-05  1.009689  0.0  0.093315  0.093225  0.000129  1.0076  0.0
H  H8  1  0.89960547  0.49050311  0.19910315  1  0.063275  0.000216  0.931903  0.0  0.083269  0.000183  0.989653  0.0  0.083802  0.000105  0.989659  0.0  0.090771  0.082943  0.000236  0.989695  0.0
H  H9  1  0.10039530  0.50949559  0.80089987  1  0.063261  -0.000218  0.931909  0.0  0.083255  -0.000183  0.989675  0.0  0.083786  -0.000105  0.989681  0.0  0.090764  0.082927  -0.000236  0.989718  0.0
H  H10  1  0.00930246  0.85982372  0.39662147  1  0.110127  0.0007  0.926888  0.001  0.124836  0.000475  0.985741  0.0  0.127259  0.00033  0.984572  0.0  0.102424  0.122968  0.000531  0.986631  0.0
H  H11  1  0.99067440  0.14018013  0.60336519  1  0.110278  -0.000697  0.926724  -0.001  0.124958  -0.000474  0.98557  0.0  0.127382  -0.00033  0.9844  0.0  0.102418  0.123087  -0.00053  0.986455  0.0
H  H12  1  0.10074995  0.70728608  0.49669252  1  0.115639  0.00034  0.919955  0.0  0.132016  0.000216  0.974386  0.0  0.134286  0.00018  0.9738  0.0  0.104775  0.130477  0.000211  0.974681  0.0
H  H13  1  0.89925156  0.29273256  0.50330522  1  0.115764  -0.000337  0.920068  0.0  0.132113  -0.000215  0.974466  0.0  0.134391  -0.00018  0.973868  0.0  0.104847  0.130574  -0.000211  0.974762  0.0
H  H14  1  0.43083455  0.69513433  0.86965291  1  0.353875  6e-06  0.912212  0.0  0.332391  -1.4e-05  0.98422  0.0  0.341474  3e-05  0.975333  0.0  0.30225  0.325916  -5.3e-05  0.990715  0.0
H  H15  1  0.56916744  0.30486996  0.13034401  1  0.353881  -6e-06  0.912135  0.0  0.332403  1.4e-05  0.984132  0.0  0.341488  -3e-05  0.975252  0.0  0.302272  0.32593  5.4e-05  0.990627  0.0
H  H16  1  0.49686954  0.83115734  0.06482169  1  0.33835  -6e-06  0.873199  0.0  0.333187  -6e-06  0.91492  0.0  0.339819  -6e-06  0.910188  0.0  0.316827  0.328524  -5e-06  0.918245  0.0
H  H17  1  0.50314083  0.16885289  0.93516738  1  0.338436  5e-06  0.873221  0.0  0.33335  6e-06  0.914828  0.0  0.339983  6e-06  0.910098  0.0  0.31688  0.328684  5e-06  0.918157  0.0
H  H18  1  0.82856320  0.06398637  0.21815228  1  0.338851  8.9e-05  0.876973  0.0  0.327864  9.4e-05  0.929209  0.0  0.33567  5.9e-05  0.922437  0.0  0.315085  0.322372  0.000118  0.933991  0.0
H  H19  1  0.17143728  0.93601141  0.78184240  1  0.338845  -8.9e-05  0.877157  0.0  0.327884  -9.4e-05  0.929334  0.0  0.335691  -6e-05  0.922563  0.0  0.315118  0.322391  -0.000118  0.93411  0.0
H  H20  1  0.99687307  0.08335104  0.13271195  1  0.365914  -8e-06  0.902237  0.0  0.342318  -5e-06  0.970532  0.0  0.35123  -5e-06  0.962135  0.0  0.305296  0.335969  -3e-06  0.9766  0.0
H  H21  1  0.00314505  0.91665217  0.86729262  1  0.365902  8e-06  0.902319  0.0  0.34231  5e-06  0.970588  0.0  0.351218  5e-06  0.9622  0.0  0.305297  0.335958  3e-06  0.976659  0.0
C  C22  1  0.28655528  0.64879807  0.30057331  1  0.679445  0.000952  3.823859  0.001  0.648085  0.000455  4.125621  0.001  0.688406  0.000484  4.122208  0.001  0.207963  0.620541  0.000396  4.128894  0.001
C  C23  1  0.71343328  0.35118877  0.69942157  1  0.679258  -0.000955  3.824049  -0.001  0.647882  -0.000457  4.125837  -0.001  0.688208  -0.000484  4.122428  -0.001  0.207912  0.62034  -0.000393  4.129106  -0.001
C  C24  1  0.13118603  0.71539532  0.18656144  1  -0.263735  -0.001675  3.625215  -0.002  -0.30148  -0.000904  3.872029  -0.001  -0.310506  -0.000553  3.880956  -0.001  -0.167156  -0.293975  -0.001059  3.865  -0.001
C  C25  1  0.86881330  0.28460670  0.81345290  1  -0.263752  0.001674  3.625091  0.002  -0.301394  0.000904  3.871801  0.001  -0.31043  0.000553  3.880731  0.001  -0.167132  -0.293897  0.001056  3.864766  0.001
C  C26  1  0.94039461  0.63289927  0.20998516  1  -0.050155  -0.00182  3.66346  -0.002  -0.09144  -0.001083  3.922577  -0.001  -0.089176  -0.000706  3.935322  -0.001  -0.162515  -0.093115  -0.001269  3.913392  -0.002
C  C27  1  0.05960231  0.36710322  0.79001774  1  -0.050062  0.001828  3.663461  0.002  -0.091436  0.001082  3.922604  0.001  -0.089165  0.000705  3.935337  0.001  -0.16255  -0.093114  0.001266  3.913422  0.002
C  C28  1  0.97055210  0.71767282  0.38578917  1  -0.26488  -0.000675  3.669068  -0.001  -0.303199  -0.000135  3.91893  0.0  -0.311638  9e-06  3.92722  0.0  -0.163943  -0.296281  -0.000255  3.91234  0.0
C  C29  1  0.02943419  0.28233363  0.61420501  1  -0.265238  0.000661  3.669237  0.001  -0.303412  0.000135  3.918965  0.0  -0.311852  -1e-05  3.92724  0.0  -0.164011  -0.29649  0.000253  3.912374  0.0
C  C30  1  0.79122139  0.63877030  0.42106321  1  0.691546  0.000405  3.816806  0.001  0.654277  -9.6e-05  4.120563  0.0  0.694201  -2.2e-05  4.116385  0.0  0.215065  0.626901  -0.000136  4.124239  0.0
C  C31  1  0.20877625  0.36123079  0.57894221  1  0.691591  -0.000397  3.816811  -0.001  0.654269  9.5e-05  4.120568  0.0  0.694191  2.3e-05  4.116392  0.0  0.215155  0.626892  0.00014  4.124246  0.0
C  C32  1  0.71059047  0.89654362  0.97627208  1  0.85353  0.000189  3.896121  0.0  0.788085  0.000169  4.197378  0.0  0.823873  0.000141  4.191186  0.0  0.331339  0.763717  0.000182  4.201051  0.0
C  C33  1  0.28942299  0.10345838  0.02372701  1  0.853249  -0.00019  3.896329  0.0  0.78789  -0.000169  4.197499  0.0  0.823675  -0.000143  4.191321  0.0  0.331259  0.763528  -0.000182  4.201161  0.0
N  N34  1  0.52183983  0.81216095  0.96076076  1  -0.761697  -6.9e-05  3.024162  0.0  -0.727625  -1.2e-05  3.256229  0.0  -0.748112  1.8e-05  3.24536  0.0  -0.590658  -0.713413  -4.4e-05  3.263549  0.0
N  N35  1  0.47817097  0.18784116  0.03923375  1  -0.76165  7e-05  3.024242  0.0  -0.72769  1.2e-05  3.25618  0.0  -0.748183  -1.7e-05  3.245315  0.0  -0.590661  -0.71348  4.3e-05  3.263493  0.0
N  N36  1  0.85181873  0.03013666  0.11703218  1  -0.755042  0.000226  3.067851  0.0  -0.717244  0.000201  3.30878  0.0  -0.737437  0.000117  3.297419  0.0  -0.584339  -0.703284  0.00027  3.316307  0.0
N  N37  1  0.14819414  0.96986401  0.88296657  1  -0.754962  -0.000226  3.068074  0.0  -0.717198  -0.000201  3.308935  0.0  -0.737389  -0.000116  3.297576  0.0  -0.584381  -0.703237  -0.000272  3.316451  0.0
O  O38  1  0.41392053  0.73924763  0.45746873  1  -0.566625  -0.084671  2.038289  -0.111  -0.548027  -0.05629  2.305067  -0.082  -0.594722  -0.044267  2.294979  -0.068  -0.317436  -0.519652  -0.059474  2.311903  -0.083
O  O39  1  0.58608291  0.26075334  0.54251687  1  -0.566567  0.084669  2.038519  0.111  -0.547935  0.056293  2.305292  0.082  -0.594649  0.04427  2.295222  0.068  -0.317383  -0.519559  0.059472  2.312119  0.083
O  O40  1  0.26890656  0.50068186  0.23240836  1  -0.588196  0.075504  2.079012  0.099  -0.567884  0.051328  2.359814  0.074  -0.616007  0.040745  2.353082  0.062  -0.319315  -0.538305  0.054251  2.364308  0.075
O  O41  1  0.73107574  0.49930055  0.76759183  1  -0.588085  -0.07551  2.079168  -0.099  -0.567796  -0.05133  2.359968  -0.074  -0.615888  -0.040749  2.353189  -0.062  -0.319301  -0.538214  -0.054256  2.364451  -0.075
O  O42  1  0.79484913  0.72826687  0.54705663  1  -0.583652  -0.072699  2.064191  -0.096  -0.559102  -0.051459  2.338946  -0.075  -0.605317  -0.041349  2.32963  -0.064  -0.316046  -0.530496  -0.052745  2.345065  -0.074
O  O43  1  0.20516433  0.27173563  0.45295882  1  -0.583729  0.072688  2.064264  0.096  -0.559147  0.051454  2.339033  0.075  -0.605374  0.041345  2.329726  0.064  -0.316112  -0.530548  0.052736  2.345173  0.074
O  O44  1  0.65243061  0.48836280  0.32621369  1  -0.606699  0.063856  2.118038  0.085  -0.571096  0.047306  2.389454  0.068  -0.616861  0.03874  2.380668  0.059  -0.309874  -0.542738  0.047946  2.395459  0.067
O  O45  1  0.34756034  0.51164197  0.67379161  1  -0.606595  -0.063859  2.117954  -0.085  -0.570996  -0.047307  2.389399  -0.068  -0.616756  -0.038742  2.380622  -0.059  -0.309883  -0.54264  -0.04795  2.395406  -0.067
O  O46  1  0.75165988  0.85442584  0.85771068  1  -0.668196  0.00096  1.996781  0.0  -0.606389  0.000662  2.236896  0.0  -0.63735  0.000779  2.21985  0.0  -0.324401  -0.586521  0.000504  2.247602  0.0
O  O47  1  0.24834838  0.14557078  0.14228707  1  -0.66809  -0.000959  1.99684  0.0  -0.606346  -0.000661  2.236966  0.0  -0.63732  -0.000779  2.219929  0.0  -0.324382  -0.586478  -0.000503  2.247667  0.0
