# generated using pymatgen
data_Cd3H32C12Br6(N2O)4
_symmetry_space_group_name_H-M   'P 1'
_cell_length_a   7.20810857
_cell_length_b   7.51027572
_cell_length_c   14.39439956
_cell_angle_alpha   70.76989042
_cell_angle_beta   87.82620874
_cell_angle_gamma   74.97816570
_symmetry_Int_Tables_number   1
_chemical_formula_structural   Cd3H32C12Br6(N2O)4
_chemical_formula_sum   'Cd3 H32 C12 Br6 N8 O4'
_cell_volume   709.65518756
_cell_formula_units_Z   1
loop_
 _symmetry_equiv_pos_site_id
 _symmetry_equiv_pos_as_xyz
  1  'x, y, z'
loop_
 _atom_site_type_symbol
 _atom_site_label
 _atom_site_symmetry_multiplicity
 _atom_site_fract_x
 _atom_site_fract_y
 _atom_site_fract_z
 _atom_site_occupancy
 _atom_site_hle17_bader_spin_density
 _atom_site_hle17_ddec_charge
 _atom_site_hle17_ddec_spin_density
 _atom_site_hle17_ddec_sum_bond_order
 _atom_site_hle17_magmom
 _atom_site_hse06_10hf_bader_spin_density
 _atom_site_hse06_10hf_ddec_charge
 _atom_site_hse06_10hf_ddec_spin_density
 _atom_site_hse06_10hf_ddec_sum_bond_order
 _atom_site_hse06_10hf_magmom
 _atom_site_hse06_bader_spin_density
 _atom_site_hse06_ddec_charge
 _atom_site_hse06_ddec_spin_density
 _atom_site_hse06_ddec_sum_bond_order
 _atom_site_hse06_magmom
 _atom_site_pbe_bader_spin_density
 _atom_site_pbe_cm5_charge
 _atom_site_pbe_ddec_charge
 _atom_site_pbe_ddec_spin_density
 _atom_site_pbe_ddec_sum_bond_order
 _atom_site_pbe_magmom
Cd  Cd0  1  0.99999624  0.99999335  0.00000608  1  0  0.978039  0  1.843119  0  0  0.815866  0  2.278429  0  0  0.864781  0  2.236309  0  0  0.607674  0.781698  0  2.306664  0
Cd  Cd1  1  0.24094629  0.55611495  0.43430397  1  0  0.887836  0  1.886773  0  0  0.731702  0  2.317231  0  0  0.782328  0  2.278321  0  0  0.524861  0.69609  0  2.34362  0
Cd  Cd2  1  0.75909442  0.44387654  0.56568573  1  0  0.887817  0  1.886999  0  0  0.731725  0  2.317392  0  0  0.782351  0  2.27848  0  0  0.524821  0.696111  0  2.343797  0
H  H3  1  0.32577055  0.00457356  0.39604863  1  0  0.08162  0  0.928871  0  0  0.090794  0  1.000514  0  0  0.091835  0  0.999492  0  0  0.106449  0.089929  0  1.001455  0
H  H4  1  0.67425524  0.99540832  0.60395041  1  0  0.081698  0  0.928753  0  0  0.090777  0  1.000503  0  0  0.091809  0  0.999479  0  0  0.106434  0.089914  0  1.001439  0
H  H5  1  0.08362148  0.04183060  0.35495094  1  0  0.074892  0  0.932344  0  0  0.085074  0  1.003082  0  0  0.086179  0  1.001737  0  0  0.104099  0.084146  0  1.004288  0
H  H6  1  0.91639754  0.95814248  0.64505860  1  0  0.074832  0  0.932236  0  0  0.085038  0  1.002968  0  0  0.086136  0  1.00162  0  0  0.10408  0.084107  0  1.004169  0
H  H7  1  0.53707057  0.68597853  0.25408125  1  0  0.074302  0  0.926276  0  0  0.088222  0  0.989465  0  0  0.089369  0  0.987903  0  0  0.110261  0.087256  0  0.990774  0
H  H8  1  0.46294302  0.31403070  0.74590398  1  0  0.074335  0  0.926309  0  0  0.08819  0  0.989524  0  0  0.089334  0  0.987976  0  0  0.110234  0.087224  0  0.990833  0
H  H9  1  0.58680668  0.79646228  0.33979077  1  0  0.065084  0  0.97583  0  0  0.074692  0  1.051451  0  0  0.075594  0  1.050921  0  0  0.094891  0.073867  0  1.052119  0
H  H10  1  0.41321254  0.20354657  0.66019443  1  0  0.064987  0  0.976048  0  0  0.074602  0  1.051596  0  0  0.075507  0  1.051066  0  0  0.094899  0.07378  0  1.052262  0
H  H11  1  0.02018512  0.88984934  0.23954128  1  0  0.072078  0  0.934341  0  0  0.083602  0  1.002499  0  0  0.084653  0  1.000999  0  0  0.112779  0.082698  0  1.003758  0
H  H12  1  0.97981841  0.11012488  0.76046620  1  0  0.072116  0  0.934399  0  0  0.083606  0  1.002552  0  0  0.084674  0  1.001017  0  0  0.112797  0.082685  0  1.003848  0
H  H13  1  0.21532011  0.73848764  0.19690617  1  0  0.076006  0  0.946366  0  0  0.08788  0  1.012551  0  0  0.088653  0  1.011895  0  0  0.111086  0.087147  0  1.013295  0
H  H14  1  0.78469433  0.26150928  0.80309208  1  0  0.075973  0  0.946329  0  0  0.087815  0  1.01254  0  0  0.088589  0  1.011881  0  0  0.111071  0.087081  0  1.013284  0
H  H15  1  0.54435231  0.14721619  0.28638850  1  0  0.075116  0  0.933384  0  0  0.085456  0  1.003982  0  0  0.086622  0  1.002382  0  0  0.103453  0.084506  0  1.005284  0
H  H16  1  0.45564658  0.85279640  0.71360336  1  0  0.075102  0  0.933244  0  0  0.085447  0  1.003861  0  0  0.086599  0  1.002284  0  0  0.10348  0.084502  0  1.00516  0
H  H17  1  0.46937231  0.29037193  0.16013315  1  0  0.082777  0  0.938287  0  0  0.089144  0  1.01303  0  0  0.090802  0  1.011108  0  0  0.107655  0.087862  0  1.014492  0
H  H18  1  0.53059384  0.70964367  0.83986703  1  0  0.082737  0  0.938187  0  0  0.089124  0  1.012952  0  0  0.090772  0  1.011049  0  0  0.107623  0.087848  0  1.014415  0
H  H19  1  0.40510452  0.14053230  0.04832774  1  0  0.087584  0  0.926018  0  0  0.098131  0  0.991987  0  0  0.099299  0  0.991022  0  0  0.116103  0.097136  0  0.99297  0
H  H20  1  0.59485966  0.85948658  0.95166778  1  0  0.087512  0  0.92593  0  0  0.098172  0  0.99181  0  0  0.099341  0  0.990837  0  0  0.116075  0.097183  0  0.992798  0
H  H21  1  0.43509238  0.88049961  0.08731878  1  0  0.072384  0  0.962008  0  0  0.081056  0  1.033942  0  0  0.082317  0  1.032756  0  0  0.106545  0.080036  0  1.034929  0
H  H22  1  0.56489126  0.11951973  0.91267223  1  0  0.072366  0  0.962035  0  0  0.081052  0  1.033934  0  0  0.082307  0  1.032752  0  0  0.106516  0.080038  0  1.034929  0
H  H23  1  0.97701796  0.23727161  0.18329370  1  0  0.075045  0  0.910746  0  0  0.088287  0  0.973751  0  0  0.089385  0  0.972276  0  0  0.113996  0.087358  0  0.974988  0
H  H24  1  0.02296800  0.76271313  0.81672282  1  0  0.075114  0  0.91089  0  0  0.088375  0  0.973948  0  0  0.089463  0  0.972484  0  0  0.114055  0.087455  0  0.975184  0
H  H25  1  0.14321489  0.34287940  0.10219020  1  0  0.087466  0  0.936347  0  0  0.097124  0  1.005841  0  0  0.098673  0  1.004459  0  0  0.110975  0.095858  0  1.00707  0
H  H26  1  0.85676031  0.65711759  0.89782387  1  0  0.087551  0  0.936047  0  0  0.097242  0  1.00559  0  0  0.098795  0  1.0042  0  0  0.110928  0.095936  0  1.006866  0
H  H27  1  0.14262376  0.38441427  0.28321076  1  0  0.368212  0  0.945318  0  0  0.327362  0  1.036472  0  0  0.338897  0  1.023006  0  0  0.273922  0.319313  0  1.043616  0
H  H28  1  0.85738252  0.61557426  0.71679307  1  0  0.368221  0  0.94546  0  0  0.327418  0  1.036479  0  0  0.338951  0  1.022947  0  0  0.273961  0.319369  0  1.043625  0
H  H29  1  0.96277303  0.44776917  0.34454401  1  0  0.392  0  0.875994  0  0  0.363319  0  0.955703  0  0  0.372401  0  0.945382  0  0  0.279429  0.356708  0  0.963279  0
H  H30  1  0.03722668  0.55224610  0.65544950  1  0  0.392083  0  0.875962  0  0  0.3634  0  0.955692  0  0  0.372483  0  0.945368  0  0  0.279489  0.356791  0  0.963265  0
H  H31  1  0.91251399  0.68936998  0.17686355  1  0  0.412358  0  0.871103  0  0  0.386297  0  0.938226  0  0  0.396586  0  0.923066  0  0  0.286211  0.378968  0  0.94902  0
H  H32  1  0.08749104  0.31063830  0.82314418  1  0  0.412384  0  0.871108  0  0  0.386339  0  0.938179  0  0  0.396625  0  0.92302  0  0  0.286274  0.379005  0  0.948982  0
H  H33  1  0.73539450  0.87949795  0.15237398  1  0  0.374244  0  0.943127  0  0  0.332228  0  1.037439  0  0  0.343357  0  1.021792  0  0  0.275739  0.324444  0  1.048348  0
H  H34  1  0.26458933  0.12053380  0.84762274  1  0  0.374341  0  0.943213  0  0  0.332343  0  1.037321  0  0  0.343464  0  1.021684  0  0  0.275838  0.32456  0  1.04823  0
C  C35  1  0.23332478  0.02182451  0.33311188  1  0  0.073516  0  3.60066  0  0  0.002424  0  3.858152  0  0  0.009981  0  3.869147  0  0  0.010665  -0.002675  0  3.850641  0
C  C36  1  0.76668012  0.97815673  0.66689588  1  0  0.073481  0  3.600469  0  0  0.002318  0  3.858049  0  0  0.009919  0  3.868972  0  0  0.010661  -0.002781  0  3.850545  0
C  C37  1  0.49407792  0.81654475  0.27645225  1  0  0.071458  0  3.622514  0  0  -0.001175  0  3.877916  0  0  0.006352  0  3.888779  0  0  0.006556  -0.006275  0  3.870575  0
C  C38  1  0.50592861  0.18346474  0.72353581  1  0  0.071594  0  3.622462  0  0  -0.000907  0  3.877717  0  0  0.00661  0  3.888578  0  0  0.006613  -0.006009  0  3.870376  0
C  C39  1  0.17022195  0.86920411  0.21891259  1  0  0.061243  0  3.645247  0  0  -0.008197  0  3.896426  0  0  -0.000705  0  3.908034  0  0  0.003589  -0.013123  0  3.888326  0
C  C40  1  0.82977785  0.13078939  0.78108708  1  0  0.061101  0  3.645505  0  0  -0.008171  0  3.896421  0  0  -0.00069  0  3.908057  0  0  0.003548  -0.013081  0  3.888297  0
C  C41  1  0.45446137  0.16373173  0.22258525  1  0  0.085718  0  3.581552  0  0  0.013614  0  3.842092  0  0  0.021761  0  3.850202  0  0  0.016934  0.008109  0  3.836579  0
C  C42  1  0.54553358  0.83627210  0.77741358  1  0  0.085808  0  3.581224  0  0  0.013567  0  3.841909  0  0  0.021722  0  3.84999  0  0  0.016877  0.008054  0  3.836405  0
C  C43  1  0.39107080  0.01153449  0.10932050  1  0  0.065379  0  3.607707  0  0  0.000119  0  3.851942  0  0  0.006736  0  3.863548  0  0  0.012433  -0.004353  0  3.844053  0
C  C44  1  0.60891171  0.98848325  0.89067426  1  0  0.065523  0  3.607716  0  0  0.000107  0  3.85207  0  0  0.006741  0  3.863661  0  0  0.01242  -0.004396  0  3.844229  0
C  C45  1  0.12815676  0.21507370  0.16385907  1  0  0.079809  0  3.591777  0  0  0.006507  0  3.852231  0  0  0.014601  0  3.861195  0  0  0.016372  0.001104  0  3.845932  0
C  C46  1  0.87182410  0.78492325  0.83615005  1  0  0.079727  0  3.591664  0  0  0.006141  0  3.852526  0  0  0.014238  0  3.86149  0  0  0.016314  0.000767  0  3.84623  0
Br  Br47  1  0.26676895  0.67619521  0.00836439  1  0  -0.557109  0  0.878263  0  0  -0.500654  0  1.149345  0  0  -0.518762  0  1.127583  0  0  -0.291958  -0.487631  0  1.164209  0
Br  Br48  1  0.73322237  0.32379071  0.99165048  1  0  -0.55715  0  0.878244  0  0  -0.500669  0  1.149296  0  0  -0.518777  0  1.127534  0  0  -0.291968  -0.487639  0  1.164147  0
Br  Br49  1  0.87319587  0.77348906  0.45470091  1  0  -0.507254  0  1.074537  0  0  -0.44328  0  1.380908  0  0  -0.464665  0  1.358938  0  0  -0.24107  -0.428073  0  1.39611  0
Br  Br50  1  0.12681437  0.22650088  0.54529918  1  0  -0.507217  0  1.074471  0  0  -0.443233  0  1.38079  0  0  -0.46462  0  1.358826  0  0  -0.241078  -0.428032  0  1.396  0
Br  Br51  1  0.60803724  0.33582189  0.42073748  1  0  -0.515237  0  1.023506  0  0  -0.451616  0  1.319614  0  0  -0.471842  0  1.296499  0  0  -0.249553  -0.437223  0  1.335755  0
Br  Br52  1  0.39200231  0.66416759  0.57926228  1  0  -0.515235  0  1.023446  0  0  -0.451646  0  1.319587  0  0  -0.471867  0  1.296476  0  0  -0.249578  -0.437255  0  1.335724  0
N  N53  1  0.29162412  0.84122842  0.30593549  1  0  -0.277457  0  3.205828  0  0  -0.179234  0  3.441731  0  0  -0.200379  0  3.464724  0  0  -0.347281  -0.164515  0  3.425531  0
N  N54  1  0.70838782  0.15876007  0.69406341  1  0  -0.277282  0  3.205854  0  0  -0.179033  0  3.441611  0  0  -0.200181  0  3.464596  0  0  -0.347155  -0.164315  0  3.42541  0
N  N55  1  0.18740389  0.03862277  0.13482111  1  0  -0.280129  0  3.234797  0  0  -0.188483  0  3.471529  0  0  -0.207507  0  3.492336  0  0  -0.345977  -0.175212  0  3.456855  0
N  N56  1  0.81257923  0.96137710  0.86518475  1  0  -0.280072  0  3.234999  0  0  -0.188374  0  3.471722  0  0  -0.207419  0  3.492595  0  0  -0.345933  -0.175083  0  3.456993  0
N  N57  1  0.25028130  0.19422153  0.24982585  1  0  -0.270794  0  3.15837  0  0  -0.185461  0  3.389569  0  0  -0.202304  0  3.407035  0  0  -0.329239  -0.173707  0  3.376983  0
N  N58  1  0.74970918  0.80576933  0.75017993  1  0  -0.27085  0  3.158381  0  0  -0.185269  0  3.389465  0  0  -0.202116  0  3.406901  0  0  -0.329191  -0.173503  0  3.376855  0
N  N59  1  0.51564082  0.98676903  0.19404240  1  0  -0.272281  0  3.191229  0  0  -0.188757  0  3.426988  0  0  -0.205039  0  3.44402  0  0  -0.337324  -0.1773  0  3.415004  0
N  N60  1  0.48434394  0.01325167  0.80594838  1  0  -0.272561  0  3.191032  0  0  -0.189  0  3.426761  0  0  -0.205276  0  3.443775  0  0  -0.337348  -0.177537  0  3.414798  0
O  O61  1  0.05868598  0.50031201  0.30196399  1  0  -0.79776  0  1.940486  0  0  -0.727379  0  2.151853  0  0  -0.750026  0  2.126219  0  0  -0.571797  -0.711232  0  2.167861  0
O  O62  1  0.94132787  0.49968767  0.69803593  1  0  -0.797895  0  1.940546  0  0  -0.72757  0  2.151856  0  0  -0.750222  0  2.126173  0  0  -0.571883  -0.711428  0  2.167872  0
O  O63  1  0.83396107  0.79638090  0.12207223  1  0  -0.807115  0  1.908409  0  0  -0.746736  0  2.120139  0  0  -0.767549  0  2.087784  0  0  -0.594604  -0.732076  0  2.142571  0
O  O64  1  0.16604685  0.20362823  0.87792004  1  0  -0.807168  0  1.90856  0  0  -0.746852  0  2.120061  0  0  -0.767648  0  2.087706  0  0  -0.59475  -0.732188  0  2.142498  0
