# generated using pymatgen
data_CdH10(C2O3)2
_symmetry_space_group_name_H-M   'P 1'
_cell_length_a   8.07412848
_cell_length_b   8.55449318
_cell_length_c   11.80393567
_cell_angle_alpha   89.99984733
_cell_angle_beta   89.99967772
_cell_angle_gamma   90.00010960
_symmetry_Int_Tables_number   1
_chemical_formula_structural   CdH10(C2O3)2
_chemical_formula_sum   'Cd4 H40 C16 O24'
_cell_volume   815.29874594
_cell_formula_units_Z   4
loop_
 _symmetry_equiv_pos_site_id
 _symmetry_equiv_pos_as_xyz
  1  'x, y, z'
loop_
 _atom_site_type_symbol
 _atom_site_label
 _atom_site_symmetry_multiplicity
 _atom_site_fract_x
 _atom_site_fract_y
 _atom_site_fract_z
 _atom_site_occupancy
 _atom_site_hle17_bader_spin_density
 _atom_site_hle17_ddec_charge
 _atom_site_hle17_ddec_spin_density
 _atom_site_hle17_ddec_sum_bond_order
 _atom_site_hle17_magmom
 _atom_site_hse06_10hf_bader_spin_density
 _atom_site_hse06_10hf_ddec_charge
 _atom_site_hse06_10hf_ddec_spin_density
 _atom_site_hse06_10hf_ddec_sum_bond_order
 _atom_site_hse06_10hf_magmom
 _atom_site_hse06_bader_spin_density
 _atom_site_hse06_ddec_charge
 _atom_site_hse06_ddec_spin_density
 _atom_site_hse06_ddec_sum_bond_order
 _atom_site_hse06_magmom
 _atom_site_pbe_bader_spin_density
 _atom_site_pbe_cm5_charge
 _atom_site_pbe_ddec_charge
 _atom_site_pbe_ddec_spin_density
 _atom_site_pbe_ddec_sum_bond_order
 _atom_site_pbe_magmom
Cd  Cd0  1  0.43675776  0.30213440  0.42766555  1  0  1.272695  0  1.519799  0  0  1.093582  0  1.953445  0  0  1.15358  0  1.893796  0  0  0.77577  1.050865  0  1.994795  0
Cd  Cd1  1  0.06324087  0.69786319  0.92766607  1  0  1.272684  0  1.519796  0  0  1.093578  0  1.95346  0  0  1.153576  0  1.893809  0  0  0.775771  1.050865  0  1.994812  0
Cd  Cd2  1  0.56324149  0.80213790  0.07233672  1  0  1.272688  0  1.51987  0  0  1.093544  0  1.953537  0  0  1.153542  0  1.893885  0  0  0.775762  1.050832  0  1.994888  0
Cd  Cd3  1  0.93676025  0.19786541  0.57233593  1  0  1.27274  0  1.519829  0  0  1.093596  0  1.953491  0  0  1.153593  0  1.89384  0  0  0.775772  1.050882  0  1.994843  0
H  H4  1  0.68188889  0.79298991  0.54100222  1  0  0.144363  0  0.960383  0  0  0.16012  0  1.021993  0  0  0.163024  0  1.021304  0  0  0.095912  0.157848  0  1.022809  0
H  H5  1  0.81811063  0.20700767  0.04100065  1  0  0.144296  0  0.960486  0  0  0.160077  0  1.022066  0  0  0.162982  0  1.021379  0  0  0.095895  0.157797  0  1.02289  0
H  H6  1  0.31810871  0.29299192  0.95899620  1  0  0.144392  0  0.960403  0  0  0.160123  0  1.022028  0  0  0.163026  0  1.021344  0  0  0.095915  0.157848  0  1.022848  0
H  H7  1  0.18189091  0.70701023  0.45899503  1  0  0.144399  0  0.960419  0  0  0.160122  0  1.022053  0  0  0.163025  0  1.021367  0  0  0.095905  0.157851  0  1.022867  0
H  H8  1  0.47848511  0.85652600  0.50332360  1  0  0.141738  0  0.934157  0  0  0.163462  0  0.989992  0  0  0.165857  0  0.989255  0  0  0.102812  0.161653  0  0.990884  0
H  H9  1  0.02151205  0.14347082  0.00332244  1  0  0.141752  0  0.93415  0  0  0.163466  0  0.990003  0  0  0.16586  0  0.989272  0  0  0.102813  0.161658  0  0.990893  0
H  H10  1  0.52151014  0.35652356  0.99667640  1  0  0.141716  0  0.934221  0  0  0.163455  0  0.99002  0  0  0.165847  0  0.989289  0  0  0.10282  0.161646  0  0.990912  0
H  H11  1  0.97848935  0.64347585  0.49667590  1  0  0.141705  0  0.934234  0  0  0.163435  0  0.990044  0  0  0.165828  0  0.98931  0  0  0.102814  0.161626  0  0.990936  0
H  H12  1  0.63185193  0.84565368  0.39831596  1  0  0.141476  0  0.939841  0  0  0.1642  0  0.995016  0  0  0.166225  0  0.994731  0  0  0.103437  0.163007  0  0.994876  0
H  H13  1  0.86814465  0.15434259  0.89831466  1  0  0.141509  0  0.939828  0  0  0.164249  0  0.994973  0  0  0.166288  0  0.994669  0  0  0.103433  0.163056  0  0.994834  0
H  H14  1  0.36814245  0.34565242  0.10168199  1  0  0.141503  0  0.939871  0  0  0.164169  0  0.995107  0  0  0.166222  0  0.994788  0  0  0.103391  0.162977  0  0.99497  0
H  H15  1  0.13185638  0.65434871  0.60168233  1  0  0.141501  0  0.939878  0  0  0.164169  0  0.995112  0  0  0.166208  0  0.99481  0  0  0.10339  0.162975  0  0.994973  0
H  H16  1  0.60731073  0.16580435  0.79913552  1  0  0.143166  0  0.933311  0  0  0.165339  0  0.988262  0  0  0.167259  0  0.988231  0  0  0.103428  0.163872  0  0.988373  0
H  H17  1  0.89269039  0.83419462  0.29913584  1  0  0.143218  0  0.933301  0  0  0.165419  0  0.988212  0  0  0.16734  0  0.98818  0  0  0.103472  0.163951  0  0.988323  0
H  H18  1  0.39269157  0.66580590  0.70086738  1  0  0.143155  0  0.933277  0  0  0.165365  0  0.988182  0  0  0.167285  0  0.988149  0  0  0.103448  0.163898  0  0.988295  0
H  H19  1  0.10731017  0.33419603  0.20086637  1  0  0.143136  0  0.933292  0  0  0.165346  0  0.988192  0  0  0.167265  0  0.98816  0  0  0.103439  0.163877  0  0.988304  0
H  H20  1  0.70773777  0.00334374  0.73330151  1  0  0.144679  0  0.965986  0  0  0.162418  0  1.026049  0  0  0.165524  0  1.024255  0  0  0.098096  0.160093  0  1.027366  0
H  H21  1  0.79226388  0.99665431  0.23330105  1  0  0.144673  0  0.966016  0  0  0.162416  0  1.026066  0  0  0.165523  0  1.024268  0  0  0.0981  0.16009  0  1.027383  0
H  H22  1  0.29226544  0.50334487  0.76670255  1  0  0.144677  0  0.965991  0  0  0.162412  0  1.026059  0  0  0.165519  0  1.024261  0  0  0.098092  0.160087  0  1.027376  0
H  H23  1  0.20773700  0.49665683  0.26669915  1  0  0.144697  0  0.965986  0  0  0.16243  0  1.026049  0  0  0.165537  0  1.024254  0  0  0.098103  0.160104  0  1.027365  0
H  H24  1  0.49167320  0.99573774  0.76895772  1  0  0.150238  0  0.948883  0  0  0.1666  0  1.010969  0  0  0.169884  0  1.009307  0  0  0.099585  0.164056  0  1.012512  0
H  H25  1  0.00832797  0.00426043  0.26895858  1  0  0.15023  0  0.948894  0  0  0.166596  0  1.01098  0  0  0.169881  0  1.009318  0  0  0.099591  0.164063  0  1.012509  0
H  H26  1  0.50832976  0.49573977  0.73104624  1  0  0.150232  0  0.948876  0  0  0.166599  0  1.010955  0  0  0.169883  0  1.009293  0  0  0.09959  0.164062  0  1.01249  0
H  H27  1  0.99167315  0.50426413  0.23104088  1  0  0.150221  0  0.948861  0  0  0.166582  0  1.010948  0  0  0.169866  0  1.009285  0  0  0.099567  0.164038  0  1.012487  0
H  H28  1  0.73449316  0.31159891  0.31355896  1  0  0.431729  0  0.870573  0  0  0.397642  0  0.938054  0  0  0.409739  0  0.92075  0  0  0.290051  0.389062  0  0.950307  0
H  H29  1  0.76550536  0.68840351  0.81355956  1  0  0.431714  0  0.8706  0  0  0.397622  0  0.938089  0  0  0.40972  0  0.920783  0  0  0.290042  0.389044  0  0.950338  0
H  H30  1  0.26550611  0.81160029  0.18644076  1  0  0.431734  0  0.870575  0  0  0.397656  0  0.938044  0  0  0.409752  0  0.92074  0  0  0.290051  0.389077  0  0.950296  0
H  H31  1  0.23449451  0.18839936  0.68644076  1  0  0.431707  0  0.87061  0  0  0.397626  0  0.938082  0  0  0.409723  0  0.920776  0  0  0.290042  0.38905  0  0.950329  0
H  H32  1  0.60696886  0.23300051  0.22030648  1  0  0.423564  0  0.886003  0  0  0.388854  0  0.954615  0  0  0.400656  0  0.938011  0  0  0.285611  0.380437  0  0.966417  0
H  H33  1  0.89303166  0.76700109  0.72030645  1  0  0.423639  0  0.885925  0  0  0.388932  0  0.954524  0  0  0.400735  0  0.937918  0  0  0.28565  0.380516  0  0.966326  0
H  H34  1  0.39302901  0.73300060  0.27969423  1  0  0.423597  0  0.885963  0  0  0.388883  0  0.954582  0  0  0.400685  0  0.937977  0  0  0.285611  0.380466  0  0.966385  0
H  H35  1  0.10697084  0.26699987  0.77969372  1  0  0.423594  0  0.885962  0  0  0.388882  0  0.954578  0  0  0.400686  0  0.93797  0  0  0.285611  0.380465  0  0.96638  0
H  H36  1  0.36007976  0.00109395  0.29496448  1  0  0.431662  0  0.86521  0  0  0.401014  0  0.92793  0  0  0.412056  0  0.911941  0  0  0.286959  0.393083  0  0.939406  0
H  H37  1  0.13992120  0.99890647  0.79496582  1  0  0.431669  0  0.86521  0  0  0.401012  0  0.92793  0  0  0.412057  0  0.91194  0  0  0.286981  0.39308  0  0.939406  0
H  H38  1  0.63992384  0.50109243  0.20503413  1  0  0.431689  0  0.865175  0  0  0.401039  0  0.927885  0  0  0.412083  0  0.911896  0  0  0.286995  0.393107  0  0.93936  0
H  H39  1  0.86007557  0.49891040  0.70503305  1  0  0.431691  0  0.865177  0  0  0.401035  0  0.927898  0  0  0.412079  0  0.911908  0  0  0.286974  0.393104  0  0.939373  0
H  H40  1  0.23386267  0.04052439  0.39427309  1  0  0.427904  0  0.876102  0  0  0.39425  0  0.944858  0  0  0.405924  0  0.92788  0  0  0.287339  0.385884  0  0.957062  0
H  H41  1  0.26613624  0.95947566  0.89427402  1  0  0.427866  0  0.876161  0  0  0.394203  0  0.944932  0  0  0.405878  0  0.927952  0  0  0.287309  0.385837  0  0.957135  0
H  H42  1  0.76613729  0.54052346  0.10572460  1  0  0.427841  0  0.87619  0  0  0.394188  0  0.94494  0  0  0.405862  0  0.927964  0  0  0.287322  0.385821  0  0.957145  0
H  H43  1  0.73386170  0.45947622  0.60572408  1  0  0.42784  0  0.876191  0  0  0.394177  0  0.944956  0  0  0.405852  0  0.927979  0  0  0.287303  0.385811  0  0.95716  0
C  C44  1  0.53146171  0.62398870  0.44986782  1  0  0.751229  0  3.829233  0  0  0.70741  0  4.120712  0  0  0.741156  0  4.114565  0  0  0.210947  0.684596  0  4.123282  0
C  C45  1  0.96853940  0.37600855  0.94986316  1  0  0.75115  0  3.829413  0  0  0.70737  0  4.120851  0  0  0.741113  0  4.114705  0  0  0.210899  0.684558  0  4.123423  0
C  C46  1  0.46852974  0.12398781  0.05013226  1  0  0.751007  0  3.8297  0  0  0.707342  0  4.120947  0  0  0.741087  0  4.114803  0  0  0.21094  0.684528  0  4.123519  0
C  C47  1  0.03146827  0.87601468  0.55013171  1  0  0.750831  0  3.829865  0  0  0.707293  0  4.12092  0  0  0.741037  0  4.114776  0  0  0.210948  0.68448  0  4.123492  0
C  C48  1  0.58647948  0.78831287  0.47543699  1  0  -0.45943  0  3.649554  0  0  -0.53414  0  3.880088  0  0  -0.541707  0  3.883067  0  0  -0.247651  -0.528495  0  3.877635  0
C  C49  1  0.91351771  0.21168195  0.97543456  1  0  -0.459419  0  3.649604  0  0  -0.534153  0  3.880112  0  0  -0.541739  0  3.883075  0  0  -0.247645  -0.528502  0  3.877669  0
C  C50  1  0.41351355  0.28831314  0.02456192  1  0  -0.459331  0  3.649734  0  0  -0.534027  0  3.880223  0  0  -0.541618  0  3.883183  0  0  -0.247592  -0.528383  0  3.877781  0
C  C51  1  0.08648592  0.71168827  0.52456232  1  0  -0.459318  0  3.649787  0  0  -0.534039  0  3.880228  0  0  -0.541616  0  3.8832  0  0  -0.247595  -0.528395  0  3.877775  0
C  C52  1  0.54882213  0.14005207  0.62511150  1  0  0.760469  0  3.822918  0  0  0.715024  0  4.11434  0  0  0.749481  0  4.108757  0  0  0.211186  0.691421  0  4.118504  0
C  C53  1  0.95118041  0.85994404  0.12511154  1  0  0.760534  0  3.823106  0  0  0.715118  0  4.114483  0  0  0.749573  0  4.108901  0  0  0.211161  0.691515  0  4.118648  0
C  C54  1  0.45118011  0.64005542  0.87489230  1  0  0.760302  0  3.823187  0  0  0.714848  0  4.114626  0  0  0.749302  0  4.109051  0  0  0.211063  0.691245  0  4.118789  0
C  C55  1  0.04881648  0.35994821  0.37488977  1  0  0.76067  0  3.822732  0  0  0.715222  0  4.114155  0  0  0.749677  0  4.10857  0  0  0.211252  0.691616  0  4.118318  0
C  C56  1  0.59247832  0.07000450  0.73792979  1  0  -0.470063  0  3.646901  0  0  -0.545556  0  3.87886  0  0  -0.55328  0  3.880699  0  0  -0.249795  -0.540132  0  3.877938  0
C  C57  1  0.90752453  0.92999236  0.23792901  1  0  -0.470138  0  3.647087  0  0  -0.545654  0  3.878999  0  0  -0.553379  0  3.880839  0  0  -0.249876  -0.54024  0  3.878065  0
C  C58  1  0.40752502  0.57000702  0.76207415  1  0  -0.47005  0  3.646968  0  0  -0.545564  0  3.878896  0  0  -0.553285  0  3.880735  0  0  -0.249834  -0.540149  0  3.877967  0
C  C59  1  0.09247497  0.42999585  0.26207301  1  0  -0.470096  0  3.646946  0  0  -0.545604  0  3.878881  0  0  -0.553327  0  3.880719  0  0  -0.249809  -0.540179  0  3.877957  0
O  O60  1  0.42931725  0.59966937  0.36933812  1  0  -0.674011  0  2.00976  0  0  -0.604923  0  2.232731  0  0  -0.634217  0  2.223738  0  0  -0.319574  -0.583693  0  2.237896  0
O  O61  1  0.07068310  0.40032727  0.86933834  1  0  -0.674024  0  2.009915  0  0  -0.604939  0  2.232873  0  0  -0.634231  0  2.223876  0  0  -0.319583  -0.58371  0  2.23804  0
O  O62  1  0.57067292  0.09966486  0.13066031  1  0  -0.673885  0  2.010227  0  0  -0.60488  0  2.233156  0  0  -0.634176  0  2.224164  0  0  -0.319502  -0.583647  0  2.238318  0
O  O63  1  0.92932586  0.90033473  0.63066072  1  0  -0.673761  0  2.010215  0  0  -0.604806  0  2.233081  0  0  -0.6341  0  2.224091  0  0  -0.31948  -0.583576  0  2.238245  0
O  O64  1  0.58361930  0.51036881  0.51052472  1  0  -0.6736  0  2.014348  0  0  -0.598309  0  2.249721  0  0  -0.629516  0  2.239771  0  0  -0.318331  -0.576285  0  2.256114  0
O  O65  1  0.91637799  0.48962655  0.01052137  1  0  -0.673476  0  2.014359  0  0  -0.598246  0  2.249761  0  0  -0.629455  0  2.239815  0  0  -0.318269  -0.576221  0  2.256156  0
O  O66  1  0.41636658  0.01036504  0.98947510  1  0  -0.67367  0  2.014374  0  0  -0.59838  0  2.249627  0  0  -0.62959  0  2.239677  0  0  -0.318426  -0.576355  0  2.256023  0
O  O67  1  0.08363402  0.98963583  0.48947376  1  0  -0.673626  0  2.014449  0  0  -0.598395  0  2.249649  0  0  -0.629607  0  2.239711  0  0  -0.318446  -0.576369  0  2.256046  0
O  O68  1  0.40192838  0.19210765  0.60944831  1  0  -0.665455  0  2.005823  0  0  -0.589843  0  2.237472  0  0  -0.620978  0  2.226943  0  0  -0.317505  -0.568272  0  2.244791  0
O  O69  1  0.09807287  0.80788527  0.10944812  1  0  -0.665486  0  2.005913  0  0  -0.589912  0  2.237594  0  0  -0.621044  0  2.22706  0  0  -0.317493  -0.568341  0  2.244914  0
O  O70  1  0.59807397  0.69211706  0.89055369  1  0  -0.665341  0  2.005918  0  0  -0.589715  0  2.237578  0  0  -0.62085  0  2.227053  0  0  -0.31739  -0.568144  0  2.244892  0
O  O71  1  0.90192391  0.30789327  0.39055584  1  0  -0.665607  0  2.00586  0  0  -0.589941  0  2.237455  0  0  -0.621071  0  2.22692  0  0  -0.317555  -0.568369  0  2.244775  0
O  O72  1  0.65515097  0.14979105  0.54529977  1  0  -0.687343  0  2.012553  0  0  -0.611538  0  2.267534  0  0  -0.64403  0  2.255943  0  0  -0.327054  -0.589337  0  2.275612  0
O  O73  1  0.84485223  0.85020652  0.04529939  1  0  -0.687326  0  2.012573  0  0  -0.611541  0  2.267553  0  0  -0.644027  0  2.255954  0  0  -0.327014  -0.589345  0  2.275646  0
O  O74  1  0.34485129  0.64979159  0.95470316  1  0  -0.687226  0  2.012541  0  0  -0.611449  0  2.267543  0  0  -0.643938  0  2.255954  0  0  -0.327015  -0.589247  0  2.27562  0
O  O75  1  0.15514712  0.35020942  0.45470194  1  0  -0.687357  0  2.012366  0  0  -0.611601  0  2.267397  0  0  -0.644093  0  2.255808  0  0  -0.327058  -0.589398  0  2.275477  0
O  O76  1  0.62112380  0.32003070  0.27817521  1  0  -0.865125  0  1.913416  0  0  -0.788752  0  2.112577  0  0  -0.815774  0  2.077042  0  0  -0.573137  -0.769827  0  2.137547  0
O  O77  1  0.87887377  0.67997069  0.77817624  1  0  -0.86523  0  1.913404  0  0  -0.788832  0  2.112559  0  0  -0.815857  0  2.077025  0  0  -0.573161  -0.769907  0  2.13753  0
O  O78  1  0.37887548  0.82003215  0.22182449  1  0  -0.865162  0  1.913406  0  0  -0.788753  0  2.112524  0  0  -0.81578  0  2.077  0  0  -0.573127  -0.76984  0  2.137521  0
O  O79  1  0.12112608  0.17996853  0.72182240  1  0  -0.865136  0  1.913424  0  0  -0.788745  0  2.112551  0  0  -0.815773  0  2.077026  0  0  -0.573116  -0.769835  0  2.137543  0
O  O80  1  0.31241260  0.08891668  0.33945982  1  0  -0.869867  0  1.853487  0  0  -0.806853  0  2.050064  0  0  -0.83086  0  2.01519  0  0  -0.59809  -0.78983  0  2.074449  0
O  O81  1  0.18758800  0.91108358  0.83946030  1  0  -0.869839  0  1.853536  0  0  -0.806793  0  2.050147  0  0  -0.830804  0  2.015256  0  0  -0.59807  -0.789769  0  2.074529  0
O  O82  1  0.68758993  0.58891540  0.16053863  1  0  -0.869866  0  1.853561  0  0  -0.806826  0  2.050182  0  0  -0.830831  0  2.015284  0  0  -0.598108  -0.789805  0  2.074567  0
O  O83  1  0.81240984  0.41108641  0.66053790  1  0  -0.869848  0  1.853526  0  0  -0.806802  0  2.050145  0  0  -0.830811  0  2.015255  0  0  -0.59807  -0.789781  0  2.074528  0
