# generated using pymatgen
data_YbH6C6SNO8
_symmetry_space_group_name_H-M   'P 1'
_cell_length_a   7.48347904
_cell_length_b   9.26387134
_cell_length_c   14.63216746
_cell_angle_alpha   89.99993770
_cell_angle_beta   90.00014458
_cell_angle_gamma   101.26400184
_symmetry_Int_Tables_number   1
_chemical_formula_structural   YbH6C6SNO8
_chemical_formula_sum   'Yb4 H24 C24 S4 N4 O32'
_cell_volume   994.84985063
_cell_formula_units_Z   4
loop_
 _symmetry_equiv_pos_site_id
 _symmetry_equiv_pos_as_xyz
  1  'x, y, z'
loop_
 _atom_site_type_symbol
 _atom_site_label
 _atom_site_symmetry_multiplicity
 _atom_site_fract_x
 _atom_site_fract_y
 _atom_site_fract_z
 _atom_site_occupancy
 _atom_site_hle17_bader_spin_density
 _atom_site_hle17_ddec_charge
 _atom_site_hle17_ddec_spin_density
 _atom_site_hle17_ddec_sum_bond_order
 _atom_site_hle17_magmom
 _atom_site_hse06_10hf_bader_spin_density
 _atom_site_hse06_10hf_ddec_charge
 _atom_site_hse06_10hf_ddec_spin_density
 _atom_site_hse06_10hf_ddec_sum_bond_order
 _atom_site_hse06_10hf_magmom
 _atom_site_hse06_bader_spin_density
 _atom_site_hse06_ddec_charge
 _atom_site_hse06_ddec_spin_density
 _atom_site_hse06_ddec_sum_bond_order
 _atom_site_hse06_magmom
 _atom_site_pbe_bader_spin_density
 _atom_site_pbe_cm5_charge
 _atom_site_pbe_ddec_charge
 _atom_site_pbe_ddec_spin_density
 _atom_site_pbe_ddec_sum_bond_order
 _atom_site_pbe_magmom
Yb  Yb0  1  0.13679415  0.27735210  0.04370165  1  0  2.208234  0  1.856133  0  0  2.14857  0  2.189537  0  0  2.272022  0  2.000042  0  0  1.64062  2.115336  0  2.220162  0
Yb  Yb1  1  0.36320379  0.72264766  0.54370481  1  0  2.20834  0  1.855966  0  0  2.148647  0  2.189442  0  0  2.272053  0  2.000012  0  0  1.640629  2.115404  0  2.220067  0
Yb  Yb2  1  0.86320161  0.72264810  0.95629541  1  0  2.208385  0  1.855947  0  0  2.148696  0  2.1894  0  0  2.272059  0  2.000046  0  0  1.640652  2.115441  0  2.220058  0
Yb  Yb3  1  0.63679414  0.27735036  0.45629772  1  0  2.208294  0  1.856066  0  0  2.148606  0  2.189553  0  0  2.272028  0  2.000096  0  0  1.640626  2.115372  0  2.220178  0
H  H4  1  0.15098507  0.04617789  0.44922061  1  0  0.13912  0  0.929012  0  0  0.144585  0  0.990968  0  0  0.148986  0  0.986421  0  0  0.140757  0.141334  0  0.994233  0
H  H5  1  0.34901234  0.95382255  0.94922222  1  0  0.139075  0  0.929009  0  0  0.144562  0  0.99094  0  0  0.14896  0  0.98639  0  0  0.140735  0.141311  0  0.994207  0
H  H6  1  0.84901178  0.95382122  0.55077918  1  0  0.139053  0  0.929042  0  0  0.144532  0  0.99099  0  0  0.148934  0  0.986443  0  0  0.140747  0.14128  0  0.994257  0
H  H7  1  0.65098526  0.04617987  0.05077826  1  0  0.139072  0  0.92904  0  0  0.144536  0  0.991005  0  0  0.148939  0  0.986458  0  0  0.140743  0.141284  0  0.99427  0
H  H8  1  0.10355634  0.12298941  0.28889502  1  0  0.133919  0  0.961141  0  0  0.139491  0  1.021987  0  0  0.143937  0  1.018859  0  0  0.121239  0.136278  0  1.024365  0
H  H9  1  0.39644491  0.87700793  0.78889743  1  0  0.133915  0  0.961136  0  0  0.139497  0  1.021978  0  0  0.143943  0  1.018852  0  0  0.121248  0.136281  0  1.024353  0
H  H10  1  0.89644452  0.87700973  0.71110409  1  0  0.133928  0  0.961141  0  0  0.139509  0  1.021978  0  0  0.143955  0  1.018852  0  0  0.121248  0.136294  0  1.024354  0
H  H11  1  0.60355352  0.12299230  0.21110441  1  0  0.133929  0  0.961145  0  0  0.139509  0  1.021981  0  0  0.143951  0  1.01886  0  0  0.121255  0.136296  0  1.024359  0
H  H12  1  0.91906923  0.66415758  0.22090339  1  0  0.135608  0  0.936268  0  0  0.141811  0  0.996632  0  0  0.146027  0  0.993766  0  0  0.12127  0.138755  0  0.99875  0
H  H13  1  0.58093102  0.33584226  0.72090508  1  0  0.135618  0  0.936166  0  0  0.141804  0  0.99657  0  0  0.146035  0  0.993681  0  0  0.121268  0.138751  0  0.998671  0
H  H14  1  0.08093430  0.33584159  0.77909504  1  0  0.135621  0  0.936194  0  0  0.141799  0  0.996591  0  0  0.14603  0  0.993702  0  0  0.121269  0.138744  0  0.998697  0
H  H15  1  0.41906900  0.66415907  0.27909540  1  0  0.13566  0  0.936276  0  0  0.141848  0  0.996641  0  0  0.146063  0  0.993774  0  0  0.121289  0.138793  0  0.998755  0
H  H16  1  0.96324215  0.60489679  0.38718297  1  0  0.134921  0  0.932109  0  0  0.140506  0  0.994563  0  0  0.144778  0  0.990072  0  0  0.142789  0.137332  0  0.998112  0
H  H17  1  0.53675455  0.39510724  0.88718388  1  0  0.134951  0  0.932028  0  0  0.140513  0  0.994483  0  0  0.144785  0  0.989995  0  0  0.142801  0.137339  0  0.998033  0
H  H18  1  0.03675520  0.39510452  0.61281614  1  0  0.134924  0  0.932057  0  0  0.140479  0  0.994525  0  0  0.14475  0  0.990038  0  0  0.142793  0.137309  0  0.998078  0
H  H19  1  0.46324439  0.60489518  0.11281660  1  0  0.134921  0  0.932104  0  0  0.140493  0  0.994544  0  0  0.144765  0  0.990055  0  0  0.142783  0.137319  0  0.998095  0
H  H20  1  0.28839266  0.36241506  0.22240389  1  0  0.452304  0  0.838235  0  0  0.419691  0  0.903058  0  0  0.430247  0  0.887888  0  0  0.306453  0.412446  0  0.913591  0
H  H21  1  0.21160343  0.63758451  0.72240417  1  0  0.45232  0  0.838214  0  0  0.419699  0  0.903051  0  0  0.430259  0  0.887875  0  0  0.306455  0.412453  0  0.913583  0
H  H22  1  0.71160284  0.63758404  0.77759591  1  0  0.452322  0  0.838203  0  0  0.419706  0  0.903033  0  0  0.430262  0  0.887862  0  0  0.306465  0.41246  0  0.913566  0
H  H23  1  0.78839233  0.36241570  0.27759631  1  0  0.452284  0  0.838269  0  0  0.419686  0  0.903062  0  0  0.430239  0  0.887897  0  0  0.306457  0.412441  0  0.913595  0
H  H24  1  0.46534488  0.34902271  0.16168094  1  0  0.45985  0  0.829909  0  0  0.427575  0  0.89322  0  0  0.438976  0  0.876739  0  0  0.307005  0.419826  0  0.904483  0
H  H25  1  0.03465201  0.65097582  0.66168168  1  0  0.459799  0  0.829979  0  0  0.427525  0  0.893284  0  0  0.438927  0  0.876802  0  0  0.306972  0.419777  0  0.904545  0
H  H26  1  0.53465037  0.65097529  0.83831817  1  0  0.459794  0  0.829992  0  0  0.427512  0  0.893308  0  0  0.43892  0  0.876818  0  0  0.306964  0.419764  0  0.904568  0
H  H27  1  0.96534483  0.34902329  0.33831880  1  0  0.459839  0  0.829918  0  0  0.427559  0  0.893237  0  0  0.438963  0  0.876753  0  0  0.307001  0.419811  0  0.904499  0
C  C28  1  0.09494906  0.96783811  0.39643382  1  0  0.021515  0  3.558239  0  0  -0.021809  0  3.825392  0  0  -0.014451  0  3.83414  0  0  0.05218  -0.026187  0  3.818987  0
C  C29  1  0.40505128  0.03216460  0.89643682  1  0  0.021626  0  3.55828  0  0  -0.021679  0  3.82542  0  0  -0.014304  0  3.834145  0  0  0.052207  -0.026057  0  3.819011  0
C  C30  1  0.90505096  0.03216322  0.60356461  1  0  0.021735  0  3.558276  0  0  -0.021586  0  3.825443  0  0  -0.014234  0  3.834196  0  0  0.052249  -0.025953  0  3.819019  0
C  C31  1  0.59494817  0.96784002  0.10356639  1  0  0.021706  0  3.558232  0  0  -0.021621  0  3.825423  0  0  -0.014268  0  3.834174  0  0  0.052254  -0.025987  0  3.819004  0
C  C32  1  0.06955625  0.00717845  0.30711791  1  0  -0.079178  0  3.691981  0  0  -0.101791  0  3.944338  0  0  -0.104691  0  3.960708  0  0  -0.06468  -0.099743  0  3.932406  0
C  C33  1  0.43044910  0.99281890  0.80712165  1  0  -0.079082  0  3.691975  0  0  -0.101761  0  3.944371  0  0  -0.104658  0  3.960733  0  0  -0.06466  -0.099712  0  3.932432  0
C  C34  1  0.93044812  0.99281852  0.69287847  1  0  -0.079107  0  3.691995  0  0  -0.101766  0  3.944392  0  0  -0.104657  0  3.960762  0  0  -0.064655  -0.099719  0  3.932452  0
C  C35  1  0.56955309  0.00718026  0.19288225  1  0  -0.079151  0  3.692021  0  0  -0.101786  0  3.944415  0  0  -0.104682  0  3.960788  0  0  -0.064675  -0.099743  0  3.932481  0
C  C36  1  0.00902515  0.89903308  0.24157908  1  0  -0.046107  0  3.728705  0  0  -0.035355  0  3.96457  0  0  -0.0386  0  3.983828  0  0  -0.003757  -0.03256  0  3.949565  0
C  C37  1  0.49097958  0.10096873  0.74158215  1  0  -0.04632  0  3.729099  0  0  -0.035511  0  3.964907  0  0  -0.038772  0  3.984193  0  0  -0.003779  -0.032715  0  3.949896  0
C  C38  1  0.99097781  0.10096937  0.75841935  1  0  -0.046249  0  3.72906  0  0  -0.035451  0  3.964871  0  0  -0.038711  0  3.984154  0  0  -0.003765  -0.032656  0  3.949862  0
C  C39  1  0.50902128  0.89903042  0.25842038  1  0  -0.04625  0  3.728986  0  0  -0.035488  0  3.964845  0  0  -0.03874  0  3.98411  0  0  -0.003798  -0.032691  0  3.949839  0
C  C40  1  0.96626858  0.75183569  0.26975945  1  0  -0.076868  0  3.680844  0  0  -0.096396  0  3.927983  0  0  -0.099644  0  3.945758  0  0  -0.059641  -0.094037  0  3.915273  0
C  C41  1  0.53373783  0.24816085  0.76976182  1  0  -0.076841  0  3.681063  0  0  -0.096439  0  3.928221  0  0  -0.099689  0  3.945984  0  0  -0.05969  -0.094076  0  3.915507  0
C  C42  1  0.03373846  0.24816130  0.73023830  1  0  -0.076955  0  3.6812  0  0  -0.096502  0  3.928318  0  0  -0.099754  0  3.94608  0  0  -0.059717  -0.094141  0  3.915605  0
C  C43  1  0.46627055  0.75183615  0.23023935  1  0  -0.076976  0  3.681175  0  0  -0.096493  0  3.928252  0  0  -0.099737  0  3.946027  0  0  -0.059698  -0.094132  0  3.915542  0
C  C44  1  0.99054594  0.71606941  0.36003250  1  0  0.040224  0  3.526043  0  0  0.001057  0  3.780693  0  0  0.008031  0  3.790488  0  0  0.060623  -0.003296  0  3.77412  0
C  C45  1  0.50945280  0.28393247  0.86003345  1  0  0.040186  0  3.526098  0  0  0.001133  0  3.780627  0  0  0.008106  0  3.790426  0  0  0.060587  -0.003223  0  3.774053  0
C  C46  1  0.00945383  0.28393082  0.63996661  1  0  0.040325  0  3.526083  0  0  0.001255  0  3.78061  0  0  0.00823  0  3.790407  0  0  0.060671  -0.003108  0  3.774041  0
C  C47  1  0.49054480  0.71606995  0.13996635  1  0  0.040327  0  3.526143  0  0  0.001242  0  3.780654  0  0  0.008217  0  3.79045  0  0  0.060677  -0.003112  0  3.774082  0
C  C48  1  0.99766781  0.94143144  0.14331470  1  0  0.751621  0  3.839335  0  0  0.708408  0  4.126404  0  0  0.745613  0  4.114767  0  0  0.245716  0.68392  0  4.135378  0
C  C49  1  0.50233878  0.05856853  0.64331648  1  0  0.751622  0  3.839406  0  0  0.708432  0  4.126422  0  0  0.745623  0  4.11482  0  0  0.245744  0.683946  0  4.135392  0
C  C50  1  0.00234025  0.05856996  0.85668441  1  0  0.751575  0  3.839445  0  0  0.708343  0  4.126526  0  0  0.745539  0  4.114916  0  0  0.245704  0.683855  0  4.1355  0
C  C51  1  0.49767062  0.94143288  0.35668537  1  0  0.751636  0  3.839366  0  0  0.708375  0  4.126498  0  0  0.745583  0  4.114861  0  0  0.245704  0.683886  0  4.135474  0
S  S52  1  0.81903519  0.40187038  0.09361332  1  0  1.599874  0  5.844134  0  0  1.474694  0  6.398376  0  0  1.530206  0  6.373532  0  0  0.555803  1.435269  0  6.423911  0
S  S53  1  0.68096313  0.59812957  0.59361427  1  0  1.599917  0  5.843935  0  0  1.474747  0  6.398158  0  0  1.53027  0  6.373309  0  0  0.555861  1.435323  0  6.423695  0
S  S54  1  0.18096165  0.59812873  0.90638648  1  0  1.600071  0  5.843769  0  0  1.474878  0  6.398006  0  0  1.530412  0  6.373138  0  0  0.555898  1.435455  0  6.423541  0
S  S55  1  0.31903530  0.40187065  0.40638621  1  0  1.599849  0  5.844035  0  0  1.474679  0  6.398262  0  0  1.5302  0  6.373411  0  0  0.55582  1.435255  0  6.423797  0
N  N56  1  0.06023932  0.82353428  0.42086358  1  0  0.295293  0  3.710279  0  0  0.346343  0  3.976779  0  0  0.346654  0  4.001585  0  0  -0.110932  0.345195  0  3.962675  0
N  N57  1  0.43975930  0.17646620  0.92086653  1  0  0.295109  0  3.710605  0  0  0.346117  0  3.977104  0  0  0.346421  0  4.001911  0  0  -0.111011  0.344968  0  3.963003  0
N  N58  1  0.93975861  0.17646375  0.57913416  1  0  0.295062  0  3.71055  0  0  0.346098  0  3.97705  0  0  0.346409  0  4.001857  0  0  -0.111054  0.344948  0  3.962947  0
N  N59  1  0.56024232  0.82353624  0.07913463  1  0  0.295116  0  3.710431  0  0  0.346126  0  3.97695  0  0  0.346437  0  4.001755  0  0  -0.111037  0.344976  0  3.962846  0
O  O60  1  0.04668256  0.07711003  0.12363856  1  0  -0.76889  0  2.083039  0  0  -0.733905  0  2.342799  0  0  -0.772281  0  2.32079  0  0  -0.432887  -0.717588  0  2.353491  0
O  O61  1  0.45332028  0.92289188  0.62364101  1  0  -0.768838  0  2.083037  0  0  -0.733861  0  2.342793  0  0  -0.77222  0  2.32079  0  0  -0.432863  -0.717545  0  2.353481  0
O  O62  1  0.95331696  0.92288910  0.87635919  1  0  -0.768835  0  2.083043  0  0  -0.733843  0  2.342812  0  0  -0.772197  0  2.320816  0  0  -0.432859  -0.717522  0  2.353502  0
O  O63  1  0.54668134  0.07711056  0.37636152  1  0  -0.768879  0  2.083125  0  0  -0.733872  0  2.342909  0  0  -0.772241  0  2.3209  0  0  -0.432888  -0.717555  0  2.353601  0
O  O64  1  0.94133374  0.84026195  0.08634911  1  0  -0.736524  0  2.119864  0  0  -0.699537  0  2.377252  0  0  -0.736415  0  2.360007  0  0  -0.411063  -0.682788  0  2.385558  0
O  O65  1  0.55867150  0.15973916  0.58635158  1  0  -0.736483  0  2.119846  0  0  -0.69951  0  2.377235  0  0  -0.736394  0  2.359996  0  0  -0.411078  -0.682765  0  2.385536  0
O  O66  1  0.05866871  0.15973830  0.91364931  1  0  -0.736474  0  2.119896  0  0  -0.699498  0  2.377305  0  0  -0.736389  0  2.360063  0  0  -0.411071  -0.682753  0  2.385607  0
O  O67  1  0.44133497  0.84026112  0.41364958  1  0  -0.736529  0  2.119806  0  0  -0.699518  0  2.377201  0  0  -0.736403  0  2.359952  0  0  -0.411063  -0.682769  0  2.385504  0
O  O68  1  0.09883310  0.78728290  0.50489629  1  0  -0.635059  0  1.860805  0  0  -0.610671  0  2.119761  0  0  -0.64679  0  2.116089  0  0  -0.332112  -0.592924  0  2.119751  0
O  O69  1  0.40116516  0.21271910  0.00489830  1  0  -0.634872  0  1.860975  0  0  -0.610476  0  2.119892  0  0  -0.646604  0  2.116224  0  0  -0.331977  -0.592735  0  2.119885  0
O  O70  1  0.90116400  0.21271731  0.49510214  1  0  -0.634935  0  1.860978  0  0  -0.610571  0  2.119918  0  0  -0.646693  0  2.116248  0  0  -0.332042  -0.592832  0  2.119913  0
O  O71  1  0.59883353  0.78728222  0.99510218  1  0  -0.634997  0  1.860862  0  0  -0.610612  0  2.119831  0  0  -0.646724  0  2.116161  0  0  -0.332054  -0.592866  0  2.119824  0
O  O72  1  0.00889988  0.44321910  0.13060525  1  0  -0.794279  0  1.940335  0  0  -0.751378  0  2.198393  0  0  -0.782926  0  2.182107  0  0  -0.423073  -0.735915  0  2.209909  0
O  O73  1  0.49109662  0.55677837  0.63060458  1  0  -0.79431  0  1.94028  0  0  -0.751388  0  2.198291  0  0  -0.782927  0  2.181999  0  0  -0.423093  -0.735928  0  2.209807  0
O  O74  1  0.99109696  0.55678002  0.86939455  1  0  -0.794375  0  1.940287  0  0  -0.751462  0  2.198326  0  0  -0.782994  0  2.182028  0  0  -0.42312  -0.735999  0  2.209842  0
O  O75  1  0.50889997  0.44321964  0.36939590  1  0  -0.794293  0  1.940316  0  0  -0.751385  0  2.198362  0  0  -0.782927  0  2.182072  0  0  -0.423061  -0.735922  0  2.209878  0
O  O76  1  0.82556282  0.27866835  0.02834826  1  0  -0.779916  0  1.964214  0  0  -0.739445  0  2.225696  0  0  -0.770502  0  2.210227  0  0  -0.414936  -0.723633  0  2.236336  0
O  O77  1  0.67443520  0.72133167  0.52834912  1  0  -0.779924  0  1.964134  0  0  -0.739492  0  2.225664  0  0  -0.770542  0  2.210191  0  0  -0.414962  -0.723684  0  2.236306  0
O  O78  1  0.17443268  0.72133076  0.97165154  1  0  -0.780001  0  1.964071  0  0  -0.739549  0  2.22558  0  0  -0.770592  0  2.210101  0  0  -0.415008  -0.72374  0  2.236222  0
O  O79  1  0.32556458  0.27866856  0.47165204  1  0  -0.779957  0  1.964104  0  0  -0.739515  0  2.225615  0  0  -0.770566  0  2.210142  0  0  -0.415012  -0.723705  0  2.236254  0
O  O80  1  0.76433973  0.52733915  0.04507498  1  0  -0.822198  0  2.0559  0  0  -0.784105  0  2.345632  0  0  -0.817777  0  2.321142  0  0  -0.448974  -0.769126  0  2.360419  0
O  O81  1  0.73566531  0.47266201  0.54507746  1  0  -0.822199  0  2.05584  0  0  -0.78408  0  2.345508  0  0  -0.817763  0  2.321013  0  0  -0.448988  -0.76911  0  2.360301  0
O  O82  1  0.23566272  0.47266111  0.95492345  1  0  -0.822234  0  2.05585  0  0  -0.78411  0  2.345508  0  0  -0.817797  0  2.321006  0  0  -0.448994  -0.769139  0  2.360299  0
O  O83  1  0.26433874  0.52733936  0.45492371  1  0  -0.82215  0  2.05588  0  0  -0.784053  0  2.345593  0  0  -0.817734  0  2.321101  0  0  -0.448957  -0.769078  0  2.360379  0
O  O84  1  0.68993337  0.35664591  0.17001273  1  0  -0.706877  0  1.988539  0  0  -0.634661  0  2.214124  0  0  -0.656794  0  2.195706  0  0  -0.322627  -0.61801  0  2.225626  0
O  O85  1  0.81006691  0.64335507  0.67001382  1  0  -0.706893  0  1.988502  0  0  -0.63464  0  2.214044  0  0  -0.656802  0  2.195657  0  0  -0.322621  -0.617994  0  2.225546  0
O  O86  1  0.31006264  0.64335539  0.82998706  1  0  -0.706888  0  1.988456  0  0  -0.634609  0  2.213986  0  0  -0.656803  0  2.195618  0  0  -0.322578  -0.617962  0  2.225487  0
O  O87  1  0.18993395  0.35664407  0.32998666  1  0  -0.706845  0  1.988517  0  0  -0.634593  0  2.214065  0  0  -0.656752  0  2.195677  0  0  -0.322585  -0.617943  0  2.225566  0
O  O88  1  0.33327886  0.35325468  0.15918635  1  0  -0.926664  0  1.860631  0  0  -0.88378  0  2.062553  0  0  -0.914666  0  2.022867  0  0  -0.669789  -0.869964  0  2.085655  0
O  O89  1  0.16671803  0.64674385  0.65918589  1  0  -0.926653  0  1.860693  0  0  -0.883764  0  2.062648  0  0  -0.914639  0  2.022956  0  0  -0.66977  -0.869955  0  2.085752  0
O  O90  1  0.66671665  0.64674442  0.84081412  1  0  -0.926663  0  1.860709  0  0  -0.883778  0  2.062668  0  0  -0.914647  0  2.022978  0  0  -0.669781  -0.869965  0  2.085772  0
O  O91  1  0.83327882  0.35325526  0.34081390  1  0  -0.926666  0  1.86068  0  0  -0.883775  0  2.062612  0  0  -0.914655  0  2.022925  0  0  -0.669794  -0.86996  0  2.085713  0
