# generated using pymatgen
data_ZnPH19C26N2O7
_symmetry_space_group_name_H-M   'P 1'
_cell_length_a   10.74970263
_cell_length_b   10.75426423
_cell_length_c   11.47349155
_cell_angle_alpha   106.15637135
_cell_angle_beta   97.44979593
_cell_angle_gamma   103.57471946
_symmetry_Int_Tables_number   1
_chemical_formula_structural   ZnPH19C26N2O7
_chemical_formula_sum   'Zn2 P2 H38 C52 N4 O14'
_cell_volume   1211.11811433
_cell_formula_units_Z   2
loop_
 _symmetry_equiv_pos_site_id
 _symmetry_equiv_pos_as_xyz
  1  'x, y, z'
loop_
 _atom_site_type_symbol
 _atom_site_label
 _atom_site_symmetry_multiplicity
 _atom_site_fract_x
 _atom_site_fract_y
 _atom_site_fract_z
 _atom_site_occupancy
 _atom_site_hle17_bader_spin_density
 _atom_site_hle17_ddec_charge
 _atom_site_hle17_ddec_spin_density
 _atom_site_hle17_ddec_sum_bond_order
 _atom_site_hle17_magmom
 _atom_site_hse06_10hf_bader_spin_density
 _atom_site_hse06_10hf_ddec_charge
 _atom_site_hse06_10hf_ddec_spin_density
 _atom_site_hse06_10hf_ddec_sum_bond_order
 _atom_site_hse06_10hf_magmom
 _atom_site_hse06_bader_spin_density
 _atom_site_hse06_ddec_charge
 _atom_site_hse06_ddec_spin_density
 _atom_site_hse06_ddec_sum_bond_order
 _atom_site_hse06_magmom
 _atom_site_pbe_bader_spin_density
 _atom_site_pbe_cm5_charge
 _atom_site_pbe_ddec_charge
 _atom_site_pbe_ddec_spin_density
 _atom_site_pbe_ddec_sum_bond_order
 _atom_site_pbe_magmom
Zn  Zn0  1  0.43653432  0.87530477  0.27676762  1  0  1.06462  0  1.831291  0  0  0.885756  0  2.288429  0  0  0.933647  0  2.233219  0  0  0.682315  0.851255  0  2.327373  0
Zn  Zn1  1  0.56346386  0.12469619  0.72323245  1  0  1.064628  0  1.831281  0  0  0.885749  0  2.288437  0  0  0.93364  0  2.233227  0  0  0.68232  0.851253  0  2.327381  0
P  P2  1  0.20792559  0.76940789  0.42790592  1  0  1.184256  0  4.767341  0  0  1.04779  0  5.238446  0  0  1.090464  0  5.21342  0  0  0.294764  1.01761  0  5.256099  0
P  P3  1  0.79207338  0.23058903  0.57209059  1  0  1.184159  0  4.767333  0  0  1.047671  0  5.238436  0  0  1.090364  0  5.213355  0  0  0.294707  1.017496  0  5.256086  0
H  H4  1  0.96357367  0.05237647  0.93334133  1  0  0.39681  0  0.904164  0  0  0.365772  0  0.982136  0  0  0.378726  0  0.964945  0  0  0.302767  0.356689  0  0.991407  0
H  H5  1  0.03642122  0.94760936  0.06666836  1  0  0.396841  0  0.904046  0  0  0.365821  0  0.982012  0  0  0.378778  0  0.964864  0  0  0.302764  0.356735  0  0.991279  0
H  H6  1  0.44473966  0.10991730  0.43518785  1  0  0.433365  0  0.862019  0  0  0.404207  0  0.922451  0  0  0.414565  0  0.907288  0  0  0.291802  0.396848  0  0.93329  0
H  H7  1  0.55526190  0.89008568  0.56481143  1  0  0.433344  0  0.862072  0  0  0.40418  0  0.922512  0  0  0.414538  0  0.907349  0  0  0.291815  0.396822  0  0.93335  0
H  H8  1  0.57879828  0.13514805  0.38925227  1  0  0.431229  0  0.872389  0  0  0.399251  0  0.937441  0  0  0.409949  0  0.92205  0  0  0.287094  0.3917  0  0.948273  0
H  H9  1  0.42120328  0.86485493  0.61074788  1  0  0.431236  0  0.872381  0  0  0.399288  0  0.9374  0  0  0.409987  0  0.922007  0  0  0.287099  0.391738  0  0.948233  0
H  H10  1  0.99117431  0.39407570  0.03648043  1  0  0.097128  0  0.954277  0  0  0.106888  0  1.018663  0  0  0.109951  0  1.016725  0  0  0.104274  0.104576  0  1.020352  0
H  H11  1  0.00882465  0.60592122  0.96351695  1  0  0.097052  0  0.954423  0  0  0.10686  0  1.018739  0  0  0.109886  0  1.016844  0  0  0.104251  0.104549  0  1.02043  0
H  H12  1  0.05736984  0.63401967  0.17413639  1  0  0.094123  0  0.944844  0  0  0.105269  0  1.006342  0  0  0.108219  0  1.004944  0  0  0.104353  0.103  0  1.007683  0
H  H13  1  0.94263424  0.36597523  0.82585502  1  0  0.094084  0  0.944848  0  0  0.105264  0  1.0063  0  0  0.108219  0  1.004912  0  0  0.104353  0.102997  0  1.00764  0
H  H14  1  0.25176352  0.52432564  0.46609405  1  0  0.101542  0  0.941599  0  0  0.111938  0  0.999265  0  0  0.115519  0  0.997468  0  0  0.106717  0.109324  0  1.000704  0
H  H15  1  0.74823257  0.47568137  0.53390731  1  0  0.101521  0  0.941588  0  0  0.111881  0  0.999302  0  0  0.115462  0  0.997506  0  0  0.106701  0.109269  0  1.000739  0
H  H16  1  0.18709062  0.28259833  0.32463895  1  0  0.100794  0  0.965641  0  0  0.110238  0  1.02704  0  0  0.113536  0  1.024399  0  0  0.107475  0.107767  0  1.029202  0
H  H17  1  0.81290188  0.71740263  0.67536912  1  0  0.100828  0  0.965684  0  0  0.110259  0  1.027078  0  0  0.113561  0  1.024439  0  0  0.107471  0.107788  0  1.029239  0
H  H18  1  0.76123817  0.74050318  0.50957752  1  0  0.092999  0  0.961221  0  0  0.104076  0  1.020846  0  0  0.107506  0  1.018105  0  0  0.102135  0.101131  0  1.023732  0
H  H19  1  0.23875852  0.25949575  0.49042096  1  0  0.093071  0  0.96119  0  0  0.104143  0  1.020813  0  0  0.107574  0  1.018072  0  0  0.10216  0.101196  0  1.0237  0
H  H20  1  0.98546217  0.70616597  0.54531572  1  0  0.089901  0  0.959548  0  0  0.100182  0  1.021903  0  0  0.102814  0  1.021522  0  0  0.099921  0.098347  0  1.022123  0
H  H21  1  0.01453763  0.29383397  0.45468168  1  0  0.089954  0  0.959534  0  0  0.100208  0  1.021911  0  0  0.10284  0  1.021532  0  0  0.099954  0.098374  0  1.022129  0
H  H22  1  0.09552198  0.91964093  0.29096061  1  0  0.106592  0  0.941145  0  0  0.118306  0  0.996805  0  0  0.121941  0  0.994553  0  0  0.105887  0.115355  0  0.999127  0
H  H23  1  0.90448092  0.08036003  0.70903570  1  0  0.106608  0  0.941229  0  0  0.118319  0  0.996885  0  0  0.121918  0  0.994677  0  0  0.105847  0.115371  0  0.999207  0
H  H24  1  0.87186011  0.95089831  0.25545559  1  0  0.097876  0  0.95444  0  0  0.106588  0  1.018953  0  0  0.109964  0  1.016955  0  0  0.102874  0.104242  0  1.02035  0
H  H25  1  0.12814034  0.04910064  0.74454337  1  0  0.097893  0  0.954454  0  0  0.106608  0  1.018962  0  0  0.109986  0  1.016959  0  0  0.102868  0.104264  0  1.020361  0
H  H26  1  0.44435408  0.56923961  0.27909280  1  0  0.084707  0  0.919604  0  0  0.094899  0  0.977518  0  0  0.097222  0  0.975893  0  0  0.120128  0.093256  0  0.978589  0
H  H27  1  0.55564476  0.43076034  0.72090796  1  0  0.084672  0  0.919565  0  0  0.094863  0  0.977488  0  0  0.097185  0  0.975865  0  0  0.120113  0.093221  0  0.978559  0
H  H28  1  0.39050907  0.33982129  0.11915601  1  0  0.102801  0  0.93677  0  0  0.117932  0  0.987123  0  0  0.120473  0  0.987386  0  0  0.109455  0.11515  0  0.988865  0
H  H29  1  0.60949258  0.66017866  0.88084511  1  0  0.102862  0  0.936714  0  0  0.117961  0  0.987097  0  0  0.120502  0  0.98736  0  0  0.109463  0.115179  0  0.988839  0
H  H30  1  0.30286579  0.31223840  0.89639259  1  0  0.107973  0  0.944344  0  0  0.115943  0  1.009844  0  0  0.118939  0  1.007826  0  0  0.108976  0.113835  0  1.011388  0
H  H31  1  0.69713897  0.68776257  0.10360832  1  0  0.107965  0  0.944391  0  0  0.115976  0  1.009831  0  0  0.118973  0  1.007812  0  0  0.108979  0.113864  0  1.011378  0
H  H32  1  0.24044579  0.42267369  0.73818014  1  0  0.095605  0  0.984219  0  0  0.10556  0  1.046707  0  0  0.107026  0  1.048774  0  0  0.099547  0.104572  0  1.045168  0
H  H33  1  0.75955763  0.57732929  0.26182199  1  0  0.095599  0  0.984212  0  0  0.105551  0  1.046709  0  0  0.107022  0  1.04877  0  0  0.099529  0.104563  0  1.045168  0
H  H34  1  0.22923690  0.63225611  0.68941079  1  0  0.117895  0  0.947446  0  0  0.128134  0  1.006329  0  0  0.131481  0  1.004636  0  0  0.108457  0.125673  0  1.007577  0
H  H35  1  0.77076315  0.36774485  0.31059126  1  0  0.117898  0  0.94744  0  0  0.128131  0  1.006329  0  0  0.131479  0  1.004634  0  0  0.108445  0.12566  0  1.00759  0
H  H36  1  0.25864575  0.88089222  0.76256110  1  0  0.129901  0  0.945878  0  0  0.138117  0  1.006375  0  0  0.141753  0  1.003561  0  0  0.115976  0.135538  0  1.008232  0
H  H37  1  0.74135685  0.11910774  0.23743928  1  0  0.129904  0  0.945875  0  0  0.13812  0  1.006373  0  0  0.141752  0  1.003567  0  0  0.115992  0.135539  0  1.00823  0
H  H38  1  0.31271415  0.09427763  0.94033638  1  0  0.109221  0  0.953957  0  0  0.119166  0  1.014304  0  0  0.122708  0  1.01277  0  0  0.106488  0.115815  0  1.017226  0
H  H39  1  0.68728912  0.90572132  0.05966294  1  0  0.109234  0  0.95389  0  0  0.119177  0  1.014248  0  0  0.12272  0  1.012711  0  0  0.106494  0.115824  0  1.017169  0
H  H40  1  0.37771940  0.08751907  0.15953010  1  0  0.086412  0  0.933944  0  0  0.095249  0  0.995426  0  0  0.098516  0  0.991738  0  0  0.118546  0.092524  0  0.998856  0
H  H41  1  0.62228269  0.91248593  0.84047325  1  0  0.086431  0  0.93394  0  0  0.095248  0  0.995437  0  0  0.098513  0  0.991748  0  0  0.118569  0.092527  0  0.998865  0
C  C42  1  0.04828054  0.18205304  0.09601960  1  0  0.654157  0  3.822254  0  0  0.602856  0  4.119099  0  0  0.63724  0  4.109965  0  0  0.236441  0.579222  0  4.125383  0
C  C43  1  0.95170881  0.81794992  0.90398074  1  0  0.654116  0  3.822273  0  0  0.602816  0  4.11917  0  0  0.637188  0  4.110043  0  0  0.236467  0.579185  0  4.125454  0
C  C44  1  0.08571333  0.32521185  0.17389583  1  0  -0.090512  0  3.80342  0  0  -0.066779  0  4.036974  0  0  -0.07621  0  4.061369  0  0  -0.022042  -0.060426  0  4.02023  0
C  C45  1  0.91428573  0.67478205  0.82610427  1  0  -0.090451  0  3.803389  0  0  -0.066785  0  4.037035  0  0  -0.0762  0  4.061413  0  0  -0.022127  -0.060437  0  4.020293  0
C  C46  1  0.04912609  0.42367747  0.13007754  1  0  -0.057586  0  3.720511  0  0  -0.085367  0  3.975988  0  0  -0.084312  0  3.996221  0  0  -0.080861  -0.085894  0  3.962326  0
C  C47  1  0.95087288  0.57631945  0.86991897  1  0  -0.057488  0  3.720671  0  0  -0.085274  0  3.976137  0  0  -0.084197  0  3.99639  0  0  -0.080787  -0.085801  0  3.962476  0
C  C48  1  0.08613703  0.55692115  0.20715471  1  0  -0.051703  0  3.739988  0  0  -0.074623  0  3.993783  0  0  -0.076793  0  4.015612  0  0  -0.080187  -0.072979  0  3.978875  0
C  C49  1  0.91386382  0.44307577  0.79284117  1  0  -0.051703  0  3.73996  0  0  -0.07463  0  3.993737  0  0  -0.076811  0  4.015571  0  0  -0.080196  -0.072987  0  3.978831  0
C  C50  1  0.15940684  0.59360595  0.32835071  1  0  -0.178868  0  3.727188  0  0  -0.144169  0  3.968838  0  0  -0.150382  0  3.991221  0  0  -0.016021  -0.139774  0  3.953559  0
C  C51  1  0.84059795  0.40639501  0.67164409  1  0  -0.178919  0  3.727251  0  0  -0.144235  0  3.96892  0  0  -0.150451  0  3.991306  0  0  -0.01605  -0.139847  0  3.953656  0
C  C52  1  0.19530518  0.49479241  0.37165438  1  0  -0.059417  0  3.756393  0  0  -0.077419  0  4.000858  0  0  -0.080006  0  4.022217  0  0  -0.078516  -0.075819  0  3.986315  0
C  C53  1  0.80469611  0.50520956  0.62834460  1  0  -0.059267  0  3.75643  0  0  -0.077244  0  4.00089  0  0  -0.079828  0  4.022255  0  0  -0.078484  -0.075644  0  3.986345  0
C  C54  1  0.15934929  0.36142286  0.29433360  1  0  -0.06609  0  3.737293  0  0  -0.091003  0  3.985127  0  0  -0.090455  0  4.005347  0  0  -0.079044  -0.09089  0  3.970939  0
C  C55  1  0.84064646  0.63857607  0.70566564  1  0  -0.06625  0  3.737432  0  0  -0.091116  0  3.985224  0  0  -0.090583  0  4.005457  0  0  -0.079021  -0.090996  0  3.971031  0
C  C56  1  0.66704130  0.85415733  0.35218398  1  0  0.632741  0  3.917929  0  0  0.58207  0  4.210233  0  0  0.615966  0  4.203207  0  0  0.199197  0.559278  0  4.213775  0
C  C57  1  0.33295906  0.14584463  0.64781314  1  0  0.632908  0  3.918016  0  0  0.582298  0  4.210205  0  0  0.616195  0  4.203174  0  0  0.199245  0.559507  0  4.21375  0
C  C58  1  0.80343776  0.84491295  0.37948048  1  0  -0.063454  0  3.766465  0  0  -0.039988  0  3.99905  0  0  -0.047057  0  4.021345  0  0  -0.0177  -0.035396  0  3.984045  0
C  C59  1  0.19656147  0.15508498  0.62051807  1  0  -0.063407  0  3.766527  0  0  -0.039951  0  3.999081  0  0  -0.047019  0  4.021376  0  0  -0.017682  -0.035359  0  3.984077  0
C  C60  1  0.83641869  0.77845026  0.46285313  1  0  -0.07699  0  3.742467  0  0  -0.09959  0  3.990516  0  0  -0.10022  0  4.010526  0  0  -0.085506  -0.09889  0  3.977347  0
C  C61  1  0.16357921  0.22154969  0.53714838  1  0  -0.077104  0  3.742558  0  0  -0.099704  0  3.990595  0  0  -0.100332  0  4.010603  0  0  -0.085539  -0.099002  0  3.977422  0
C  C62  1  0.96020690  0.75962822  0.48180756  1  0  -0.055857  0  3.760748  0  0  -0.076468  0  4.006673  0  0  -0.07828  0  4.029297  0  0  -0.082418  -0.075043  0  3.991007  0
C  C63  1  0.03979101  0.24037173  0.51819134  1  0  -0.055876  0  3.760864  0  0  -0.076468  0  4.006776  0  0  -0.078282  0  4.029406  0  0  -0.082448  -0.075039  0  3.991109  0
C  C64  1  0.05297123  0.80880438  0.41805203  1  0  -0.200731  0  3.769268  0  0  -0.162318  0  4.007799  0  0  -0.170299  0  4.031828  0  0  -0.021962  -0.156714  0  3.991703  0
C  C65  1  0.94702708  0.19119355  0.58194466  1  0  -0.200676  0  3.769223  0  0  -0.16226  0  4.007743  0  0  -0.170241  0  4.03176  0  0  -0.021932  -0.156667  0  3.991663  0
C  C66  1  0.02159155  0.87933920  0.33777904  1  0  -0.043069  0  3.735159  0  0  -0.065188  0  3.982383  0  0  -0.0663  0  4.003212  0  0  -0.078238  -0.06434  0  3.968767  0
C  C67  1  0.97840903  0.12065671  0.66221654  1  0  -0.043119  0  3.735216  0  0  -0.065234  0  3.982432  0  0  -0.066325  0  4.003277  0  0  -0.078216  -0.064385  0  3.968819  0
C  C68  1  0.89731831  0.89699544  0.31829183  1  0  -0.062215  0  3.716226  0  0  -0.086488  0  3.968438  0  0  -0.08655  0  3.987926  0  0  -0.080903  -0.086309  0  3.955168  0
C  C69  1  0.10268160  0.10300148  0.68170480  1  0  -0.062243  0  3.716322  0  0  -0.086526  0  3.96853  0  0  -0.086587  0  3.98801  0  0  -0.080865  -0.086347  0  3.955264  0
C  C70  1  0.40484954  0.55277588  0.18177563  1  0  0.151417  0  3.690553  0  0  0.118478  0  3.952007  0  0  0.126004  0  3.969351  0  0  0.061313  0.113704  0  3.939636  0
C  C71  1  0.59515117  0.44722408  0.81822624  1  0  0.151453  0  3.690533  0  0  0.11853  0  3.951968  0  0  0.126055  0  3.969319  0  0  0.061323  0.113755  0  3.939599  0
C  C72  1  0.37431014  0.42474213  0.09138592  1  0  -0.119199  0  3.747819  0  0  -0.134409  0  4.007056  0  0  -0.141047  0  4.029117  0  0  -0.083234  -0.129462  0  3.993015  0
C  C73  1  0.62569302  0.57525984  0.90861418  1  0  -0.119273  0  3.747786  0  0  -0.13446  0  4.007025  0  0  -0.141099  0  4.029083  0  0  -0.083248  -0.129514  0  3.992983  0
C  C74  1  0.32580452  0.40963614  0.96901451  1  0  -0.045723  0  3.665426  0  0  -0.071333  0  3.918275  0  0  -0.068926  0  3.935847  0  0  -0.064211  -0.072891  0  3.906453  0
C  C75  1  0.67419863  0.59036583  0.03098646  1  0  -0.045698  0  3.665539  0  0  -0.071308  0  3.918372  0  0  -0.068902  0  3.935943  0  0  -0.064183  -0.072864  0  3.906541  0
C  C76  1  0.30926248  0.52340330  0.93680420  1  0  0.025968  0  3.797668  0  0  0.042646  0  4.028466  0  0  0.040331  0  4.053253  0  0  -0.001947  0.043885  0  4.012374  0
C  C77  1  0.69074216  0.47660070  0.06319748  1  0  0.026036  0  3.797649  0  0  0.042634  0  4.028545  0  0  0.040321  0  4.053329  0  0  -0.001962  0.043881  0  4.012438  0
C  C78  1  0.26633770  0.51936841  0.81184208  1  0  -0.1084  0  3.747723  0  0  -0.128103  0  3.996931  0  0  -0.132316  0  4.021951  0  0  -0.087663  -0.125057  0  3.980275  0
C  C79  1  0.73366423  0.48063256  0.18815934  1  0  -0.108427  0  3.74772  0  0  -0.128107  0  3.996952  0  0  -0.132326  0  4.021969  0  0  -0.087646  -0.125063  0  3.98029  0
C  C80  1  0.25873830  0.63369498  0.78460081  1  0  -0.090666  0  3.717035  0  0  -0.111413  0  3.963981  0  0  -0.114453  0  3.986704  0  0  -0.07936  -0.109378  0  3.948587  0
C  C81  1  0.74126149  0.36630497  0.21539920  1  0  -0.090694  0  3.717074  0  0  -0.111433  0  3.964009  0  0  -0.114474  0  3.986736  0  0  -0.07937  -0.109392  0  3.948624  0
C  C82  1  0.28992578  0.76075186  0.88120860  1  0  0.023175  0  3.789484  0  0  0.039608  0  4.021037  0  0  0.036371  0  4.04633  0  0  -0.000224  0.042068  0  4.003638  0
C  C83  1  0.71007521  0.23924911  0.11879269  1  0  0.023177  0  3.789483  0  0  0.039622  0  4.021051  0  0  0.036384  0  4.046344  0  0  -0.000234  0.042082  0  4.00365  0
C  C84  1  0.28411984  0.88187952  0.85812178  1  0  -0.028716  0  3.625286  0  0  -0.054559  0  3.874629  0  0  -0.05152  0  3.891215  0  0  -0.056381  -0.05656  0  3.862853  0
C  C85  1  0.71588116  0.11812144  0.14187865  1  0  -0.028744  0  3.625324  0  0  -0.054586  0  3.874672  0  0  -0.051548  0  3.891259  0  0  -0.056389  -0.056585  0  3.862893  0
C  C86  1  0.31447140  0.99990538  0.95710874  1  0  -0.11425  0  3.724844  0  0  -0.13283  0  3.989911  0  0  -0.139781  0  4.010554  0  0  -0.084803  -0.128126  0  3.977015  0
C  C87  1  0.68553148  0.00009559  0.04289193  1  0  -0.114267  0  3.724789  0  0  -0.132843  0  3.989862  0  0  -0.139791  0  4.010496  0  0  -0.084816  -0.128139  0  3.976964  0
C  C88  1  0.35174582  0.99744652  0.07815295  1  0  0.149985  0  3.691015  0  0  0.115088  0  3.949574  0  0  0.123366  0  3.96658  0  0  0.057831  0.109903  0  3.938257  0
C  C89  1  0.64825412  0.00255747  0.92184899  1  0  0.149965  0  3.690995  0  0  0.115078  0  3.949566  0  0  0.123358  0  3.96657  0  0  0.057805  0.10989  0  3.938253  0
C  C90  1  0.32976721  0.76777377  0.00635263  1  0  0.130543  0  3.75617  0  0  0.12392  0  3.991175  0  0  0.128525  0  4.013063  0  0  0.119322  0.120889  0  3.976701  0
C  C91  1  0.67023312  0.23222820  0.99364885  1  0  0.130558  0  3.756107  0  0  0.123878  0  3.991168  0  0  0.128483  0  4.013056  0  0  0.119313  0.120847  0  3.976698  0
C  C92  1  0.34203943  0.64801407  0.03455797  1  0  0.125153  0  3.759603  0  0  0.118615  0  3.997757  0  0  0.122123  0  4.019872  0  0  0.115929  0.115715  0  3.983284  0
C  C93  1  0.65796184  0.35198790  0.96544362  1  0  0.125114  0  3.759604  0  0  0.118632  0  3.99777  0  0  0.122138  0  4.019887  0  0  0.11591  0.115729  0  3.983299  0
N  N94  1  0.38810054  0.66067841  0.15422229  1  0  -0.345888  0  3.258634  0  0  -0.281595  0  3.526257  0  0  -0.298545  0  3.543753  0  0  -0.307814  -0.269479  0  3.513864  0
N  N95  1  0.61189951  0.33932256  0.84577889  1  0  -0.345875  0  3.258656  0  0  -0.281602  0  3.526282  0  0  -0.29855  0  3.543776  0  0  -0.307794  -0.269486  0  3.513892  0
N  N96  1  0.36018611  0.88486170  0.10164845  1  0  -0.340553  0  3.282722  0  0  -0.267941  0  3.550592  0  0  -0.286339  0  3.566277  0  0  -0.317825  -0.255234  0  3.539527  0
N  N97  1  0.63981328  0.11514027  0.89835378  1  0  -0.340544  0  3.28269  0  0  -0.267909  0  3.550567  0  0  -0.286309  0  3.566255  0  0  -0.317812  -0.255204  0  3.539509  0
O  O98  1  0.07369402  0.09408039  0.13970608  1  0  -0.570299  0  1.998844  0  0  -0.518744  0  2.212807  0  0  -0.541521  0  2.202918  0  0  -0.287191  -0.503316  0  2.219436  0
O  O99  1  0.92630288  0.90590949  0.86031014  1  0  -0.570093  0  1.99971  0  0  -0.518497  0  2.21365  0  0  -0.541266  0  2.203758  0  0  -0.287027  -0.503075  0  2.220278  0
O  O100  1  0.98837417  0.15582637  0.98043232  1  0  -0.540894  0  2.10418  0  0  -0.491676  0  2.323236  0  0  -0.514165  0  2.307775  0  0  -0.32149  -0.476032  0  2.33185  0
O  O101  1  0.01162050  0.84416552  0.01957803  1  0  -0.540983  0  2.10359  0  0  -0.491809  0  2.322657  0  0  -0.514293  0  2.307233  0  0  -0.321628  -0.476173  0  2.331297  0
O  O102  1  0.58585724  0.82141514  0.41763478  1  0  -0.651551  0  1.97141  0  0  -0.589924  0  2.2  0  0  -0.614976  0  2.187097  0  0  -0.3203  -0.571921  0  2.209355  0
O  O103  1  0.41414383  0.17859288  0.58236399  1  0  -0.651607  0  1.971531  0  0  -0.589991  0  2.200075  0  0  -0.615045  0  2.187173  0  0  -0.320278  -0.571987  0  2.20943  0
O  O104  1  0.63353832  0.89031718  0.25830947  1  0  -0.63805  0  2.02442  0  0  -0.575852  0  2.28199  0  0  -0.604375  0  2.273265  0  0  -0.315961  -0.555371  0  2.286956  0
O  O105  1  0.36646270  0.10968378  0.74168747  1  0  -0.638195  0  2.024463  0  0  -0.576026  0  2.282027  0  0  -0.604547  0  2.273292  0  0  -0.316058  -0.555545  0  2.286998  0
O  O106  1  0.28930428  0.85514008  0.36404750  1  0  -0.797487  0  2.089462  0  0  -0.711246  0  2.386505  0  0  -0.738651  0  2.364076  0  0  -0.372549  -0.691116  0  2.402344  0
O  O107  1  0.71069566  0.14486391  0.63595532  1  0  -0.797472  0  2.08941  0  0  -0.711236  0  2.386493  0  0  -0.738626  0  2.364019  0  0  -0.372568  -0.691106  0  2.40233  0
O  O108  1  0.26430082  0.77594461  0.55809967  1  0  -0.787585  0  1.926724  0  0  -0.718208  0  2.163836  0  0  -0.742115  0  2.14734  0  0  -0.366616  -0.700834  0  2.174794  0
O  O109  1  0.73569793  0.22405836  0.44189838  1  0  -0.78756  0  1.92672  0  0  -0.718135  0  2.163805  0  0  -0.742043  0  2.147305  0  0  -0.366574  -0.700761  0  2.17476  0
O  O110  1  0.48294614  0.08547835  0.36071341  1  0  -0.833158  0  1.881421  0  0  -0.767353  0  2.075828  0  0  -0.789295  0  2.041345  0  0  -0.57902  -0.75166  0  2.099774  0
O  O111  1  0.51705477  0.91452563  0.63928517  1  0  -0.833151  0  1.881486  0  0  -0.767359  0  2.075836  0  0  -0.789302  0  2.041349  0  0  -0.579021  -0.751665  0  2.099781  0
