# generated using pymatgen
data_ZnH14C26(NO)4
_symmetry_space_group_name_H-M   'P 1'
_cell_length_a   5.71727447
_cell_length_b   10.80039868
_cell_length_c   16.79174227
_cell_angle_alpha   90.99761257
_cell_angle_beta   81.11747674
_cell_angle_gamma   73.90822463
_symmetry_Int_Tables_number   1
_chemical_formula_structural   ZnH14C26(NO)4
_chemical_formula_sum   'Zn2 H28 C52 N8 O8'
_cell_volume   982.31524074
_cell_formula_units_Z   2
loop_
 _symmetry_equiv_pos_site_id
 _symmetry_equiv_pos_as_xyz
  1  'x, y, z'
loop_
 _atom_site_type_symbol
 _atom_site_label
 _atom_site_symmetry_multiplicity
 _atom_site_fract_x
 _atom_site_fract_y
 _atom_site_fract_z
 _atom_site_occupancy
 _atom_site_hle17_bader_spin_density
 _atom_site_hle17_ddec_charge
 _atom_site_hle17_ddec_spin_density
 _atom_site_hle17_ddec_sum_bond_order
 _atom_site_hle17_magmom
 _atom_site_hse06_10hf_bader_spin_density
 _atom_site_hse06_10hf_ddec_charge
 _atom_site_hse06_10hf_ddec_spin_density
 _atom_site_hse06_10hf_ddec_sum_bond_order
 _atom_site_hse06_10hf_magmom
 _atom_site_hse06_bader_spin_density
 _atom_site_hse06_ddec_charge
 _atom_site_hse06_ddec_spin_density
 _atom_site_hse06_ddec_sum_bond_order
 _atom_site_hse06_magmom
 _atom_site_pbe_bader_spin_density
 _atom_site_pbe_cm5_charge
 _atom_site_pbe_ddec_charge
 _atom_site_pbe_ddec_spin_density
 _atom_site_pbe_ddec_sum_bond_order
 _atom_site_pbe_magmom
Zn  Zn0  1  0.74218329  0.49357232  0.38250048  1  0  1.061684  0  1.799819  0  0  0.879144  0  2.261768  0  0  0.927591  0  2.204725  0  0  0.70101  0.844979  0  2.301316  0
Zn  Zn1  1  0.25781993  0.50642592  0.61749870  1  0  1.061665  0  1.799823  0  0  0.879112  0  2.26179  0  0  0.927564  0  2.204745  0  0  0.700937  0.844944  0  2.301339  0
H  H2  1  0.33242223  0.59801096  0.27509258  1  0  0.093792  0  0.954872  0  0  0.097816  0  1.023684  0  0  0.100324  0  1.021409  0  0  0.121528  0.095864  0  1.025523  0
H  H3  1  0.66758309  0.40199020  0.72490888  1  0  0.093753  0  0.954859  0  0  0.097779  0  1.023668  0  0  0.100291  0  1.021392  0  0  0.121513  0.095828  0  1.025507  0
H  H4  1  0.30729193  0.59048509  0.12805564  1  0  0.114221  0  0.932392  0  0  0.124864  0  0.990224  0  0  0.128454  0  0.988891  0  0  0.112804  0.122212  0  0.991573  0
H  H5  1  0.69271263  0.40952089  0.87194647  1  0  0.114237  0  0.932351  0  0  0.124799  0  0.990278  0  0  0.128387  0  0.98895  0  0  0.112779  0.122146  0  0.991629  0
H  H6  1  0.67470907  0.44975664  0.03102389  1  0  0.100041  0  0.945385  0  0  0.109252  0  1.010935  0  0  0.112633  0  1.007766  0  0  0.109329  0.106815  0  1.013171  0
H  H7  1  0.32528938  0.55024742  0.96897737  1  0  0.100043  0  0.945401  0  0  0.109258  0  1.010952  0  0  0.112642  0  1.007779  0  0  0.109306  0.10682  0  1.013188  0
H  H8  1  0.27486034  0.33871621  0.42197924  1  0  0.107347  0  0.92144  0  0  0.112299  0  0.986074  0  0  0.115713  0  0.982584  0  0  0.127366  0.109774  0  0.988637  0
H  H9  1  0.72513767  0.66128211  0.57802441  1  0  0.107393  0  0.921347  0  0  0.112373  0  0.985956  0  0  0.115786  0  0.982465  0  0  0.127396  0.109847  0  0.988518  0
H  H10  1  0.65897193  0.18591982  0.34586510  1  0  0.110046  0  0.972508  0  0  0.118534  0  1.036953  0  0  0.121514  0  1.036217  0  0  0.109849  0.116376  0  1.037608  0
H  H11  1  0.34103979  0.81407941  0.65413837  1  0  0.109944  0  0.972683  0  0  0.118437  0  1.037108  0  0  0.121412  0  1.036378  0  0  0.109882  0.116279  0  1.037763  0
H  H12  1  0.68521675  0.13850349  0.19526608  1  0  0.102092  0  0.941003  0  0  0.110336  0  1.00672  0  0  0.114095  0  1.003268  0  0  0.109529  0.107561  0  1.009392  0
H  H13  1  0.31479964  0.86149662  0.80473236  1  0  0.102082  0  0.941051  0  0  0.110368  0  1.006728  0  0  0.114129  0  1.003273  0  0  0.10953  0.10759  0  1.009406  0
H  H14  1  0.14248439  0.24293783  0.83859259  1  0  0.125939  0  0.951873  0  0  0.132509  0  1.017349  0  0  0.13687  0  1.01403  0  0  0.107362  0.129373  0  1.019728  0
H  H15  1  0.85751596  0.75705279  0.16141209  1  0  0.12586  0  0.951904  0  0  0.132476  0  1.017325  0  0  0.136841  0  1.014001  0  0  0.107365  0.129335  0  1.019717  0
H  H16  1  0.52174029  0.11359966  0.75092243  1  0  0.097108  0  0.959076  0  0  0.106271  0  1.021133  0  0  0.108067  0  1.022259  0  0  0.102937  0.104888  0  1.020666  0
H  H17  1  0.47825147  0.88638041  0.24908329  1  0  0.096934  0  0.959172  0  0  0.10613  0  1.021208  0  0  0.107925  0  1.022334  0  0  0.102853  0.104755  0  1.020718  0
H  H18  1  0.90061149  0.01289240  0.80826741  1  0  0.082169  0  0.963661  0  0  0.095197  0  1.023587  0  0  0.097079  0  1.023426  0  0  0.099252  0.093909  0  1.023616  0
H  H19  1  0.09937949  0.98709249  0.19173778  1  0  0.082208  0  0.963667  0  0  0.095185  0  1.02367  0  0  0.097066  0  1.023511  0  0  0.099207  0.093894  0  1.023699  0
H  H20  1  0.90657950  0.04334428  0.95495797  1  0  0.10562  0  0.954728  0  0  0.114476  0  1.019517  0  0  0.118115  0  1.017055  0  0  0.104193  0.111854  0  1.021414  0
H  H21  1  0.09342936  0.95666361  0.04504391  1  0  0.105704  0  0.954582  0  0  0.114547  0  1.019396  0  0  0.118186  0  1.016936  0  0  0.104232  0.111924  0  1.021293  0
H  H22  1  0.54673635  0.14324661  0.50668951  1  0  0.090968  0  0.962576  0  0  0.101958  0  1.02532  0  0  0.104763  0  1.024156  0  0  0.100339  0.099902  0  1.026288  0
H  H23  1  0.45325894  0.85675645  0.49330776  1  0  0.090888  0  0.962522  0  0  0.101819  0  1.025333  0  0  0.104616  0  1.024185  0  0  0.10032  0.099763  0  1.026302  0
H  H24  1  0.64440260  0.93135615  0.56924296  1  0  0.080076  0  0.977232  0  0  0.092068  0  1.039759  0  0  0.094233  0  1.03935  0  0  0.096883  0.090474  0  1.040211  0
H  H25  1  0.35559047  0.06864791  0.43075682  1  0  0.080064  0  0.977233  0  0  0.09204  0  1.039794  0  0  0.094203  0  1.039385  0  0  0.096869  0.090448  0  1.040246  0
H  H26  1  0.95288621  0.88352206  0.66105699  1  0  0.081985  0  0.975331  0  0  0.091325  0  1.040054  0  0  0.094033  0  1.039204  0  0  0.093816  0.089405  0  1.040834  0
H  H27  1  0.04711213  0.11648195  0.33894071  1  0  0.081953  0  0.975274  0  0  0.091288  0  1.040011  0  0  0.093995  0  1.039159  0  0  0.093802  0.089367  0  1.040796  0
H  H28  1  0.16364424  0.05092633  0.69161925  1  0  0.085038  0  0.962197  0  0  0.096334  0  1.026521  0  0  0.099366  0  1.025099  0  0  0.097848  0.094169  0  1.027626  0
H  H29  1  0.83635214  0.94907483  0.30838033  1  0  0.085057  0  0.962138  0  0  0.096355  0  1.02646  0  0  0.099383  0  1.025053  0  0  0.097825  0.094188  0  1.027565  0
C  C30  1  0.48864533  0.54207405  0.23136060  1  0  0.173955  0  3.641394  0  0  0.138654  0  3.89755  0  0  0.14827  0  3.91233  0  0  0.068082  0.132288  0  3.888013  0
C  C31  1  0.51135338  0.45792616  0.76864063  1  0  0.174056  0  3.641296  0  0  0.138776  0  3.897415  0  0  0.148392  0  3.912201  0  0  0.068119  0.132408  0  3.887881  0
C  C32  1  0.47565493  0.53599486  0.14865505  1  0  -0.113812  0  3.701996  0  0  -0.127725  0  3.960866  0  0  -0.134871  0  3.981293  0  0  -0.077557  -0.123341  0  3.947609  0
C  C33  1  0.52434905  0.46400530  0.85134410  1  0  -0.113755  0  3.701949  0  0  -0.127595  0  3.960801  0  0  -0.13474  0  3.981232  0  0  -0.077482  -0.123212  0  3.947545  0
C  C34  1  0.67587545  0.45994921  0.09555227  1  0  -0.01552  0  3.675079  0  0  -0.049082  0  3.935319  0  0  -0.044794  0  3.951604  0  0  -0.061089  -0.051444  0  3.923831  0
C  C35  1  0.32413065  0.54004714  0.90444972  1  0  -0.015597  0  3.675015  0  0  -0.049162  0  3.935241  0  0  -0.044879  0  3.951526  0  0  -0.061106  -0.051525  0  3.923752  0
C  C36  1  0.88945762  0.39279171  0.12539185  1  0  -0.034148  0  3.73779  0  0  -0.021933  0  3.971688  0  0  -0.027236  0  3.995041  0  0  0.003734  -0.018614  0  3.955864  0
C  C37  1  0.11054313  0.60721139  0.87460987  1  0  -0.034184  0  3.737946  0  0  -0.021982  0  3.971852  0  0  -0.027267  0  3.99522  0  0  0.003757  -0.018662  0  3.956026  0
C  C38  1  0.88988896  0.40817111  0.20880307  1  0  0.147596  0  3.761304  0  0  0.137085  0  4.000733  0  0  0.142609  0  4.021841  0  0  0.123183  0.133485  0  3.986308  0
C  C39  1  0.11009917  0.59183593  0.79120176  1  0  0.147641  0  3.761014  0  0  0.137051  0  4.000466  0  0  0.142581  0  4.02157  0  0  0.12309  0.133449  0  3.986044  0
C  C40  1  0.10924100  0.34577129  0.24283556  1  0  0.133843  0  3.784166  0  0  0.122991  0  4.0265  0  0  0.128019  0  4.047733  0  0  0.121212  0.119891  0  4.011947  0
C  C41  1  0.89074092  0.65423379  0.75716486  1  0  0.133716  0  3.784127  0  0  0.123004  0  4.026222  0  0  0.128029  0  4.04745  0  0  0.121247  0.119905  0  4.01167  0
C  C42  1  0.29239414  0.31476783  0.35755723  1  0  0.182603  0  3.615534  0  0  0.147068  0  3.876894  0  0  0.156099  0  3.890133  0  0  0.072507  0.141046  0  3.868107  0
C  C43  1  0.70759215  0.68523919  0.64244533  1  0  0.182447  0  3.615566  0  0  0.146885  0  3.876957  0  0  0.155914  0  3.890187  0  0  0.072443  0.140863  0  3.86817  0
C  C44  1  0.50702993  0.22895002  0.31405422  1  0  -0.120575  0  3.703918  0  0  -0.136366  0  3.964557  0  0  -0.143599  0  3.985213  0  0  -0.07909  -0.131769  0  3.951002  0
C  C45  1  0.49295164  0.77104935  0.68595156  1  0  -0.120315  0  3.704042  0  0  -0.136096  0  3.964675  0  0  -0.143323  0  3.985332  0  0  -0.079124  -0.131501  0  3.951121  0
C  C46  1  0.52169724  0.20342897  0.23193705  1  0  -0.025554  0  3.682328  0  0  -0.054926  0  3.937479  0  0  -0.051532  0  3.95507  0  0  -0.062139  -0.056842  0  3.925968  0
C  C47  1  0.47831714  0.79656825  0.76806149  1  0  -0.025543  0  3.682807  0  0  -0.055025  0  3.937947  0  0  -0.051633  0  3.955537  0  0  -0.062113  -0.056939  0  3.926433  0
C  C48  1  0.32019948  0.26356340  0.19404620  1  0  -0.047315  0  3.774418  0  0  -0.033111  0  4.004817  0  0  -0.038846  0  4.030388  0  0  -0.000324  -0.029703  0  3.98802  0
C  C49  1  0.67978704  0.73643974  0.80595514  1  0  -0.047359  0  3.774657  0  0  -0.03305  0  4.004901  0  0  -0.038781  0  4.030468  0  0  -0.000274  -0.02964  0  3.988102  0
C  C50  1  0.32287499  0.24597369  0.10761313  1  0  0.130143  0  3.788735  0  0  0.125483  0  4.038168  0  0  0.129263  0  4.058616  0  0  0.122554  0.123041  0  4.02425  0
C  C51  1  0.67712362  0.75403322  0.89238515  1  0  0.130183  0  3.788759  0  0  0.1254  0  4.038255  0  0  0.1292  0  4.058713  0  0  0.122461  0.122953  0  4.024338  0
C  C52  1  0.10686197  0.30909653  0.07364776  1  0  0.138402  0  3.763721  0  0  0.133188  0  4.013376  0  0  0.137778  0  4.03207  0  0  0.12532  0.130104  0  4.000612  0
C  C53  1  0.89313805  0.69089791  0.92635457  1  0  0.138454  0  3.763734  0  0  0.133304  0  4.013327  0  0  0.137835  0  4.032105  0  0  0.125361  0.130222  0  4.000559  0
C  C54  1  0.30490842  0.21695981  0.94824979  1  0  0.157536  0  3.801175  0  0  0.162124  0  4.041074  0  0  0.164898  0  4.063444  0  0  0.113524  0.160091  0  4.025849  0
C  C55  1  0.69510225  0.78304809  0.05175318  1  0  0.157528  0  3.80139  0  0  0.162134  0  4.041264  0  0  0.164913  0  4.063629  0  0  0.113497  0.1601  0  4.026038  0
C  C56  1  0.30644698  0.19735055  0.86443911  1  0  -0.132134  0  3.698688  0  0  -0.153851  0  3.948312  0  0  -0.15808  0  3.969483  0  0  -0.082377  -0.15079  0  3.934204  0
C  C57  1  0.69355611  0.80264485  0.13556424  1  0  -0.132094  0  3.698486  0  0  -0.153866  0  3.948112  0  0  -0.158098  0  3.969283  0  0  -0.082415  -0.150808  0  3.934003  0
C  C58  1  0.51853622  0.12514960  0.81571624  1  0  -0.041794  0  3.725812  0  0  -0.05594  0  3.97469  0  0  -0.058801  0  3.998906  0  0  -0.079314  -0.054212  0  3.959098  0
C  C59  1  0.48146037  0.87483143  0.18428981  1  0  -0.04151  0  3.725669  0  0  -0.055666  0  3.974513  0  0  -0.058522  0  3.998722  0  0  -0.079183  -0.053936  0  3.958925  0
C  C60  1  0.73535696  0.06882381  0.84850534  1  0  -0.042879  0  3.750272  0  0  -0.05943  0  4.00154  0  0  -0.061349  0  4.025329  0  0  -0.081253  -0.057952  0  3.985415  0
C  C61  1  0.26464411  0.93117547  0.15149873  1  0  -0.043087  0  3.750432  0  0  -0.059618  0  4.001722  0  0  -0.061536  0  4.025507  0  0  -0.081288  -0.058136  0  3.985593  0
C  C62  1  0.74001890  0.08510569  0.92961413  1  0  -0.132181  0  3.714045  0  0  -0.155556  0  3.96923  0  0  -0.159742  0  3.99032  0  0  -0.087495  -0.152829  0  3.955007  0
C  C63  1  0.25998804  0.91489937  0.07039142  1  0  -0.132143  0  3.713958  0  0  -0.155511  0  3.969144  0  0  -0.159699  0  3.990234  0  0  -0.087494  -0.152786  0  3.954921  0
C  C64  1  0.52499929  0.15886703  0.98175510  1  0  0.163625  0  3.792728  0  0  0.166461  0  4.03561  0  0  0.169652  0  4.057139  0  0  0.113919  0.164262  0  4.021091  0
C  C65  1  0.47500180  0.84113226  0.01824957  1  0  0.163559  0  3.792729  0  0  0.166393  0  4.035576  0  0  0.169584  0  4.057105  0  0  0.113917  0.164194  0  4.021057  0
C  C66  1  0.73113872  0.34147525  0.52663431  1  0  0.700982  0  3.864736  0  0  0.64166  0  4.163962  0  0  0.678575  0  4.151887  0  0  0.223108  0.616167  0  4.171762  0
C  C67  1  0.26886514  0.65852086  0.47335113  1  0  0.700922  0  3.864861  0  0  0.641682  0  4.163998  0  0  0.678581  0  4.151958  0  0  0.223125  0.616182  0  4.171803  0
C  C68  1  0.80155444  0.21343610  0.56298211  1  0  -0.063305  0  3.722002  0  0  -0.046389  0  3.950869  0  0  -0.050735  0  3.970696  0  0  -0.008096  -0.043448  0  3.937715  0
C  C69  1  0.19844006  0.78656501  0.43701401  1  0  -0.063239  0  3.721911  0  0  -0.046498  0  3.95094  0  0  -0.050843  0  3.970768  0  0  -0.0081  -0.043537  0  3.937756  0
C  C70  1  0.68424260  0.12053379  0.54641196  1  0  -0.069612  0  3.737388  0  0  -0.0924  0  3.984875  0  0  -0.094115  0  4.006106  0  0  -0.084905  -0.091441  0  3.970706  0
C  C71  1  0.31575283  0.87946535  0.45358112  1  0  -0.06954  0  3.73741  0  0  -0.09223  0  3.984952  0  0  -0.093943  0  4.00618  0  0  -0.08493  -0.091277  0  3.97078  0
C  C72  1  0.73701934  0.00301917  0.58220710  1  0  -0.061918  0  3.769899  0  0  -0.078284  0  4.023771  0  0  -0.079633  0  4.045092  0  0  -0.091763  -0.077167  0  4.00944  0
C  C73  1  0.26298339  0.99698004  0.41779271  1  0  -0.061962  0  3.769924  0  0  -0.078322  0  4.023765  0  0  -0.079669  0  4.045081  0  0  -0.09175  -0.077207  0  4.009442  0
C  C74  1  0.91077583  0.97666339  0.63424377  1  0  -0.080294  0  3.79427  0  0  -0.095269  0  4.051289  0  0  -0.096125  0  4.070261  0  0  -0.09834  -0.094688  0  4.038686  0
C  C75  1  0.08922701  0.02333864  0.36575128  1  0  -0.080223  0  3.794106  0  0  -0.095175  0  4.051111  0  0  -0.096028  0  4.070079  0  0  -0.098361  -0.094596  0  4.038511  0
C  C76  1  0.02818015  0.06894122  0.65091742  1  0  -0.092638  0  3.767808  0  0  -0.114139  0  4.016693  0  0  -0.11502  0  4.036119  0  0  -0.091977  -0.113621  0  4.003608  0
C  C77  1  0.97183262  0.93105886  0.34907825  1  0  -0.092726  0  3.767813  0  0  -0.114251  0  4.016673  0  0  -0.115138  0  4.0361  0  0  -0.091903  -0.11373  0  4.00359  0
C  C78  1  0.97470296  0.18810604  0.61576239  1  0  -0.067687  0  3.728495  0  0  -0.051652  0  3.956823  0  0  -0.056923  0  3.977716  0  0  -0.013484  -0.048091  0  3.942759  0
C  C79  1  0.02529989  0.81189599  0.38423266  1  0  -0.067592  0  3.728228  0  0  -0.051417  0  3.956499  0  0  -0.056688  0  3.977385  0  0  -0.013457  -0.047866  0  3.942434  0
C  C80  1  0.09462390  0.28871929  0.63774715  1  0  0.639448  0  3.932482  0  0  0.588496  0  4.23439  0  0  0.622319  0  4.226427  0  0  0.198998  0.565422  0  4.238884  0
C  C81  1  0.90539168  0.71127212  0.36224892  1  0  0.639541  0  3.932267  0  0  0.588519  0  4.234286  0  0  0.622353  0  4.226309  0  0  0.199119  0.565448  0  4.238778  0
N  N82  1  0.69013972  0.47935093  0.26044840  1  0  -0.342773  0  3.290799  0  0  -0.267554  0  3.557373  0  0  -0.285688  0  3.571068  0  0  -0.308287  -0.255311  0  3.548155  0
N  N83  1  0.30984581  0.52065416  0.73955420  1  0  -0.342731  0  3.29042  0  0  -0.267533  0  3.557038  0  0  -0.285679  0  3.570743  0  0  -0.308214  -0.25529  0  3.547823  0
N  N84  1  0.09970335  0.37123922  0.32226660  1  0  -0.33197  0  3.246539  0  0  -0.26456  0  3.515173  0  0  -0.281157  0  3.5289  0  0  -0.308593  -0.253471  0  3.505816  0
N  N85  1  0.90027935  0.62876779  0.67773497  1  0  -0.331959  0  3.246714  0  0  -0.264589  0  3.515261  0  0  -0.281181  0  3.528991  0  0  -0.308631  -0.253496  0  3.505891  0
N  N86  1  0.09984469  0.29322226  0.99533449  1  0  -0.324012  0  3.028274  0  0  -0.300225  0  3.294627  0  0  -0.307921  0  3.308044  0  0  -0.29409  -0.294693  0  3.285265  0
N  N87  1  0.90014006  0.70678089  0.00466695  1  0  -0.324108  0  3.028731  0  0  -0.300341  0  3.295058  0  0  -0.308022  0  3.308499  0  0  -0.29414  -0.294807  0  3.285693  0
N  N88  1  0.52854507  0.17410449  0.06167660  1  0  -0.323575  0  3.030951  0  0  -0.299735  0  3.297638  0  0  -0.307518  0  3.312109  0  0  -0.294013  -0.294304  0  3.287706  0
N  N89  1  0.47146439  0.82590247  0.93832822  1  0  -0.323519  0  3.031233  0  0  -0.299652  0  3.297929  0  0  -0.307437  0  3.312398  0  0  -0.293937  -0.294217  0  3.287996  0
O  O90  1  0.77009064  0.33758186  0.44974074  1  0  -0.629831  0  2.075406  0  0  -0.558871  0  2.350846  0  0  -0.58814  0  2.337205  0  0  -0.307216  -0.538215  0  2.359814  0
O  O91  1  0.22989114  0.66241640  0.55025429  1  0  -0.629909  0  2.07507  0  0  -0.558976  0  2.350496  0  0  -0.588244  0  2.336868  0  0  -0.307223  -0.538318  0  2.359468  0
O  O92  1  0.63601294  0.44225158  0.57351775  1  0  -0.652909  0  2.070829  0  0  -0.588394  0  2.344554  0  0  -0.615482  0  2.329541  0  0  -0.320431  -0.569257  0  2.354405  0
O  O93  1  0.36397484  0.55774853  0.42647398  1  0  -0.652874  0  2.071275  0  0  -0.588373  0  2.344944  0  0  -0.615451  0  2.329943  0  0  -0.320468  -0.56924  0  2.354799  0
O  O94  1  0.16862969  0.35281026  0.57904143  1  0  -0.647246  0  2.03063  0  0  -0.573236  0  2.298894  0  0  -0.603276  0  2.284703  0  0  -0.327101  -0.551913  0  2.307896  0
O  O95  1  0.83135400  0.64719756  0.42094996  1  0  -0.647334  0  2.030758  0  0  -0.573362  0  2.29913  0  0  -0.603384  0  2.284893  0  0  -0.327179  -0.552044  0  2.308133  0
O  O96  1  0.11139503  0.30604910  0.71027407  1  0  -0.612562  0  1.920648  0  0  -0.566923  0  2.146938  0  0  -0.589705  0  2.139954  0  0  -0.321188  -0.550184  0  2.150851  0
O  O97  1  0.88865087  0.69394501  0.28971673  1  0  -0.612544  0  1.920482  0  0  -0.566872  0  2.146771  0  0  -0.589668  0  2.139799  0  0  -0.321247  -0.550132  0  2.15068  0
