# generated using pymatgen
data_CoH22C28(NO)4
_symmetry_space_group_name_H-M   'P 1'
_cell_length_a   8.76761607
_cell_length_b   9.96246839
_cell_length_c   14.53807014
_cell_angle_alpha   72.88251852
_cell_angle_beta   86.85683927
_cell_angle_gamma   90.00060203
_symmetry_Int_Tables_number   1
_chemical_formula_structural   CoH22C28(NO)4
_chemical_formula_sum   'Co2 H44 C56 N8 O8'
_cell_volume   1211.60842946
_cell_formula_units_Z   2
loop_
 _symmetry_equiv_pos_site_id
 _symmetry_equiv_pos_as_xyz
  1  'x, y, z'
loop_
 _atom_site_type_symbol
 _atom_site_label
 _atom_site_symmetry_multiplicity
 _atom_site_fract_x
 _atom_site_fract_y
 _atom_site_fract_z
 _atom_site_occupancy
 _atom_site_hle17_ddec_charge
 _atom_site_hle17_ddec_spin_density
 _atom_site_hle17_ddec_sum_bond_order
 _atom_site_hle17_magmom
 _atom_site_hse06_10hf_ddec_charge
 _atom_site_hse06_10hf_ddec_spin_density
 _atom_site_hse06_10hf_ddec_sum_bond_order
 _atom_site_hse06_10hf_magmom
 _atom_site_hse06_ddec_charge
 _atom_site_hse06_ddec_spin_density
 _atom_site_hse06_ddec_sum_bond_order
 _atom_site_hse06_magmom
 _atom_site_pbe_cm5_charge
 _atom_site_pbe_ddec_charge
 _atom_site_pbe_ddec_spin_density
 _atom_site_pbe_ddec_sum_bond_order
 _atom_site_pbe_magmom
Co  Co0  1  0.32100127  0.73128149  0.24850012  1  0.929215  2.866297  2.014004  2.535  0.872387  2.838691  2.458765  2.596  0.966367  2.886383  2.370282  2.684  0.663932  0.799506  2.795696  2.525249  2.515
Co  Co1  1  0.67899569  0.26872094  0.75150082  1  0.929225  -2.866295  2.013954  -2.535  0.872408  -2.83869  2.458709  -2.596  0.966376  -2.886384  2.370227  -2.684  0.663943  0.799542  -2.795703  2.525183  -2.515
H  H2  1  0.26297539  0.57275796  0.48603763  1  0.101664  -1e-06  0.942353  0.0  0.110573  3e-06  1.006078  0.0  0.112684  -1.5e-05  1.00368  0.0  0.138701  0.109145  2.1e-05  1.007143  0.0
H  H3  1  0.73702723  0.42723820  0.51396233  1  0.101657  1e-06  0.942381  0.0  0.110595  -3e-06  1.006063  0.0  0.112706  1.5e-05  1.003666  0.0  0.138725  0.109168  -2.1e-05  1.007126  0.0
H  H4  1  0.56063419  0.90034719  0.32418099  1  0.10439  0.000197  0.978684  0.001  0.114309  0.000375  1.036878  0.001  0.116346  0.000268  1.036729  0.001  0.115461  0.112477  0.00051  1.037969  0.001
H  H5  1  0.43936272  0.09964892  0.67581988  1  0.104401  -0.000197  0.978733  -0.001  0.114324  -0.000376  1.036917  -0.001  0.116363  -0.000268  1.036771  -0.001  0.115467  0.112491  -0.00051  1.038007  -0.001
H  H6  1  0.62161208  0.83660988  0.51829850  1  0.117049  0.000252  0.965686  0.0  0.125622  0.00025  1.028849  0.0  0.127426  0.000181  1.029772  0.0  0.120602  0.124725  0.000308  1.027294  0.0
H  H7  1  0.37838598  0.16338833  0.48170053  1  0.117004  -0.000252  0.965698  0.0  0.125578  -0.00025  1.028849  0.0  0.127384  -0.000181  1.02977  0.0  0.120576  0.124682  -0.000308  1.027296  0.0
H  H8  1  0.53772703  0.57648074  0.66073125  1  0.097722  0.000167  0.9577  0.0  0.106759  0.000126  1.029509  0.0  0.108371  0.000151  1.028866  0.0  0.112269  0.105435  8.7e-05  1.030145  0.0
H  H9  1  0.46227445  0.42351854  0.33926674  1  0.09764  -0.000167  0.957775  0.0  0.106742  -0.000126  1.029521  0.0  0.108356  -0.000151  1.028876  0.0  0.112263  0.105414  -8.7e-05  1.030159  0.0
H  H10  1  0.34730930  0.52965461  0.64940018  1  0.094084  7e-06  0.897482  0.0  0.113417  2.6e-05  0.95167  0.0  0.114221  3.5e-05  0.951219  0.0  0.120781  0.112723  3e-05  0.952129  0.0
H  H11  1  0.65269903  0.47034161  0.35059887  1  0.094097  -5e-06  0.897421  0.0  0.113419  -2.6e-05  0.951651  0.0  0.114226  -3.5e-05  0.9512  0.0  0.120777  0.112728  -3e-05  0.952105  0.0
H  H12  1  0.25696982  0.86118366  0.57412445  1  0.085141  -7e-06  0.986442  0.0  0.094204  -1e-05  1.05158  0.0  0.095941  -9e-06  1.052668  0.0  0.094626  0.093211  -1.1e-05  1.05045  0.0
H  H13  1  0.74303392  0.13881041  0.42587522  1  0.085107  8e-06  0.986461  0.0  0.094139  9e-06  1.051635  0.0  0.095875  1e-05  1.052723  0.0  0.094613  0.093149  1.1e-05  1.050502  0.0
H  H14  1  0.15598284  0.00919571  0.67172705  1  0.080544  2e-05  0.974649  0.0  0.090021  1.9e-05  1.042713  0.0  0.091684  1.3e-05  1.0431  0.0  0.094601  0.088889  2.1e-05  1.042177  0.0
H  H15  1  0.84402205  0.99080046  0.32827146  1  0.080556  -2.1e-05  0.974626  0.0  0.090026  -1.9e-05  1.042672  0.0  0.091704  -1.4e-05  1.043041  0.0  0.094602  0.088892  -2.1e-05  1.04214  0.0
H  H16  1  0.37068292  0.74682330  0.91949012  1  0.109982  4.6e-05  1.005111  0.0  0.117541  4.7e-05  1.070741  0.0  0.121614  1.5e-05  1.068081  0.0  0.098733  0.114525  9.2e-05  1.072971  0.0
H  H17  1  0.62931397  0.25317278  0.08050870  1  0.10998  -4.6e-05  1.005066  0.0  0.117506  -4.7e-05  1.070742  0.0  0.121581  -1.5e-05  1.068077  0.0  0.098717  0.11449  -9.2e-05  1.072972  0.0
H  H18  1  0.47635708  0.59986576  0.81913812  1  0.098059  3.1e-05  0.9568  0.0  0.110368  4.8e-05  1.015461  0.0  0.112899  5.8e-05  1.014769  0.0  0.102755  0.10836  3.7e-05  1.016245  0.0
H  H19  1  0.52363982  0.40012719  0.18086272  1  0.098077  -3e-05  0.956779  0.0  0.110346  -4.8e-05  1.015474  0.0  0.112875  -5.8e-05  1.014786  0.0  0.10276  0.10834  -3.7e-05  1.01626  0.0
H  H20  1  0.22186870  0.92944906  0.93932915  1  0.101787  -0.000124  0.914111  0.0  0.116688  -0.00014  0.973148  0.0  0.118218  -0.000109  0.972175  0.0  0.118841  0.11563  -0.000158  0.973784  0.0
H  H21  1  0.77813393  0.07055233  0.06066835  1  0.10184  0.00012  0.914228  0.0  0.116728  0.000141  0.97326  0.0  0.118259  0.000109  0.972288  0.0  0.118868  0.115676  0.000158  0.973898  0.0
H  H22  1  0.26136890  0.08135113  0.84076721  1  0.096047  1e-05  0.93999  0.0  0.109475  2.8e-05  1.005736  0.0  0.111158  6.7e-05  1.004678  0.0  0.113661  0.107871  -6.9e-05  1.006544  0.0
H  H23  1  0.73863485  0.91864921  0.15922841  1  0.096108  -1.3e-05  0.939928  0.0  0.10947  -2.8e-05  1.005741  0.0  0.111159  -6.6e-05  1.004689  0.0  0.113657  0.107896  6.9e-05  1.006527  0.0
H  H24  1  0.03792065  0.21292051  0.75007781  1  0.107089  -3.1e-05  0.951509  0.0  0.116748  -5.7e-05  1.012913  0.0  0.119612  -2.3e-05  1.009355  0.0  0.137528  0.114208  -7.9e-05  1.016156  0.0
H  H25  1  0.96208085  0.78708089  0.24992111  1  0.107093  3.1e-05  0.951519  0.0  0.11676  5.7e-05  1.012912  0.0  0.119626  2.3e-05  1.009354  0.0  0.137534  0.114215  7.9e-05  1.016155  0.0
H  H26  1  0.94006175  0.82001124  0.95888008  1  0.116684  -0.000294  0.979629  0.0  0.12454  -0.000253  1.043478  0.0  0.126149  -0.000183  1.044769  0.0  0.120725  0.123267  -0.00032  1.042855  0.0
H  H27  1  0.05994095  0.17999338  0.04112157  1  0.116671  0.00029  0.979631  0.0  0.124531  0.000253  1.043478  0.0  0.12614  0.000183  1.04477  0.0  0.120711  0.123256  0.00032  1.042854  0.0
H  H28  1  0.66836156  0.95619666  0.90148134  1  0.112584  -0.00011  0.938893  0.0  0.123952  -0.000267  0.992847  -0.001  0.126323  -0.000183  0.992176  0.0  0.123587  0.122057  -0.00036  0.993541  -0.001
H  H29  1  0.33164234  0.04381013  0.09852463  1  0.112447  0.000111  0.939007  0.0  0.123942  0.000267  0.99281  0.001  0.126312  0.000182  0.992142  0.0  0.123576  0.122045  0.00036  0.993507  0.001
H  H30  1  0.56869699  0.62819497  0.95146471  1  0.093205  5e-06  0.982465  0.0  0.103724  1.4e-05  1.0466  0.0  0.106348  2e-06  1.045402  0.0  0.103243  0.101105  2.6e-05  1.048891  0.0
H  H31  1  0.43130343  0.37181171  0.04853591  1  0.093208  -5e-06  0.982474  0.0  0.103721  -1.4e-05  1.04662  0.0  0.106346  -3e-06  1.04542  0.0  0.103248  0.101101  -2.6e-05  1.048915  0.0
H  H32  1  0.79338527  0.51953045  0.89817488  1  0.102252  7.2e-05  0.972926  0.0  0.11115  8.9e-05  1.036317  0.0  0.114699  0.0001  1.03436  0.0  0.101843  0.108566  6.4e-05  1.037892  0.0
H  H33  1  0.20660714  0.48047195  0.10182761  1  0.102311  -7.2e-05  0.972902  0.0  0.111213  -8.9e-05  1.036273  0.0  0.114761  -9.9e-05  1.034315  0.0  0.101885  0.108627  -6.4e-05  1.037844  0.0
H  H34  1  0.02530472  0.55714050  0.14523530  1  0.096785  -0.000127  0.972939  0.0  0.107912  -0.000112  1.032364  0.0  0.110482  -0.000106  1.031805  0.0  0.101281  0.105394  -0.000112  1.0344  0.0
H  H35  1  0.97467624  0.44285862  0.85476829  1  0.096816  0.000127  0.973007  0.0  0.107959  0.000112  1.032408  0.0  0.110531  0.000106  1.031849  0.0  0.101262  0.105444  0.000112  1.034439  0.0
H  H36  1  0.79406464  0.66016159  0.19828548  1  0.087699  0.000131  0.965759  0.0  0.097406  0.000112  1.030922  0.0  0.101027  4.2e-05  1.027967  0.0  0.098518  0.094674  0.000183  1.033373  0.0
H  H37  1  0.20591977  0.33984280  0.80171620  1  0.087759  -0.00013  0.965653  0.0  0.097458  -0.000112  1.030819  0.0  0.101078  -4.2e-05  1.027865  0.0  0.098589  0.094698  -0.000183  1.033299  0.0
H  H38  1  0.22579802  0.26708449  0.26894451  1  0.100985  0.000156  0.945719  0.0  0.111133  0.000123  1.006632  0.0  0.114484  7.1e-05  1.004901  0.0  0.105397  0.108904  0.000185  1.007539  0.0
H  H39  1  0.77420347  0.73292108  0.73105079  1  0.10111  -0.000156  0.945668  0.0  0.111229  -0.000123  1.006596  0.0  0.114581  -7.1e-05  1.004863  0.0  0.105426  0.109002  -0.000185  1.0075  0.0
H  H40  1  0.14926004  0.02405603  0.35424644  1  0.091952  -9.2e-05  0.967151  0.0  0.103497  -6.4e-05  1.026758  0.0  0.106137  -6.4e-05  1.026114  0.0  0.100716  0.1016  -7e-05  1.027359  0.0
H  H41  1  0.85074827  0.97594853  0.64574607  1  0.091923  9.3e-05  0.967158  0.0  0.103454  6.4e-05  1.026791  0.0  0.106106  6.4e-05  1.026133  0.0  0.100695  0.101563  7e-05  1.027386  0.0
H  H42  1  0.92993141  0.16382504  0.58363291  1  0.095167  0.000142  0.970879  0.0  0.102787  0.0001  1.038708  0.0  0.105258  9.2e-05  1.037884  0.0  0.101456  0.100992  0.000119  1.039343  0.0
H  H43  1  0.07008721  0.83616506  0.41637117  1  0.095105  -0.000141  0.970908  0.0  0.102737  -0.0001  1.038742  0.0  0.105208  -9.2e-05  1.037916  0.0  0.101472  0.100942  -0.000119  1.039377  0.0
H  H44  1  0.00513036  0.40245199  0.49770477  1  0.095648  3.1e-05  0.999418  0.0  0.102796  3.1e-05  1.068719  0.0  0.106976  3e-05  1.064598  0.0  0.09771  0.100591  2.6e-05  1.069932  0.0
H  H45  1  0.99488023  0.59754006  0.50229508  1  0.095654  -3.1e-05  0.999503  0.0  0.102852  -3.1e-05  1.06874  0.0  0.107019  -3.1e-05  1.064636  0.0  0.097751  0.100679  -2.6e-05  1.069918  0.0
C  C46  1  0.35243480  0.65269478  0.46643861  1  0.162752  -0.003802  3.648848  -0.005  0.103738  0.001022  3.921044  0.002  0.119015  0.000873  3.935048  0.001  0.140993  0.093179  0.001048  3.911178  0.002
C  C47  1  0.64756441  0.34730240  0.53356196  1  0.162705  0.003811  3.649026  0.005  0.103703  -0.001022  3.921214  -0.002  0.11898  -0.000873  3.935217  -0.001  0.140978  0.093146  -0.001048  3.911344  -0.002
C  C48  1  0.50770542  0.82281320  0.38633813  1  0.000807  -0.001587  3.743067  -0.003  -0.027232  0.0012  4.004461  0.001  -0.023878  0.000823  4.024241  0.001  -0.004859  -0.030849  0.001501  3.992379  0.001
C  C49  1  0.49229378  0.17718189  0.61366288  1  0.000751  0.001605  3.743238  0.003  -0.027282  -0.001201  4.00462  -0.001  -0.023934  -0.000821  4.024405  -0.001  -0.004882  -0.030897  -0.001501  3.992537  -0.001
C  C50  1  0.53967387  0.79240746  0.48164660  1  -0.067337  0.003299  3.678326  0.004  -0.106242  0.001377  3.933182  0.002  -0.105032  0.000935  3.952313  0.001  -0.001188  -0.106817  0.001891  3.918986  0.003
C  C51  1  0.46032645  0.20758657  0.51835321  1  -0.067327  -0.003317  3.678327  -0.004  -0.106201  -0.001377  3.933172  -0.002  -0.104993  -0.000936  3.952302  -0.001  -0.001159  -0.10678  -0.001891  3.918981  -0.003
C  C52  1  0.42708654  0.61965363  0.63549672  1  -0.042736  0.000691  3.642657  0.001  -0.110033  0.000564  3.895144  0.001  -0.105873  0.000466  3.90506  0.001  -0.044534  -0.112733  0.000656  3.888588  0.001
C  C53  1  0.57291609  0.38034360  0.36450372  1  -0.042617  -0.000694  3.642542  -0.001  -0.109968  -0.000564  3.895075  -0.001  -0.105816  -0.000466  3.905  -0.001  -0.044469  -0.112656  -0.000656  3.888503  -0.001
C  C54  1  0.37159306  0.71901447  0.69060670  1  0.064178  -7.1e-05  3.757872  0.0  0.083678  1.8e-05  3.997246  0.0  0.082818  6e-06  4.021787  0.0  -0.015379  0.084767  1.4e-05  3.980197  0.0
C  C55  1  0.62840613  0.28098270  0.30939250  1  0.064151  8.1e-05  3.757808  0.0  0.083649  -1.9e-05  3.997205  0.0  0.082789  -6e-06  4.021745  0.0  -0.015353  0.084733  -1.4e-05  3.980157  0.0
C  C56  1  0.28238192  0.83536194  0.64974541  1  -0.120031  7.8e-05  3.77093  0.0  -0.139533  3.2e-05  4.016585  0.0  -0.142903  3.1e-05  4.040499  0.0  -0.098828  -0.137068  2.8e-05  3.99979  0.0
C  C57  1  0.71761841  0.16463523  0.35025305  1  -0.119927  -9.3e-05  3.770938  0.0  -0.139399  -3.2e-05  4.016602  0.0  -0.142769  -3.2e-05  4.04052  0.0  -0.098837  -0.136939  -2.8e-05  3.999811  0.0
C  C58  1  0.22524987  0.91880678  0.70519590  1  -0.117775  -0.00011  3.776878  0.0  -0.135042  -4.7e-05  4.023639  0.0  -0.137497  -3.1e-05  4.046439  0.0  -0.097326  -0.132647  -7e-05  4.007488  0.0
C  C59  1  0.77475392  0.08119360  0.29480315  1  -0.117951  0.000126  3.776922  0.0  -0.135257  4.5e-05  4.023642  0.0  -0.137722  3.1e-05  4.046437  0.0  -0.097396  -0.132862  7e-05  4.007488  0.0
C  C60  1  0.25615851  0.88753357  0.80260405  1  0.064395  -7e-06  3.752896  0.0  0.083429  -6.1e-05  3.992319  0.0  0.082432  -3.2e-05  4.016415  0.0  -0.017393  0.083821  -8e-05  3.976244  0.0
C  C61  1  0.74384070  0.11246780  0.19739428  1  0.064492  -8e-06  3.752822  0.0  0.083704  6.4e-05  3.991972  0.0  0.082709  3.6e-05  4.016065  0.0  -0.017295  0.084094  8e-05  3.975904  0.0
C  C62  1  0.34668074  0.77191099  0.84333825  1  -0.122821  -5.3e-05  3.742731  0.0  -0.14126  -7e-06  3.986063  0.0  -0.144489  -2.1e-05  4.007881  0.0  -0.094953  -0.139537  8e-06  3.972381  0.0
C  C63  1  0.65331846  0.22808827  0.15666051  1  -0.122859  5.8e-05  3.74271  0.0  -0.14132  5e-06  3.986008  0.0  -0.144548  1.8e-05  4.00782  0.0  -0.094966  -0.139596  -8e-06  3.972326  0.0
C  C64  1  0.40506754  0.68950463  0.78740601  1  -0.109621  9.7e-05  3.753859  0.0  -0.12845  5.7e-05  4.000222  0.0  -0.131365  5.6e-05  4.02326  0.0  -0.092183  -0.126818  6.7e-05  3.984906  0.0
C  C65  1  0.59493051  0.31049253  0.21259392  1  -0.109639  -0.0001  3.753864  0.0  -0.128438  -5.6e-05  4.00025  0.0  -0.131355  -5.6e-05  4.023294  0.0  -0.092221  -0.126811  -6.7e-05  3.984939  0.0
C  C66  1  0.19991314  0.97946313  0.86330414  1  -0.049066  -0.000529  3.632934  -0.001  -0.115613  -0.000461  3.881799  -0.001  -0.111349  -0.000321  3.890944  0.0  -0.0449  -0.11843  -0.000643  3.875892  -0.001
C  C67  1  0.80008947  0.02053616  0.13669311  1  -0.049175  0.000541  3.632995  0.001  -0.115714  0.000461  3.881807  0.001  -0.111462  0.000319  3.890962  0.0  -0.044931  -0.118562  0.000642  3.8759  0.001
C  C68  1  0.97394484  0.12507902  0.79874676  1  0.154791  0.003115  3.649277  0.004  0.095747  -0.001455  3.923131  -0.002  0.110927  -0.001201  3.936645  -0.002  0.141079  0.084979  -0.0016  3.914859  -0.002
C  C69  1  0.02605439  0.87492341  0.20125272  1  0.154788  -0.00312  3.64931  -0.004  0.095724  0.001455  3.923143  0.002  0.1109  0.001202  3.93666  0.002  0.141113  0.084964  0.001601  3.914868  0.002
C  C70  1  0.91866472  0.92075306  0.90751491  1  -0.056883  -0.002462  3.662889  -0.003  -0.097658  -0.000937  3.918662  -0.001  -0.095343  -0.00048  3.937299  -0.001  0.003313  -0.099389  -0.001457  3.906643  -0.002
C  C71  1  0.08133684  0.07925051  0.09248838  1  -0.056813  0.002504  3.662834  0.003  -0.0976  0.000937  3.918649  0.001  -0.095286  0.000479  3.937285  0.001  0.003336  -0.099329  0.001457  3.906626  0.002
C  C72  1  0.78561676  0.98892134  0.87815729  1  0.000674  0.0004  3.742252  0.0  -0.028327  -0.001814  4.011889  -0.003  -0.025627  -0.001384  4.031961  -0.002  -0.000443  -0.030863  -0.002218  3.999005  -0.003
C  C73  1  0.21438598  0.01108334  0.12184848  1  0.000713  -0.000434  3.742184  0.0  -0.028413  0.001814  4.011866  0.003  -0.025714  0.001385  4.031939  0.002  -0.000463  -0.030951  0.002219  3.99898  0.003
C  C74  1  0.52536112  0.71487711  0.11002652  1  0.615261  -0.002841  3.933298  -0.007  0.574728  0.001417  4.226116  -0.001  0.609825  0.000695  4.222885  -0.001  0.195158  0.550338  0.002099  4.225927  -0.001
C  C75  1  0.47462899  0.28513360  0.88996951  1  0.615308  0.002831  3.933286  0.007  0.574746  -0.001417  4.226106  0.001  0.609867  -0.000694  4.222874  0.001  0.195186  0.550336  -0.002099  4.225908  0.001
C  C76  1  0.66767926  0.65606673  0.07658348  1  -0.07739  0.002724  3.782825  0.004  -0.052019  0.001108  4.010564  0.001  -0.059424  0.00064  4.032886  0.001  -0.023254  -0.04718  0.001633  3.995785  0.002
C  C77  1  0.33230631  0.34394084  0.92341819  1  -0.077478  -0.002701  3.78297  -0.004  -0.052006  -0.001105  4.010595  -0.001  -0.059506  -0.000633  4.033047  -0.001  -0.023217  -0.047096  -0.001633  3.995716  -0.002
C  C78  1  0.67042280  0.61436442  0.99253183  1  -0.066336  -0.00015  3.743585  0.0  -0.090126  0.000463  3.990909  0.001  -0.089935  0.000293  4.011582  0.0  -0.082508  -0.089779  0.000522  3.977429  0.001
C  C79  1  0.32957192  0.38564012  0.00747151  1  -0.066116  0.000119  3.74339  0.0  -0.089943  -0.000463  3.990688  -0.001  -0.089724  -0.000295  4.011384  0.0  -0.08245  -0.089621  -0.000522  3.977192  -0.001
C  C80  1  0.79878455  0.55298169  0.96286483  1  -0.102312  0.000483  3.707192  0.001  -0.121236  4.5e-05  3.955465  0.0  -0.124609  3e-05  3.975121  0.0  -0.084066  -0.118926  0.000158  3.941944  0.0
C  C81  1  0.20120556  0.44701649  0.03713930  1  -0.102576  -0.000456  3.707355  -0.001  -0.121514  -4.7e-05  3.955663  0.0  -0.124883  -3.3e-05  3.975308  0.0  -0.084162  -0.1192  -0.000158  3.942146  0.0
C  C82  1  0.93103858  0.53182050  0.01600064  1  0.055358  -0.000283  3.759401  0.0  0.069087  0.000222  3.990267  0.0  0.070374  0.000143  4.013279  0.0  -0.003302  0.068346  0.000159  3.974264  0.0
C  C83  1  0.06895384  0.46818505  0.98400120  1  0.05574  0.00026  3.759463  0.0  0.069469  -0.000219  3.99032  0.0  0.070759  -0.000138  4.01333  0.0  -0.003185  0.068723  -0.000159  3.97432  0.0
C  C84  1  0.92675453  0.57277404  0.10112109  1  -0.115028  0.000179  3.725029  0.0  -0.132238  -0.000121  3.971065  0.0  -0.136141  -8.9e-05  3.992472  0.0  -0.089837  -0.129069  -0.000193  3.957035  0.0
C  C85  1  0.07322759  0.42722928  0.89888090  1  -0.115339  -0.000151  3.725097  0.0  -0.132583  0.000119  3.971152  0.0  -0.136486  8.7e-05  3.99255  0.0  -0.08993  -0.129414  0.000193  3.95712  0.0
C  C86  1  0.79743248  0.63280320  0.13100181  1  -0.07724  -0.000197  3.776724  0.0  -0.103583  0.000407  4.031871  0.001  -0.103367  0.000254  4.052358  0.0  -0.090786  -0.103912  0.000574  4.018569  0.001
C  C87  1  0.20254963  0.36719594  0.86900242  1  -0.07717  0.000169  3.776381  0.0  -0.103514  -0.000409  4.031468  -0.001  -0.10327  -0.000259  4.05198  0.0  -0.09081  -0.103841  -0.000574  4.018157  -0.001
C  C88  1  0.15644341  0.50321621  0.32514933  1  0.603291  -0.004554  3.940033  -0.009  0.558946  1.5e-05  4.237095  -0.002  0.594953  -3.4e-05  4.233178  -0.002  0.192978  0.533023  -0.0002  4.239144  -0.003
C  C89  1  0.84356036  0.49678312  0.67484994  1  0.603353  0.004554  3.939736  0.009  0.558985  -1.5e-05  4.23684  0.002  0.595009  3.4e-05  4.232926  0.002  0.193022  0.533059  0.0002  4.238884  0.003
C  C90  1  0.11583423  0.35344187  0.37511029  1  -0.065643  0.002793  3.781578  0.004  -0.039997  0.001003  4.008717  0.001  -0.047433  0.000574  4.030261  0.001  -0.021913  -0.036141  0.001601  3.996173  0.002
C  C91  1  0.88417300  0.64655752  0.62489090  1  -0.06548  -0.002799  3.781368  -0.004  -0.039884  -0.001002  4.008595  -0.001  -0.047378  -0.000576  4.030217  -0.001  -0.021928  -0.036029  -0.001601  3.99606  -0.002
C  C92  1  0.15935339  0.24375262  0.33752144  1  -0.063282  -0.001159  3.733186  -0.002  -0.086412  -9e-06  3.978928  0.0  -0.084515  -3.9e-05  3.996638  0.0  -0.082831  -0.087665  -4.2e-05  3.967686  0.0
C  C93  1  0.84065612  0.75624783  0.66247807  1  -0.063615  0.001168  3.733401  0.002  -0.086716  9e-06  3.979165  0.0  -0.084804  4e-05  3.9969  0.0  -0.082904  -0.087967  4.2e-05  3.967922  0.0
C  C94  1  0.11574668  0.10589944  0.38674837  1  -0.112753  0.001054  3.724797  0.001  -0.130757  0.000177  3.972639  0.0  -0.13433  0.000145  3.992416  0.0  -0.088783  -0.128798  0.000249  3.959758  0.0
C  C95  1  0.88426509  0.89410205  0.61324809  1  -0.112669  -0.001065  3.724833  -0.001  -0.130627  -0.000177  3.972627  0.0  -0.134206  -0.000144  3.992395  0.0  -0.088786  -0.128673  -0.000249  3.959745  0.0
C  C96  1  0.02820951  0.07221968  0.47530611  1  0.047413  -0.001434  3.775606  -0.002  0.062192  -0.000272  4.005386  0.0  0.063939  -0.000183  4.027288  0.0  -0.005797  0.060778  -0.00066  3.990558  -0.001
C  C97  1  0.97180679  0.92777556  0.52469148  1  0.047384  0.001439  3.775717  0.002  0.062118  0.000272  4.005546  0.0  0.063867  0.00018  4.027442  0.0  -0.005807  0.060703  0.00066  3.990719  0.001
C  C98  1  0.99354269  0.18275504  0.51443860  1  -0.115938  0.001201  3.743496  0.002  -0.135246  0.000255  3.997224  0.0  -0.138763  0.000208  4.017851  0.0  -0.091868  -0.13233  0.000555  3.981129  0.001
C  C99  1  0.00647590  0.81723605  0.48556183  1  -0.115664  -0.001205  3.743354  -0.002  -0.13497  -0.000255  3.997094  0.0  -0.138482  -0.000206  4.017709  0.0  -0.091811  -0.132056  -0.000555  3.981007  -0.001
C  C100  1  0.03511336  0.32033897  0.46490899  1  -0.073886  -0.000948  3.760953  -0.001  -0.101215  0.000141  4.012032  0.0  -0.100825  7.2e-05  4.031578  0.0  -0.08956  -0.101205  -4.8e-05  3.996377  0.0
C  C101  1  0.96489840  0.67965521  0.53509242  1  -0.074033  0.000951  3.760918  0.001  -0.10139  -0.000142  4.012065  0.0  -0.100973  -7.3e-05  4.031628  0.0  -0.089591  -0.101403  4.8e-05  3.996391  0.0
N  N102  1  0.39050082  0.73503519  0.37759699  1  -0.377972  0.040379  3.346733  0.062  -0.332376  0.029348  3.662624  0.038  -0.361797  0.024021  3.675991  0.03  -0.36596  -0.311573  0.034166  3.654649  0.044
N  N103  1  0.60949724  0.26496198  0.62240362  1  -0.377913  -0.040391  3.34686  -0.062  -0.332357  -0.029349  3.662788  -0.038  -0.361774  -0.024022  3.676153  -0.03  -0.36596  -0.311556  -0.034167  3.654808  -0.044
N  N104  1  0.44070411  0.68397117  0.53130109  1  -0.059603  0.001149  3.594118  0.002  0.034847  0.001546  3.810951  0.002  0.020855  0.001222  3.835631  0.002  -0.240794  0.044181  0.001797  3.794201  0.003
N  N105  1  0.55929623  0.31602393  0.46869987  1  -0.059525  -0.001148  3.594138  -0.002  0.034881  -0.001546  3.811045  -0.002  0.020892  -0.001221  3.835724  -0.002  -0.24081  0.044209  -0.001797  3.794296  -0.003
N  N106  1  0.03643567  0.00871004  0.85711701  1  -0.050218  -0.001643  3.574932  -0.003  0.044835  -0.001937  3.791031  -0.003  0.030664  -0.001517  3.816003  -0.003  -0.237737  0.054035  -0.002199  3.774628  -0.004
N  N107  1  0.96356584  0.99129137  0.14288260  1  -0.050205  0.001636  3.575008  0.003  0.044864  0.001937  3.791089  0.003  0.030694  0.001516  3.816062  0.003  -0.237716  0.05406  0.0022  3.774695  0.004
N  N108  1  0.82158367  0.11657314  0.81014176  1  -0.386685  -0.038447  3.375732  -0.053  -0.34463  -0.028129  3.708167  -0.03  -0.374522  -0.022324  3.719987  -0.022  -0.369915  -0.32275  -0.033401  3.700867  -0.037
N  N109  1  0.17841563  0.88343148  0.18986345  1  -0.386704  0.038455  3.375665  0.053  -0.344599  0.028129  3.708101  0.03  -0.374494  0.022325  3.719926  0.022  -0.369977  -0.322717  0.033403  3.700799  0.037
O  O110  1  0.40608965  0.72590769  0.06490610  1  -0.593792  0.010979  1.921541  0.019  -0.556019  0.011815  2.146858  0.02  -0.582931  0.00863  2.140345  0.015  -0.310694  -0.536087  0.015599  2.150926  0.025
O  O111  1  0.59390047  0.27410304  0.93509130  1  -0.593819  -0.010974  1.92144  -0.019  -0.556068  -0.011816  2.146806  -0.02  -0.582978  -0.00863  2.140279  -0.015  -0.310694  -0.536136  -0.0156  2.150884  -0.025
O  O112  1  0.53150351  0.74786843  0.19039562  1  -0.637302  0.060744  2.041311  0.099  -0.600418  0.042953  2.316762  0.066  -0.643797  0.03249  2.306411  0.049  -0.340033  -0.56472  0.052756  2.320199  0.08
O  O113  1  0.46849117  0.25213920  0.80960226  1  -0.637357  -0.060739  2.041308  -0.099  -0.600468  -0.042951  2.316771  -0.066  -0.64384  -0.032488  2.306396  -0.049  -0.340124  -0.564775  -0.052752  2.320203  -0.08
O  O114  1  0.26891230  0.53055146  0.26031093  1  -0.608507  0.05383  2.048951  0.088  -0.570944  0.037039  2.325688  0.057  -0.612163  0.027427  2.315857  0.041  -0.318211  -0.53813  0.046925  2.330785  0.072
O  O115  1  0.73108803  0.46944885  0.73968619  1  -0.608512  -0.053832  2.04889  -0.088  -0.570938  -0.03704  2.325628  -0.057  -0.612149  -0.027427  2.315791  -0.041  -0.318222  -0.538139  -0.046925  2.330764  -0.072
O  O116  1  0.08749864  0.60026000  0.34896052  1  -0.614514  0.017429  1.944411  0.03  -0.571692  0.017399  2.180025  0.029  -0.602378  0.013037  2.173466  0.022  -0.310652  -0.547939  0.022273  2.182886  0.036
O  O117  1  0.91250397  0.39974033  0.65103583  1  -0.614671  -0.017429  1.944359  -0.03  -0.571745  -0.017397  2.179906  -0.029  -0.602429  -0.013038  2.173338  -0.022  -0.310701  -0.548003  -0.022272  2.182787  -0.036
