# generated using pymatgen
data_CoH8C9(NO)2
_symmetry_space_group_name_H-M   'P 1'
_cell_length_a   9.02265135
_cell_length_b   9.47294966
_cell_length_c   10.69779516
_cell_angle_alpha   90.00038458
_cell_angle_beta   98.47508978
_cell_angle_gamma   89.99993670
_symmetry_Int_Tables_number   1
_chemical_formula_structural   CoH8C9(NO)2
_chemical_formula_sum   'Co4 H32 C36 N8 O8'
_cell_volume   904.36785545
_cell_formula_units_Z   4
loop_
 _symmetry_equiv_pos_site_id
 _symmetry_equiv_pos_as_xyz
  1  'x, y, z'
loop_
 _atom_site_type_symbol
 _atom_site_label
 _atom_site_symmetry_multiplicity
 _atom_site_fract_x
 _atom_site_fract_y
 _atom_site_fract_z
 _atom_site_occupancy
 _atom_site_hle17_ddec_charge
 _atom_site_hle17_ddec_spin_density
 _atom_site_hle17_ddec_sum_bond_order
 _atom_site_hle17_magmom
 _atom_site_hse06_10hf_ddec_charge
 _atom_site_hse06_10hf_ddec_spin_density
 _atom_site_hse06_10hf_ddec_sum_bond_order
 _atom_site_hse06_10hf_magmom
 _atom_site_hse06_ddec_charge
 _atom_site_hse06_ddec_spin_density
 _atom_site_hse06_ddec_sum_bond_order
 _atom_site_hse06_magmom
 _atom_site_pbe_cm5_charge
 _atom_site_pbe_ddec_charge
 _atom_site_pbe_ddec_spin_density
 _atom_site_pbe_ddec_sum_bond_order
 _atom_site_pbe_magmom
Co  Co0  1  0.13933225  0.77454121  0.84955362  1  0.965575  2.805247  2.011854  2.524  0.920206  2.819437  2.453546  2.584  1.011068  2.865988  2.369402  2.674  0.688874  0.846085  2.774065  2.519852  2.5
Co  Co1  1  0.36066451  0.27454212  0.15044309  1  0.965505  2.805262  2.011907  2.524  0.920063  2.819441  2.453597  2.584  1.010915  2.865986  2.369475  2.674  0.68884  0.845955  2.774095  2.519901  2.5
Co  Co2  1  0.86066547  0.22545896  0.15044649  1  0.965537  2.805254  2.011836  2.524  0.920154  2.819437  2.453525  2.584  1.011014  2.865982  2.369377  2.674  0.688854  0.846032  2.77406  2.519815  2.5
Co  Co3  1  0.63933432  0.72545910  0.84955623  1  0.965396  2.805177  2.011904  2.524  0.920129  2.819432  2.453564  2.584  1.010979  2.865972  2.369436  2.674  0.688865  0.846035  2.774086  2.519864  2.5
H  H4  1  0.28936038  0.47594906  0.91543085  1  0.077603  -0.000212  0.945372  0.001  0.087524  0.000156  1.009513  0.001  0.088516  5.6e-05  1.007517  0.001  0.130173  0.087089  0.000298  1.010332  0.001
H  H5  1  0.21063631  0.97594861  0.08456330  1  0.077667  -0.000212  0.945319  0.001  0.087583  0.000156  1.009474  0.001  0.088558  5.6e-05  1.007496  0.001  0.13017  0.087146  0.000298  1.010295  0.001
H  H6  1  0.71063621  0.52404477  0.08456913  1  0.077638  -0.000212  0.945389  0.001  0.08761  0.000156  1.009478  0.001  0.088555  5.6e-05  1.007537  0.001  0.130195  0.087179  0.000298  1.010304  0.001
H  H7  1  0.78936700  0.02404944  0.91543748  1  0.077659  -0.000211  0.945308  0.001  0.08758  0.000156  1.009457  0.001  0.088555  5.6e-05  1.007479  0.001  0.130169  0.087145  0.000298  1.010278  0.001
H  H8  1  0.18278389  0.42927623  0.36223883  1  0.095142  -0.0  0.964429  0.0  0.109871  9.1e-05  1.020312  0.0  0.111982  1e-06  1.020149  0.0  0.101474  0.10848  0.000185  1.020224  0.0
H  H9  1  0.31721505  0.92927565  0.63775532  1  0.09512  -1e-06  0.964424  0.0  0.10983  9.1e-05  1.020342  0.0  0.111941  3e-06  1.020178  0.0  0.101468  0.108443  0.000185  1.020253  0.0
H  H10  1  0.81721497  0.57072604  0.63776516  1  0.095075  -1e-06  0.964571  0.0  0.10982  9.1e-05  1.020431  0.0  0.111935  2e-06  1.02027  0.0  0.101459  0.108431  0.000185  1.020348  0.0
H  H11  1  0.68278042  0.07072452  0.36224452  1  0.095138  -2e-06  0.964389  0.0  0.109876  9.1e-05  1.020259  0.0  0.111986  2e-06  1.020097  0.0  0.101493  0.108487  0.000185  1.020172  0.0
H  H12  1  0.01749058  0.60690451  0.44370275  1  0.087822  -0.000158  0.959839  0.0  0.101663  1e-06  1.016615  0.0  0.104436  -2.5e-05  1.015486  0.0  0.096316  0.099621  2.4e-05  1.017512  0.0
H  H13  1  0.48250959  0.10690416  0.55629524  1  0.087837  -0.000156  0.959764  0.0  0.101684  1e-06  1.01654  0.0  0.104458  -2.4e-05  1.015409  0.0  0.096318  0.099637  2.4e-05  1.017435  0.0
H  H14  1  0.98250827  0.39309988  0.55629936  1  0.087868  -0.000157  0.959894  0.0  0.101722  1e-06  1.016639  0.0  0.104496  -2.5e-05  1.01551  0.0  0.096315  0.099678  2.4e-05  1.017535  0.0
H  H15  1  0.51749035  0.89308967  0.44370328  1  0.087832  -0.000161  0.959814  0.0  0.101691  1e-06  1.016568  0.0  0.104465  -2.4e-05  1.015438  0.0  0.096314  0.099644  2.4e-05  1.017466  0.0
H  H16  1  0.90847243  0.80477118  0.30881261  1  0.076967  -0.000106  0.987329  0.0  0.088112  -9.4e-05  1.050147  0.0  0.089816  -8.2e-05  1.051258  0.0  0.091631  0.08667  -0.000113  1.049952  0.0
H  H17  1  0.59153069  0.30476907  0.69118911  1  0.077014  -0.000108  0.987288  0.0  0.088141  -9.4e-05  1.050124  0.0  0.089847  -8.2e-05  1.051231  0.0  0.091654  0.0867  -0.000113  1.049932  0.0
H  H18  1  0.09152864  0.19523216  0.69118604  1  0.076964  -0.000109  0.987322  0.0  0.088143  -9.4e-05  1.050104  0.0  0.089848  -8.2e-05  1.051211  0.0  0.091651  0.086703  -0.000113  1.049909  0.0
H  H19  1  0.40847935  0.69521948  0.30881248  1  0.076922  -0.000109  0.987393  0.0  0.08808  -9.4e-05  1.0502  0.0  0.089783  -8.2e-05  1.051312  0.0  0.091639  0.086635  -0.000113  1.050003  0.0
H  H20  1  0.96691597  0.83570894  0.09015521  1  0.101341  2.3e-05  0.970646  0.0  0.109717  0.00036  1.037865  0.0  0.111893  0.000208  1.037547  0.0  0.101271  0.108726  0.000533  1.036966  0.0
H  H21  1  0.53308716  0.33570538  0.90984857  1  0.101352  2.2e-05  0.97061  0.0  0.109688  0.00036  1.037885  0.0  0.111867  0.000208  1.037566  0.0  0.101244  0.108692  0.000533  1.036992  0.0
H  H22  1  0.03308623  0.16429017  0.90984545  1  0.101346  2.3e-05  0.970721  0.0  0.109733  0.00036  1.037923  0.0  0.111912  0.000208  1.037604  0.0  0.101287  0.108747  0.000533  1.037022  0.0
H  H23  1  0.46691951  0.66428634  0.09015075  1  0.101367  2.3e-05  0.970678  0.0  0.109751  0.00036  1.03789  0.0  0.111931  0.000207  1.037568  0.0  0.10127  0.108761  0.000533  1.036998  0.0
H  H24  1  0.51324795  0.64208393  0.59020153  1  0.142097  0.000324  0.955981  0.001  0.158001  0.000711  1.02016  0.001  0.160235  0.000472  1.019421  0.001  0.100741  0.156024  0.001073  1.021339  0.001
H  H25  1  0.98675632  0.14207403  0.40979937  1  0.142127  0.000326  0.955937  0.001  0.158018  0.000711  1.020129  0.001  0.160252  0.000472  1.019388  0.001  0.100728  0.156039  0.001073  1.021315  0.001
H  H26  1  0.48675427  0.35792362  0.40980287  1  0.142065  0.000324  0.955975  0.001  0.157992  0.000711  1.020133  0.001  0.160241  0.000473  1.019378  0.001  0.100717  0.156012  0.001073  1.021313  0.001
H  H27  1  0.01324138  0.85792614  0.59019794  1  0.142152  0.000325  0.955918  0.001  0.158049  0.000711  1.020096  0.001  0.160298  0.000473  1.019341  0.001  0.100741  0.15607  0.001073  1.021277  0.001
H  H28  1  0.32597902  0.61754120  0.50731155  1  0.138569  -0.000316  0.963879  0.0  0.155997  -1.2e-05  1.02461  0.0  0.158602  -5.7e-05  1.02414  0.0  0.096743  0.154222  0.000102  1.024932  0.0
H  H29  1  0.17403009  0.11753223  0.49268664  1  0.138548  -0.000318  0.963874  0.0  0.156001  -1.2e-05  1.024583  0.0  0.158606  -5.7e-05  1.024111  0.0  0.096737  0.154227  0.000102  1.024904  0.0
H  H30  1  0.67402989  0.38246425  0.49268897  1  0.138544  -0.000319  0.96384  0.0  0.155985  -1.2e-05  1.024576  0.0  0.158592  -5.7e-05  1.024103  0.0  0.096712  0.154206  0.000102  1.024905  0.0
H  H31  1  0.82596648  0.88246794  0.50731053  1  0.138543  -0.000317  0.9639  0.0  0.155996  -1.2e-05  1.024601  0.0  0.158603  -5.7e-05  1.024129  0.0  0.096761  0.154219  0.000102  1.024924  0.0
H  H32  1  0.41292050  0.48409948  0.61047152  1  0.145256  -0.000415  0.940871  0.0  0.165218  0.000102  0.999219  0.0  0.16729  5.7e-05  0.999582  0.0  0.104247  0.16349  7.2e-05  0.999238  0.0
H  H33  1  0.08708852  0.98409196  0.38952416  1  0.145268  -0.000419  0.940817  0.0  0.165212  0.000102  0.999179  0.0  0.16728  5.7e-05  0.999546  0.0  0.104263  0.163482  7.2e-05  0.999196  0.0
H  H34  1  0.58708618  0.51590702  0.38953060  1  0.145244  -0.000419  0.940838  0.0  0.165224  0.000102  0.999172  0.0  0.167291  5.7e-05  0.999542  0.0  0.104269  0.163498  7.2e-05  0.999193  0.0
H  H35  1  0.91290918  0.01590821  0.61047315  1  0.145273  -0.00042  0.940825  0.0  0.165225  0.000102  0.999177  0.0  0.167292  5.7e-05  0.999548  0.0  0.104269  0.163493  7.2e-05  0.999202  0.0
C  C36  1  0.23777555  0.51600449  0.99382055  1  0.253061  -0.012864  3.729793  -0.007  0.204497  0.005837  4.017892  0.008  0.225492  0.004631  4.032094  0.006  0.141908  0.189478  0.00638  4.007347  0.008
C  C37  1  0.26222015  0.01600336  0.00617730  1  0.253074  -0.012872  3.729671  -0.007  0.204517  0.005836  4.017765  0.008  0.225529  0.004631  4.031966  0.006  0.141954  0.189493  0.00638  4.007219  0.008
C  C38  1  0.76221884  0.48399567  0.00618571  1  0.253113  -0.012876  3.729327  -0.007  0.20451  0.005837  4.017449  0.008  0.225541  0.004631  4.031663  0.006  0.141922  0.189476  0.00638  4.006922  0.008
C  C39  1  0.73777868  0.98399470  0.99382294  1  0.253074  -0.012872  3.729721  -0.007  0.204513  0.005836  4.017812  0.008  0.225523  0.004632  4.032021  0.006  0.141927  0.18949  0.00638  4.007267  0.008
C  C40  1  0.16640431  0.53223925  0.17911089  1  0.1511  0.003964  3.812936  0.006  0.153768  0.004552  4.056217  0.007  0.158807  0.003205  4.081317  0.005  0.082795  0.149848  0.005823  4.039498  0.008
C  C41  1  0.33359475  0.03223895  0.82088653  1  0.151062  0.00395  3.813207  0.006  0.153775  0.004552  4.056342  0.007  0.158813  0.003206  4.081444  0.005  0.082788  0.149855  0.005824  4.039623  0.008
C  C42  1  0.83359564  0.46775880  0.82088856  1  0.151001  0.003953  3.813311  0.006  0.153737  0.004553  4.056456  0.007  0.158775  0.003207  4.081559  0.005  0.082777  0.14982  0.005824  4.03974  0.008
C  C43  1  0.66639961  0.96776122  0.17911412  1  0.150985  0.003954  3.81336  0.006  0.153681  0.004553  4.05652  0.007  0.158719  0.003206  4.081623  0.005  0.082724  0.149761  0.005824  4.039797  0.008
C  C44  1  0.13608500  0.51667964  0.30290691  1  -0.156612  0.001829  3.77617  0.002  -0.17774  0.000971  4.031205  0.001  -0.181877  0.000277  4.052772  0.0  -0.099535  -0.174827  0.001745  4.016495  0.002
C  C45  1  0.36391293  0.01667626  0.69708934  1  -0.156622  0.001854  3.776169  0.002  -0.17776  0.000972  4.031198  0.001  -0.181895  0.000276  4.052762  0.0  -0.099566  -0.174855  0.001745  4.016493  0.002
C  C46  1  0.86390826  0.48332264  0.69709734  1  -0.156441  0.00185  3.7763  0.002  -0.177587  0.00097  4.031257  0.001  -0.18173  0.000273  4.05283  0.0  -0.09953  -0.174677  0.001744  4.016552  0.002
C  C47  1  0.63608476  0.98332074  0.30290703  1  -0.156582  0.00185  3.776337  0.002  -0.177735  0.000971  4.031349  0.001  -0.181871  0.000274  4.052917  0.0  -0.09955  -0.174827  0.001744  4.016644  0.002
C  C48  1  0.04367683  0.61684929  0.34779746  1  -0.084488  0.002161  3.80793  0.003  -0.099164  0.001074  4.060456  0.001  -0.101073  0.000671  4.082908  0.001  -0.105021  -0.098147  0.001336  4.045687  0.002
C  C49  1  0.45632335  0.11684864  0.65220339  1  -0.084474  0.002137  3.807854  0.003  -0.099156  0.001074  4.060385  0.001  -0.101067  0.000669  4.082837  0.001  -0.105006  -0.098131  0.001336  4.045603  0.002
C  C50  1  0.95632537  0.38315088  0.65220413  1  -0.084626  0.002143  3.807907  0.003  -0.099324  0.001075  4.06046  0.001  -0.101235  0.000672  4.082912  0.001  -0.105003  -0.0983  0.001337  4.045687  0.002
C  C51  1  0.54367773  0.88314625  0.34779899  1  -0.084517  0.002148  3.807675  0.003  -0.09921  0.001075  4.060215  0.001  -0.101119  0.00067  4.082665  0.001  -0.105041  -0.098191  0.001337  4.045442  0.002
C  C52  1  0.98343186  0.73055336  0.27179449  1  -0.0934  -0.00082  3.818421  -0.001  -0.106264  2.1e-05  4.069286  0.0  -0.109346  -0.000354  4.094372  0.0  -0.108776  -0.104068  0.00062  4.052212  0.001
C  C53  1  0.51657126  0.23054844  0.72820492  1  -0.093441  -0.000778  3.818416  -0.001  -0.106288  2.1e-05  4.069284  0.0  -0.109371  -0.000353  4.09437  0.0  -0.108782  -0.104096  0.00062  4.052211  0.001
C  C54  1  0.01656699  0.26945209  0.72820763  1  -0.093397  -0.000779  3.818483  -0.001  -0.106297  2e-05  4.069373  0.0  -0.109378  -0.000358  4.094458  0.0  -0.108838  -0.104107  0.00062  4.052303  0.001
C  C55  1  0.48343762  0.76944328  0.27179093  1  -0.093293  -0.00078  3.818448  -0.001  -0.106175  2.1e-05  4.069334  0.0  -0.109257  -0.000353  4.094421  0.0  -0.108748  -0.103977  0.00062  4.052254  0.001
C  C56  1  0.01521753  0.74863327  0.14912568  1  -0.145833  0.003994  3.750863  0.005  -0.166806  0.00186  4.005001  0.002  -0.170809  0.001238  4.027569  0.002  -0.09835  -0.163726  0.002512  3.987976  0.003
C  C57  1  0.48478261  0.24863199  0.85087409  1  -0.145761  0.003977  3.75077  0.005  -0.166751  0.00186  4.004874  0.002  -0.170756  0.001238  4.027446  0.002  -0.098333  -0.163673  0.002512  3.987853  0.003
C  C58  1  0.98478465  0.25136478  0.85087310  1  -0.145723  0.003978  3.750632  0.005  -0.166721  0.001861  4.00478  0.002  -0.170728  0.001239  4.027349  0.002  -0.098303  -0.163646  0.002513  3.98776  0.003
C  C59  1  0.51521847  0.75136290  0.14912830  1  -0.145817  0.003976  3.750768  0.005  -0.166837  0.00186  4.004899  0.002  -0.170841  0.001239  4.027466  0.002  -0.098326  -0.163769  0.002513  3.987882  0.003
C  C60  1  0.10729765  0.64825038  0.10333670  1  0.146188  0.000301  3.806358  0.002  0.15047  0.002938  4.046696  0.004  0.154897  0.001744  4.072141  0.003  0.080291  0.147506  0.004689  4.028664  0.006
C  C61  1  0.39270027  0.14824848  0.89666126  1  0.146129  0.000321  3.806597  0.002  0.150531  0.002938  4.046733  0.004  0.154958  0.001744  4.072181  0.003  0.080335  0.147568  0.004688  4.028701  0.006
C  C62  1  0.89270008  0.35175084  0.89666528  1  0.146089  0.000318  3.806359  0.002  0.150391  0.002937  4.046644  0.004  0.154819  0.001743  4.072093  0.003  0.080289  0.147427  0.004688  4.028611  0.006
C  C63  1  0.60729854  0.85175274  0.10333524  1  0.146163  0.000319  3.806288  0.002  0.150543  0.002937  4.046482  0.004  0.154968  0.001743  4.071929  0.003  0.080341  0.147578  0.004688  4.028455  0.006
C  C64  1  0.33972276  0.66041455  0.70610758  1  0.751287  -0.011533  3.799886  -0.009  0.719999  0.004304  4.089097  0.004  0.759173  0.003179  4.082559  0.003  0.22078  0.690335  0.00432  4.091781  0.003
C  C65  1  0.16028076  0.16041042  0.29389113  1  0.751491  -0.011542  3.799676  -0.009  0.720191  0.004304  4.088905  0.004  0.759358  0.003178  4.082374  0.003  0.220812  0.690518  0.004319  4.0916  0.003
C  C66  1  0.66027719  0.33959090  0.29389187  1  0.751399  -0.01154  3.79971  -0.009  0.72017  0.004304  4.088857  0.004  0.759327  0.00318  4.082345  0.003  0.220876  0.690518  0.004319  4.09152  0.003
C  C67  1  0.83971805  0.83958869  0.70610538  1  0.751415  -0.011537  3.799764  -0.009  0.720162  0.004304  4.08893  0.004  0.759346  0.003179  4.082372  0.003  0.220758  0.690495  0.004319  4.091622  0.003
C  C68  1  0.40161483  0.59880815  0.59552185  1  -0.46668  0.003378  3.654544  0.005  -0.539126  0.00279  3.8766  0.004  -0.547254  0.001722  3.878622  0.002  -0.241728  -0.532684  0.003672  3.875227  0.005
C  C69  1  0.09839094  0.09879964  0.40447677  1  -0.466766  0.00338  3.654422  0.005  -0.539195  0.00279  3.876459  0.004  -0.547321  0.001721  3.878484  0.002  -0.241748  -0.532745  0.003672  3.875092  0.005
C  C70  1  0.59838961  0.40119940  0.40448001  1  -0.466627  0.003384  3.654445  0.005  -0.539153  0.00279  3.87649  0.004  -0.54729  0.00172  3.878507  0.002  -0.241709  -0.532713  0.003672  3.87512  0.005
C  C71  1  0.90160564  0.90120052  0.59552134  1  -0.466743  0.003382  3.654552  0.005  -0.539201  0.00279  3.876573  0.004  -0.547344  0.00172  3.878579  0.002  -0.241746  -0.532749  0.003672  3.875211  0.005
N  N72  1  0.15594890  0.63553644  0.98632962  1  -0.453537  0.054885  3.278327  0.085  -0.416139  0.036692  3.599586  0.046  -0.451885  0.027605  3.612099  0.033  -0.377691  -0.389257  0.045191  3.590854  0.057
N  N73  1  0.34404901  0.13553528  0.01366733  1  -0.453515  0.054886  3.278537  0.085  -0.416188  0.036693  3.599792  0.046  -0.451921  0.027606  3.612278  0.033  -0.377717  -0.389308  0.045188  3.591069  0.057
N  N74  1  0.84404881  0.36446162  0.01367049  1  -0.453505  0.054887  3.278283  0.085  -0.416158  0.036693  3.599577  0.046  -0.451895  0.027607  3.612061  0.033  -0.377712  -0.389266  0.045192  3.590838  0.057
N  N75  1  0.65594981  0.86446594  0.98633105  1  -0.453461  0.054885  3.278549  0.085  -0.416171  0.036693  3.599856  0.046  -0.451902  0.027607  3.612348  0.033  -0.377713  -0.389294  0.045187  3.591137  0.057
N  N76  1  0.24925548  0.44994356  0.10660725  1  -0.471928  0.053383  3.291498  0.079  -0.433707  0.037124  3.616033  0.044  -0.469833  0.028174  3.628144  0.031  -0.381712  -0.406976  0.044885  3.608222  0.054
N  N77  1  0.25074121  0.94994181  0.89338676  1  -0.472012  0.053388  3.291481  0.079  -0.433834  0.037126  3.616017  0.044  -0.469968  0.028177  3.628131  0.031  -0.381779  -0.407105  0.044891  3.608214  0.054
N  N78  1  0.75073998  0.55005661  0.89339166  1  -0.471931  0.053395  3.291191  0.079  -0.433776  0.037127  3.615747  0.044  -0.469896  0.028177  3.627836  0.031  -0.38173  -0.407052  0.044888  3.607959  0.054
N  N79  1  0.74925650  0.05005731  0.10661336  1  -0.471978  0.053389  3.291312  0.079  -0.433785  0.037125  3.615849  0.044  -0.469912  0.028176  3.627948  0.031  -0.381738  -0.407053  0.044891  3.608037  0.054
O  O80  1  0.19910938  0.68506160  0.69629822  1  -0.612819  0.052008  2.028513  0.091  -0.573877  0.039913  2.294731  0.063  -0.61499  0.029399  2.282062  0.047  -0.310296  -0.541308  0.050726  2.303008  0.079
O  O81  1  0.30089300  0.18505952  0.30369863  1  -0.612912  0.05201  2.028441  0.091  -0.573905  0.039912  2.29462  0.063  -0.615007  0.029402  2.28195  0.047  -0.310297  -0.541336  0.050722  2.302904  0.079
O  O82  1  0.80088944  0.31494173  0.30370016  1  -0.612917  0.052008  2.028453  0.091  -0.573965  0.039913  2.294622  0.063  -0.615064  0.029401  2.281945  0.047  -0.31039  -0.541406  0.050727  2.302896  0.079
O  O83  1  0.69910582  0.81493959  0.69629974  1  -0.612851  0.05201  2.028428  0.091  -0.573924  0.039912  2.29462  0.063  -0.615038  0.029401  2.281947  0.047  -0.310304  -0.541361  0.050722  2.302903  0.079
O  O84  1  0.42523870  0.68539234  0.81014863  1  -0.646668  0.044922  2.120088  0.073  -0.612162  0.041173  2.417326  0.059  -0.655084  0.031894  2.402674  0.045  -0.314114  -0.576516  0.05185  2.425096  0.075
O  O85  1  0.07476258  0.18539172  0.18985183  1  -0.646714  0.04492  2.120089  0.073  -0.612246  0.041172  2.417376  0.059  -0.655168  0.031893  2.402719  0.045  -0.314112  -0.576596  0.051852  2.425147  0.075
O  O86  1  0.57475901  0.31461311  0.18985149  1  -0.646689  0.044919  2.120092  0.073  -0.612174  0.041171  2.417284  0.059  -0.655093  0.031892  2.402638  0.045  -0.314109  -0.576532  0.051848  2.42505  0.075
O  O87  1  0.92523735  0.81460633  0.81014481  1  -0.646723  0.04492  2.120113  0.073  -0.612242  0.041173  2.417384  0.059  -0.655168  0.031894  2.402717  0.045  -0.314095  -0.576596  0.051854  2.425161  0.075
