# generated using pymatgen
data_CuP2H18C18(NO3)2
_symmetry_space_group_name_H-M   'P 1'
_cell_length_a   9.92409498
_cell_length_b   9.86615787
_cell_length_c   11.28849777
_cell_angle_alpha   109.69183480
_cell_angle_beta   108.52745121
_cell_angle_gamma   91.09681607
_symmetry_Int_Tables_number   1
_chemical_formula_structural   CuP2H18C18(NO3)2
_chemical_formula_sum   'Cu2 P4 H36 C36 N4 O12'
_cell_volume   976.80180858
_cell_formula_units_Z   2
loop_
 _symmetry_equiv_pos_site_id
 _symmetry_equiv_pos_as_xyz
  1  'x, y, z'
loop_
 _atom_site_type_symbol
 _atom_site_label
 _atom_site_symmetry_multiplicity
 _atom_site_fract_x
 _atom_site_fract_y
 _atom_site_fract_z
 _atom_site_occupancy
 _atom_site_hle17_ddec_charge
 _atom_site_hle17_ddec_spin_density
 _atom_site_hle17_ddec_sum_bond_order
 _atom_site_hle17_magmom
 _atom_site_hse06_10hf_ddec_charge
 _atom_site_hse06_10hf_ddec_spin_density
 _atom_site_hse06_10hf_ddec_sum_bond_order
 _atom_site_hse06_10hf_magmom
 _atom_site_hse06_ddec_charge
 _atom_site_hse06_ddec_spin_density
 _atom_site_hse06_ddec_sum_bond_order
 _atom_site_hse06_magmom
 _atom_site_pbe_cm5_charge
 _atom_site_pbe_ddec_charge
 _atom_site_pbe_ddec_spin_density
 _atom_site_pbe_ddec_sum_bond_order
 _atom_site_pbe_magmom
Cu  Cu0  1  0.24925209  0.13039186  0.04316619  1  0.945658  0.753691  1.806763  0.539  0.926523  0.82498  2.19585  0.65  1.006032  0.896529  2.133945  0.732  0.772837  0.874276  0.76507  2.241129  0.59
Cu  Cu1  1  0.75074755  0.86960118  0.95683103  1  0.945668  -0.753686  1.806842  -0.539  0.926517  -0.824986  2.195971  -0.65  1.00601  -0.896535  2.134035  -0.732  0.772824  0.874229  -0.765076  2.241286  -0.59
P  P2  1  0.31878749  0.41607811  0.35080852  1  1.488725  -0.000149  4.787881  0.0  1.341045  -0.000151  5.293948  0.0  1.388919  -0.00014  5.255897  0.0  0.343953  1.308099  -0.000141  5.318476  0.0
P  P3  1  0.68121701  0.58391930  0.64918870  1  1.488874  0.000135  4.787813  0.0  1.341191  0.000157  5.293865  0.0  1.389063  0.000141  5.255812  0.0  0.343984  1.308243  0.000141  5.318397  0.0
P  P4  1  0.06570236  0.98652440  0.16599380  1  1.496266  0.000104  4.741125  0.001  1.361374  0.000163  5.239619  0.0  1.414603  0.000232  5.203078  0.0  0.352877  1.323403  -0.000363  5.264582  0.0
P  P5  1  0.93429864  0.01347083  0.83400269  1  1.496204  -8.3e-05  4.741379  -0.001  1.361311  -0.000153  5.239865  0.0  1.414541  -0.000231  5.20333  0.0  0.352834  1.323334  0.000362  5.264841  0.0
H  H6  1  0.09783895  0.22241541  0.21703761  1  0.433982  -1.2e-05  0.878103  0.0  0.398813  -1.3e-05  0.948684  0.0  0.410401  -1.5e-05  0.932264  0.0  0.301604  0.390643  -7e-06  0.960203  0.0
H  H7  1  0.90216206  0.77757984  0.78295710  1  0.433977  1.3e-05  0.878104  0.0  0.398808  1.4e-05  0.948685  0.0  0.410397  1.6e-05  0.932265  0.0  0.301587  0.390639  7e-06  0.960205  0.0
H  H8  1  0.52514577  0.55382618  0.41304135  1  0.42358  -1e-06  0.892479  0.0  0.392103  -1e-06  0.957408  0.0  0.403977  -1e-06  0.940572  0.0  0.293367  0.383847  -4e-06  0.969009  0.0
H  H9  1  0.47485676  0.44617233  0.58695388  1  0.423554  1e-06  0.89252  0.0  0.392068  2e-06  0.957465  0.0  0.403942  2e-06  0.94063  0.0  0.293385  0.383813  4e-06  0.969065  0.0
H  H10  1  0.18346874  0.28885747  0.84989347  1  0.095898  0.001489  0.951707  0.003  0.103586  0.001142  1.013883  0.002  0.105749  0.000774  1.011525  0.002  0.122172  0.101495  0.001432  1.015951  0.003
H  H11  1  0.81652517  0.71114754  0.15010841  1  0.095909  -0.00148  0.951622  -0.003  0.103584  -0.001142  1.01382  -0.002  0.105747  -0.000774  1.01146  -0.002  0.122163  0.101509  -0.001432  1.015869  -0.003
H  H12  1  0.32965910  0.39712829  0.74701642  1  0.113096  0.000475  0.9518  0.001  0.122291  0.000461  1.011686  0.001  0.124562  0.000326  1.011942  0.0  0.113259  0.120375  0.000552  1.012129  0.001
H  H13  1  0.67033496  0.60287781  0.25298582  1  0.113094  -0.000472  0.951861  -0.001  0.122258  -0.000461  1.011768  -0.001  0.124522  -0.000326  1.012041  0.0  0.113244  0.12034  -0.000552  1.012213  -0.001
H  H14  1  0.59352129  0.39637419  0.82191130  1  0.114653  0.000276  0.946802  0.0  0.125785  5e-06  0.999388  0.0  0.128697  -1.9e-05  0.99693  0.0  0.112816  0.123293  3.9e-05  1.001612  0.0
H  H15  1  0.40647230  0.60362865  0.17808808  1  0.114631  -0.000277  0.946854  0.0  0.125782  -4e-06  0.999409  0.0  0.128696  1.9e-05  0.996951  0.0  0.112808  0.123289  -3.8e-05  1.001634  0.0
H  H16  1  0.70585212  0.28385991  0.99448867  1  0.124434  0.000709  0.930049  0.001  0.138939  0.000585  0.97897  0.001  0.141674  0.000403  0.978598  0.001  0.118389  0.13657  0.000759  0.97982  0.001
H  H17  1  0.29414253  0.71614295  0.00550923  1  0.1244  -0.000707  0.93001  -0.001  0.138895  -0.000586  0.978946  -0.001  0.141639  -0.000403  0.978575  -0.001  0.118355  0.136522  -0.000759  0.979793  -0.001
H  H18  1  0.78255128  0.19222165  0.14689563  1  0.132681  0.000989  0.952389  0.001  0.139016  0.0008  1.016956  0.001  0.142577  0.000562  1.014971  0.001  0.116582  0.136243  0.00092  1.018871  0.001
H  H19  1  0.21744596  0.80778446  0.85310485  1  0.132673  -0.000981  0.952338  -0.001  0.138998  -0.0008  1.016891  -0.001  0.142556  -0.000562  1.014912  -0.001  0.116565  0.136224  -0.00092  1.018805  -0.001
H  H20  1  0.84496044  0.08686287  0.32294443  1  0.102724  0.000223  0.974988  0.0  0.112846  -1.4e-05  1.035475  0.0  0.114309  -2.4e-05  1.036295  0.0  0.110776  0.111232  3.9e-05  1.035654  0.0
H  H21  1  0.15503846  0.91314000  0.67705287  1  0.102712  -0.000223  0.974974  0.0  0.112847  1.3e-05  1.035463  0.0  0.114297  2.5e-05  1.036319  0.0  0.110754  0.111234  -3.9e-05  1.035645  0.0
H  H22  1  0.64850199  0.99650704  0.38608939  1  0.107733  0.00061  0.946596  0.001  0.120892  0.00062  0.99868  0.0  0.123067  0.00044  0.999737  0.0  0.110303  0.118974  0.000619  0.998605  0.001
H  H23  1  0.35150254  0.00349795  0.61391454  1  0.107782  -0.000613  0.946729  -0.001  0.120947  -0.00062  0.998795  0.0  0.123123  -0.000441  0.999851  0.0  0.110353  0.11903  -0.000619  0.998718  -0.001
H  H24  1  0.39294881  0.01561297  0.26211230  1  0.083213  0.001522  0.972429  0.003  0.09176  0.001226  1.035737  0.002  0.093306  0.000844  1.033977  0.002  0.12019  0.090385  0.001462  1.036882  0.003
H  H25  1  0.60705373  0.98438548  0.73789089  1  0.083223  -0.001519  0.972399  -0.003  0.091767  -0.001226  1.035719  -0.002  0.093313  -0.000843  1.033961  -0.002  0.120195  0.090394  -0.001462  1.036866  -0.002
H  H26  1  0.20085208  0.85283222  0.29574584  1  0.132501  0.000292  0.931343  0.0  0.148175  9.7e-05  0.984038  0.0  0.150555  7.4e-05  0.983156  0.0  0.104749  0.146811  7.1e-05  0.984202  0.0
H  H27  1  0.79914683  0.14717058  0.70425942  1  0.132478  -0.000301  0.93132  0.0  0.148147  -9.7e-05  0.984044  0.0  0.150527  -7.5e-05  0.983162  0.0  0.104727  0.146778  -7.1e-05  0.984213  0.0
H  H28  1  0.26163780  0.04450930  0.36928438  1  0.138683  -0.001049  0.943825  -0.001  0.151891  -0.00073  1.001907  -0.001  0.153843  -0.000491  1.001214  -0.001  0.109647  0.150875  -0.001016  1.002095  -0.001
H  H29  1  0.73835368  0.95549353  0.63071794  1  0.138661  0.001049  0.943837  0.001  0.151889  0.000729  1.001918  0.001  0.153841  0.000491  1.001229  0.001  0.109642  0.150872  0.001016  1.002108  0.001
H  H30  1  0.99846298  0.75357891  0.34332369  1  0.081262  6.2e-05  0.980223  0.0  0.092612  -3e-06  1.044624  0.0  0.094634  -2e-06  1.044254  0.0  0.095748  0.091482  -9e-06  1.044659  0.0
H  H31  1  0.00153212  0.24641956  0.65667833  1  0.081254  -5.9e-05  0.980204  0.0  0.092596  3e-06  1.044614  0.0  0.094621  2e-06  1.044239  0.0  0.095757  0.091468  9e-06  1.044647  0.0
H  H32  1  0.85282023  0.78701570  0.49066728  1  0.106702  -0.000107  0.951957  0.0  0.114129  2e-06  1.018333  0.0  0.116975  -0.0  1.017518  0.0  0.101488  0.112672  -5e-06  1.01792  0.0
H  H33  1  0.14717609  0.21298385  0.50933540  1  0.106655  0.000106  0.951932  0.0  0.114126  -2e-06  1.018273  0.0  0.116965  -0.0  1.01748  0.0  0.101483  0.112666  5e-06  1.017856  0.0
H  H34  1  0.31468234  0.65528712  0.49728527  1  0.133064  -2.5e-05  0.949768  0.0  0.14681  -1.2e-05  1.008419  0.0  0.149244  -1.3e-05  1.008443  0.0  0.103737  0.145361  -3e-06  1.007969  0.0
H  H35  1  0.68532641  0.34471028  0.50271312  1  0.133061  3.3e-05  0.94972  0.0  0.146813  1.3e-05  1.008359  0.0  0.149248  1.3e-05  1.008381  0.0  0.103718  0.145365  3e-06  1.007907  0.0
H  H36  1  0.19112746  0.61475747  0.33218367  1  0.123447  2e-05  0.944895  0.0  0.139719  6e-06  0.999752  0.0  0.142634  6e-06  0.997872  0.0  0.101945  0.137469  4e-06  1.001377  0.0
H  H37  1  0.80887963  0.38524316  0.66781967  1  0.123527  2e-06  0.944936  0.0  0.139805  -5e-06  0.999773  0.0  0.142716  -5e-06  0.9979  0.0  0.101957  0.137554  -4e-06  1.001399  0.0
H  H38  1  0.25194167  0.56420473  0.65566139  1  0.08593  3e-06  0.969013  0.0  0.097991  2.2e-05  1.030611  0.0  0.100572  1.3e-05  1.029959  0.0  0.09532  0.096763  3.2e-05  1.030163  0.0
H  H39  1  0.74806830  0.43579372  0.34434120  1  0.08591  2e-06  0.968911  0.0  0.097954  -2.2e-05  1.030544  0.0  0.100536  -1.3e-05  1.02989  0.0  0.095316  0.096726  -3.2e-05  1.030095  0.0
H  H40  1  0.05691205  0.50655663  0.73277047  1  0.084642  -5e-06  0.940424  0.0  0.101411  5e-06  0.991834  0.0  0.104485  4e-06  0.990233  0.0  0.098331  0.099192  7e-06  0.993248  0.0
H  H41  1  0.94309702  0.49344291  0.26723220  1  0.084663  -2e-06  0.940406  0.0  0.101457  -5e-06  0.99178  0.0  0.104532  -4e-06  0.990174  0.0  0.098355  0.099237  -7e-06  0.993195  0.0
C  C42  1  0.29959649  0.29400952  0.87923521  1  0.137759  -0.007267  3.683476  -0.008  0.109789  -0.001004  3.938848  -0.002  0.118868  -0.002077  3.957571  -0.004  0.056471  0.103627  -0.000232  3.927886  -0.002
C  C43  1  0.70039727  0.70599440  0.12076719  1  0.137706  0.007255  3.683483  0.008  0.109776  0.001006  3.938844  0.002  0.118851  0.002076  3.95757  0.004  0.056447  0.1036  0.000232  3.927874  0.002
C  C44  1  0.38130721  0.35245306  0.82338250  1  -0.107859  0.010043  3.703323  0.011  -0.120437  0.004307  3.954508  0.005  -0.127901  0.003719  3.976533  0.005  -0.075216  -0.117093  0.004769  3.942277  0.006
C  C45  1  0.61868852  0.64754977  0.17661923  1  -0.107833  -0.010054  3.703466  -0.011  -0.120376  -0.004312  3.954632  -0.005  -0.127843  -0.003711  3.976672  -0.005  -0.07521  -0.117028  -0.004769  3.942396  -0.006
C  C46  1  0.52926753  0.35038342  0.86525025  1  0.004431  -0.008222  3.694691  -0.008  -0.015087  -0.002695  3.943778  -0.003  -0.010476  -0.00282  3.960977  -0.003  -0.062181  -0.01812  -0.002668  3.932799  -0.002
C  C47  1  0.47072713  0.64961941  0.13475030  1  0.004414  0.008214  3.694852  0.008  -0.015116  0.002693  3.943923  0.003  -0.010508  0.002818  3.961123  0.003  -0.062145  -0.01815  0.002668  3.93294  0.002
C  C48  1  0.59117851  0.29049309  0.96196663  1  -0.136756  0.006833  3.688353  0.007  -0.154516  0.00276  3.934036  0.003  -0.161924  0.002514  3.955205  0.003  -0.072141  -0.149006  0.002939  3.919561  0.003
C  C49  1  0.40881797  0.70950757  0.03803377  1  -0.136614  -0.006804  3.6884  -0.007  -0.154373  -0.002751  3.934079  -0.003  -0.161793  -0.002523  3.955264  -0.003  -0.072081  -0.148856  -0.002939  3.919594  -0.003
C  C50  1  0.50310134  0.23427599  0.01447806  1  0.178434  -0.00341  3.759809  -0.004  0.175465  0.000565  4.004351  0.0  0.183356  -0.000541  4.025452  -0.001  0.121754  0.170303  0.001305  3.990376  0.001
C  C51  1  0.49689210  0.76572577  0.98552094  1  0.178362  0.003402  3.759872  0.004  0.175428  -0.000571  4.004437  0.0  0.183319  0.000553  4.025542  0.001  0.121706  0.170263  -0.001305  3.990461  -0.001
C  C52  1  0.55438821  0.16795757  0.11623609  1  0.169325  -0.002676  3.770602  -0.003  0.164543  0.000987  4.021019  0.0  0.173255  -9.4e-05  4.040924  -0.001  0.117034  0.158948  0.001815  4.007915  0.001
C  C53  1  0.44560948  0.83204419  0.88376321  1  0.169349  0.002683  3.770505  0.003  0.164495  -0.000998  4.02099  0.0  0.173205  0.000107  4.040896  0.001  0.117029  0.158901  -0.001815  4.007881  -0.001
C  C54  1  0.69779863  0.15593402  0.17584257  1  -0.144142  0.006468  3.683428  0.006  -0.17293  0.002896  3.954354  0.002  -0.180105  0.002592  3.970191  0.002  -0.073667  -0.169659  0.003219  3.945567  0.003
C  C55  1  0.30219784  0.84406666  0.82415518  1  -0.144101  -0.006503  3.683329  -0.006  -0.172811  -0.002885  3.954232  -0.002  -0.179976  -0.002598  3.970055  -0.002  -0.073624  -0.16954  -0.003219  3.945448  -0.003
C  C56  1  0.73322455  0.09498467  0.27482015  1  0.024625  -0.008004  3.672523  -0.008  0.001527  -0.002463  3.929152  -0.003  0.007004  -0.002573  3.946328  -0.003  -0.056281  -0.002223  -0.002435  3.919337  -0.002
C  C57  1  0.26677527  0.90501708  0.72517973  1  0.024661  0.00802  3.672592  0.008  0.001522  0.002463  3.929211  0.003  0.006995  0.002565  3.946384  0.003  -0.056267  -0.00223  0.002435  3.919402  0.002
C  C58  1  0.62471621  0.04569784  0.31008145  1  -0.114556  0.009451  3.702381  0.01  -0.124922  0.003999  3.94773  0.005  -0.133026  0.003447  3.968802  0.004  -0.077599  -0.121084  0.004622  3.935214  0.006
C  C59  1  0.37528375  0.95430499  0.68991969  1  -0.11462  -0.009453  3.702568  -0.01  -0.124985  -0.004004  3.947935  -0.005  -0.133086  -0.003433  3.969006  -0.004  -0.077631  -0.121147  -0.004622  3.935423  -0.006
C  C60  1  0.48327341  0.05691131  0.24345944  1  0.149734  -0.007242  3.692036  -0.008  0.11966  -0.000827  3.948992  -0.002  0.130614  -0.001878  3.965962  -0.003  0.055633  0.112698  -0.000132  3.937984  -0.002
C  C61  1  0.51672716  0.94308826  0.75654089  1  0.149755  0.007235  3.691991  0.008  0.119671  0.00083  3.948954  0.002  0.130621  0.001871  3.965929  0.003  0.055629  0.112706  0.000132  3.937954  0.002
C  C62  1  0.16626286  0.96097345  0.32250997  1  -0.484684  -0.005944  3.706183  -0.006  -0.511087  -0.002756  3.950498  -0.003  -0.520763  -0.001901  3.957951  -0.002  -0.165513  -0.503528  -0.00341  3.943771  -0.003
C  C63  1  0.83373149  0.03902721  0.67748985  1  -0.484564  0.005957  3.706091  0.006  -0.511021  0.002756  3.950511  0.003  -0.520705  0.001902  3.957978  0.002  -0.165485  -0.503453  0.003409  3.943786  0.003
C  C64  1  0.08305522  0.98035105  0.41570896  1  0.130641  0.003671  3.787277  0.004  0.148006  0.000818  4.02558  0.001  0.149666  0.00061  4.049405  0.001  -0.013739  0.148198  0.000166  4.007425  0.0
C  C65  1  0.91693639  0.01964525  0.58429144  1  0.130612  -0.003669  3.787223  -0.004  0.147949  -0.000822  4.025597  -0.001  0.14961  -0.000612  4.049424  -0.001  -0.013719  0.148138  -0.000167  4.007451  0.0
C  C66  1  0.99830837  0.86231655  0.41133046  1  -0.121806  -0.002824  3.7504  -0.003  -0.143085  -0.000317  4.004892  0.0  -0.146168  -0.000273  4.027533  0.0  -0.094183  -0.140446  -8.9e-05  3.987503  0.0
C  C67  1  0.00168340  0.13768083  0.58867031  1  -0.121762  0.002821  3.750441  0.003  -0.143019  0.000318  4.004976  0.0  -0.146101  0.000273  4.027616  0.0  -0.094193  -0.140378  8.9e-05  3.987585  0.0
C  C68  1  0.91613552  0.88081149  0.49392645  1  -0.127853  0.003553  3.728669  0.003  -0.147509  0.00053  3.981674  0.001  -0.149931  0.00041  4.002349  0.0  -0.093782  -0.14466  -6e-05  3.964665  0.0
C  C69  1  0.08385549  0.11918808  0.50607476  1  -0.127791  -0.003555  3.728812  -0.003  -0.147502  -0.000526  3.981793  -0.001  -0.149928  -0.000407  4.002467  0.0  -0.093776  -0.144644  6e-05  3.96477  0.0
C  C70  1  0.23059267  0.57234522  0.41355682  1  -0.494515  -7.1e-05  3.73367  0.0  -0.516796  -3.9e-05  3.972253  0.0  -0.525724  -4.4e-05  3.979455  0.0  -0.170745  -0.510638  -5.9e-05  3.96717  0.0
C  C71  1  0.76941548  0.42765543  0.58644416  1  -0.494699  2.1e-05  3.733668  0.0  -0.516965  3.5e-05  3.972307  0.0  -0.525892  4.4e-05  3.979514  0.0  -0.170783  -0.510806  5.9e-05  3.967227  0.0
C  C72  1  0.11135384  0.53537479  0.45720484  1  0.143308  7.4e-05  3.775088  0.0  0.161465  1.4e-05  4.008767  0.0  0.162316  2.1e-05  4.034166  0.0  -0.01038  0.160782  2.2e-05  3.99226  0.0
C  C73  1  0.88865691  0.46462910  0.54279872  1  0.143422  -6.1e-05  3.774878  0.0  0.161508  -1.7e-05  4.008667  0.0  0.162357  -2.1e-05  4.034067  0.0  -0.010316  0.160825  -2.1e-05  3.992165  0.0
C  C74  1  0.14093408  0.53598222  0.58734441  1  -0.121121  -1.5e-05  3.746873  0.0  -0.138766  4.5e-05  3.994311  0.0  -0.141331  3.1e-05  4.015998  0.0  -0.095816  -0.137522  4.3e-05  3.97972  0.0
C  C75  1  0.85907679  0.46401515  0.41265634  1  -0.12108  -4e-06  3.74673  0.0  -0.138689  -4.3e-05  3.994198  0.0  -0.141252  -3.1e-05  4.015882  0.0  -0.09579  -0.137445  -4.3e-05  3.979604  0.0
C  C76  1  0.03158285  0.50250022  0.62989735  1  -0.118181  7.6e-05  3.746062  0.0  -0.136449  3.4e-05  3.993873  0.0  -0.138802  3.1e-05  4.014675  0.0  -0.09405  -0.135414  3.3e-05  3.980552  0.0
C  C77  1  0.96842971  0.49750150  0.37010517  1  -0.118242  -6.1e-05  3.746195  0.0  -0.136544  -3.1e-05  3.993964  0.0  -0.138896  -3e-05  4.014763  0.0  -0.094128  -0.135508  -3.4e-05  3.980637  0.0
N  N78  1  0.35941424  0.23629472  0.97196101  1  -0.324763  0.084884  3.312674  0.106  -0.286306  0.058769  3.608126  0.079  -0.316235  0.047953  3.629194  0.067  -0.336517  -0.268444  0.064064  3.596273  0.083
N  N79  1  0.64058223  0.76370594  0.02803939  1  -0.324795  -0.084892  3.31273  -0.106  -0.286405  -0.058769  3.608257  -0.079  -0.316326  -0.047963  3.629307  -0.067  -0.336538  -0.268535  -0.064066  3.596407  -0.083
N  N80  1  0.44945634  0.11636449  0.14934892  1  -0.332719  0.085439  3.332172  0.106  -0.294713  0.058951  3.629874  0.079  -0.325581  0.048034  3.651295  0.067  -0.340944  -0.274977  0.065055  3.616629  0.084
N  N81  1  0.55054407  0.88363398  0.85065192  1  -0.332746  -0.085426  3.332196  -0.106  -0.294711  -0.058947  3.629918  -0.079  -0.325572  -0.048037  3.651327  -0.067  -0.340941  -0.274961  -0.065052  3.616663  -0.084
O  O82  1  0.93207634  0.87182237  0.09586761  1  -0.802099  -0.059386  1.997328  -0.077  -0.75874  -0.03713  2.293923  -0.052  -0.797675  -0.029327  2.274404  -0.043  -0.382518  -0.73045  -0.042595  2.307123  -0.058
O  O83  1  0.06792120  0.12817829  0.90413309  1  -0.802073  0.059383  1.997312  0.077  -0.758723  0.037129  2.293914  0.052  -0.797661  0.029325  2.274407  0.043  -0.382515  -0.730442  0.042594  2.307118  0.058
O  O84  1  0.17014379  0.97693056  0.08922149  1  -0.832013  0.068045  2.028715  0.088  -0.788982  0.041549  2.333797  0.057  -0.826632  0.031905  2.314126  0.046  -0.387302  -0.761807  0.049038  2.34668  0.066
O  O85  1  0.82985992  0.02305379  0.91077247  1  -0.832003  -0.068035  2.028762  -0.088  -0.788912  -0.041549  2.333852  -0.057  -0.826558  -0.031903  2.314172  -0.046  -0.38725  -0.761706  -0.049033  2.346691  -0.066
O  O86  1  0.21353958  0.31550646  0.21508876  1  -0.859973  -0.001516  2.003745  -0.001  -0.789912  -0.000997  2.267555  0.0  -0.816782  -0.001105  2.24423  -0.001  -0.38269  -0.771127  -0.000888  2.283303  0.0
O  O87  1  0.78646098  0.68449311  0.78491068  1  -0.859999  0.001507  2.003693  0.001  -0.789954  0.000995  2.267532  0.0  -0.816819  0.001104  2.244193  0.001  -0.382694  -0.771162  0.000888  2.28328  0.0
O  O88  1  0.02105492  0.14319246  0.21042179  1  -0.751033  0.000669  2.030251  0.001  -0.677449  0.000235  2.255117  0.0  -0.701179  8.7e-05  2.233932  0.0  -0.378891  -0.659577  0.001083  2.269196  0.001
O  O89  1  0.97894501  0.85680281  0.78956909  1  -0.750992  -0.000687  2.030393  -0.001  -0.677419  -0.000239  2.255272  0.0  -0.70113  -8.7e-05  2.234048  0.0  -0.378832  -0.659528  -0.001082  2.269324  -0.001
O  O90  1  0.44801917  0.48275153  0.32321408  1  -0.765966  -6.7e-05  1.984383  0.0  -0.697521  -5.5e-05  2.210756  0.0  -0.718585  -4.8e-05  2.186993  0.0  -0.396211  -0.68229  -5.1e-05  2.225618  0.0
O  O91  1  0.55198351  0.51724807  0.67678152  1  -0.765986  7.4e-05  1.984408  0.0  -0.697512  5.5e-05  2.21077  0.0  -0.718576  4.7e-05  2.187005  0.0  -0.39624  -0.68228  5.1e-05  2.225632  0.0
O  O92  1  0.37160033  0.34831603  0.45741929  1  -0.847149  -8.4e-05  1.871585  0.0  -0.77297  -6.9e-05  2.10407  0.0  -0.797072  -5.3e-05  2.085431  0.0  -0.390628  -0.755977  -6.8e-05  2.11666  0.0
O  O93  1  0.62840645  0.65168244  0.54258066  1  -0.84724  9.9e-05  1.871629  0.0  -0.773066  6.7e-05  2.104122  0.0  -0.797169  5.1e-05  2.085482  0.0  -0.390646  -0.756075  6.8e-05  2.116715  0.0
