# generated using pymatgen
data_LaH8C6NO7
_symmetry_space_group_name_H-M   'P 1'
_cell_length_a   7.03788948
_cell_length_b   10.26111825
_cell_length_c   12.16701646
_cell_angle_alpha   89.99989169
_cell_angle_beta   90.00008043
_cell_angle_gamma   90.00037339
_symmetry_Int_Tables_number   1
_chemical_formula_structural   LaH8C6NO7
_chemical_formula_sum   'La4 H32 C24 N4 O28'
_cell_volume   878.66075752
_cell_formula_units_Z   4
loop_
 _symmetry_equiv_pos_site_id
 _symmetry_equiv_pos_as_xyz
  1  'x, y, z'
loop_
 _atom_site_type_symbol
 _atom_site_label
 _atom_site_symmetry_multiplicity
 _atom_site_fract_x
 _atom_site_fract_y
 _atom_site_fract_z
 _atom_site_occupancy
 _atom_site_hle17_bader_spin_density
 _atom_site_hle17_ddec_charge
 _atom_site_hle17_ddec_spin_density
 _atom_site_hle17_ddec_sum_bond_order
 _atom_site_hle17_magmom
 _atom_site_hse06_10hf_bader_spin_density
 _atom_site_hse06_10hf_ddec_charge
 _atom_site_hse06_10hf_ddec_spin_density
 _atom_site_hse06_10hf_ddec_sum_bond_order
 _atom_site_hse06_10hf_magmom
 _atom_site_hse06_bader_spin_density
 _atom_site_hse06_ddec_charge
 _atom_site_hse06_ddec_spin_density
 _atom_site_hse06_ddec_sum_bond_order
 _atom_site_hse06_magmom
 _atom_site_pbe_bader_spin_density
 _atom_site_pbe_cm5_charge
 _atom_site_pbe_ddec_charge
 _atom_site_pbe_ddec_spin_density
 _atom_site_pbe_ddec_sum_bond_order
 _atom_site_pbe_magmom
La  La0  1  0.86822090  0.15074084  0.89833797  1  0  2.13208  0  1.740195  0  0  1.996519  0  2.254644  0  0  2.099859  0  2.153516  0  0  1.398696  1.91822  0  2.326682  0
La  La1  1  0.63178198  0.84925636  0.39834046  1  0  2.132163  0  1.74015  0  0  1.996629  0  2.254551  0  0  2.099974  0  2.153421  0  0  1.398719  1.918318  0  2.326606  0
La  La2  1  0.13178907  0.65074351  0.60165977  1  0  2.132117  0  1.740185  0  0  1.996574  0  2.254554  0  0  2.099924  0  2.15341  0  0  1.398695  1.918273  0  2.326607  0
La  La3  1  0.36821018  0.34925504  0.10166325  1  0  2.132123  0  1.740206  0  0  1.996603  0  2.254529  0  0  2.099939  0  2.153401  0  0  1.398685  1.918305  0  2.326574  0
H  H4  1  0.59720787  0.77686799  0.81842130  1  0  0.124933  0  0.910065  0  0  0.139879  0  0.965224  0  0  0.142762  0  0.963219  0  0  0.126148  0.137722  0  0.9669  0
H  H5  1  0.90279056  0.22313329  0.31842418  1  0  0.124971  0  0.91005  0  0  0.139917  0  0.965209  0  0  0.142798  0  0.963205  0  0  0.126171  0.13776  0  0.966886  0
H  H6  1  0.40279193  0.27686567  0.68157542  1  0  0.124954  0  0.910067  0  0  0.139916  0  0.965219  0  0  0.142799  0  0.963216  0  0  0.126177  0.137764  0  0.966896  0
H  H7  1  0.09720751  0.72313367  0.18157643  1  0  0.12491  0  0.910064  0  0  0.139859  0  0.96522  0  0  0.142739  0  0.963217  0  0  0.126155  0.137712  0  0.966901  0
H  H8  1  0.73341622  0.72788520  0.93108665  1  0  0.097605  0  0.927566  0  0  0.112052  0  0.98955  0  0  0.114372  0  0.987454  0  0  0.113303  0.110381  0  0.99117  0
H  H9  1  0.76658248  0.27211777  0.43108934  1  0  0.097677  0  0.927518  0  0  0.112098  0  0.989529  0  0  0.11442  0  0.987431  0  0  0.11333  0.110433  0  0.991144  0
H  H10  1  0.26658169  0.22788448  0.56891015  1  0  0.097632  0  0.927536  0  0  0.112079  0  0.989549  0  0  0.114401  0  0.987453  0  0  0.113305  0.110416  0  0.991166  0
H  H11  1  0.23342174  0.77211610  0.06891284  1  0  0.097671  0  0.927495  0  0  0.112065  0  0.989545  0  0  0.114384  0  0.987451  0  0  0.113329  0.11041  0  0.991154  0
H  H12  1  0.61303567  0.79644372  0.07643659  1  0  0.090042  0  0.957498  0  0  0.103129  0  1.021856  0  0  0.10516  0  1.020484  0  0  0.110398  0.101637  0  1.022859  0
H  H13  1  0.88696217  0.20355518  0.57644061  1  0  0.090039  0  0.957495  0  0  0.10315  0  1.021862  0  0  0.105181  0  1.020491  0  0  0.110418  0.10166  0  1.022863  0
H  H14  1  0.38696452  0.29644566  0.42356226  1  0  0.090026  0  0.957479  0  0  0.103149  0  1.021852  0  0  0.10518  0  1.020482  0  0  0.110418  0.101659  0  1.02285  0
H  H15  1  0.11303693  0.70355801  0.92356280  1  0  0.09003  0  0.957465  0  0  0.103157  0  1.021803  0  0  0.105188  0  1.020434  0  0  0.110401  0.101664  0  1.022808  0
H  H16  1  0.51622616  0.95268669  0.09652599  1  0  0.117667  0  0.930766  0  0  0.131225  0  0.992498  0  0  0.13388  0  0.99054  0  0  0.127641  0.129119  0  0.994384  0
H  H17  1  0.98377741  0.04731314  0.59652787  1  0  0.117633  0  0.930802  0  0  0.13122  0  0.992536  0  0  0.133876  0  0.990577  0  0  0.12763  0.12912  0  0.994409  0
H  H18  1  0.48377693  0.45269008  0.40347262  1  0  0.117606  0  0.930824  0  0  0.131205  0  0.992562  0  0  0.133861  0  0.990602  0  0  0.127621  0.129102  0  0.994435  0
H  H19  1  0.01622589  0.54731364  0.90347332  1  0  0.117619  0  0.930803  0  0  0.131195  0  0.992556  0  0  0.133851  0  0.990598  0  0  0.127628  0.129092  0  0.994431  0
H  H20  1  0.33485149  0.89314895  0.92794425  1  0  0.093462  0  0.924274  0  0  0.105212  0  0.989277  0  0  0.107911  0  0.986933  0  0  0.107399  0.103295  0  0.990879  0
H  H21  1  0.16514997  0.10685179  0.42794713  1  0  0.093514  0  0.924242  0  0  0.105247  0  0.989264  0  0  0.107933  0  0.986932  0  0  0.107421  0.103327  0  0.990869  0
H  H22  1  0.66514941  0.39314806  0.57205310  1  0  0.093492  0  0.92422  0  0  0.105245  0  0.989259  0  0  0.107925  0  0.986934  0  0  0.107429  0.103332  0  0.990862  0
H  H23  1  0.83485552  0.60685377  0.07205450  1  0  0.093512  0  0.924268  0  0  0.105262  0  0.989281  0  0  0.107929  0  0.986977  0  0  0.107425  0.103347  0  0.990884  0
H  H24  1  0.44750192  0.96220029  0.81122376  1  0  0.116519  0  0.955786  0  0  0.128911  0  1.017459  0  0  0.132485  0  1.014191  0  0  0.125757  0.12614  0  1.02019  0
H  H25  1  0.05249641  0.03780169  0.31122502  1  0  0.116549  0  0.955735  0  0  0.128936  0  1.017409  0  0  0.132511  0  1.014138  0  0  0.125768  0.12617  0  1.02013  0
H  H26  1  0.55250105  0.46220155  0.68877512  1  0  0.116508  0  0.95574  0  0  0.128927  0  1.017393  0  0  0.132501  0  1.014119  0  0  0.12577  0.126144  0  1.02014  0
H  H27  1  0.94750558  0.53780099  0.18877672  1  0  0.116495  0  0.955781  0  0  0.12891  0  1.01743  0  0  0.132483  0  1.014159  0  0  0.125753  0.126135  0  1.020165  0
H  H28  1  0.63723813  0.42404684  0.86038340  1  0  0.439972  0  0.854865  0  0  0.408363  0  0.919342  0  0  0.420859  0  0.901017  0  0  0.300362  0.399349  0  0.932551  0
H  H29  1  0.86276466  0.57595337  0.36038816  1  0  0.439942  0  0.854931  0  0  0.408339  0  0.919397  0  0  0.420835  0  0.901071  0  0  0.300355  0.399319  0  0.932621  0
H  H30  1  0.36276448  0.92405045  0.63961554  1  0  0.439933  0  0.854927  0  0  0.408334  0  0.919386  0  0  0.420829  0  0.90106  0  0  0.300352  0.399318  0  0.932597  0
H  H31  1  0.13723201  0.07594704  0.13961598  1  0  0.439973  0  0.854861  0  0  0.408385  0  0.919297  0  0  0.420879  0  0.900974  0  0  0.300375  0.399367  0  0.932523  0
H  H32  1  0.82426708  0.41869316  0.77728669  1  0  0.430958  0  0.866935  0  0  0.401966  0  0.928038  0  0  0.413594  0  0.911005  0  0  0.303149  0.39338  0  0.940676  0
H  H33  1  0.67573408  0.58130919  0.27729047  1  0  0.431027  0  0.866806  0  0  0.402046  0  0.927897  0  0  0.413671  0  0.910868  0  0  0.303182  0.393466  0  0.940524  0
H  H34  1  0.17573548  0.91869283  0.72271308  1  0  0.431008  0  0.866845  0  0  0.402015  0  0.927951  0  0  0.413645  0  0.910917  0  0  0.303157  0.393428  0  0.940591  0
H  H35  1  0.32425980  0.08130351  0.22271449  1  0  0.431045  0  0.86679  0  0  0.402057  0  0.927889  0  0  0.413686  0  0.910857  0  0  0.303157  0.393472  0  0.940528  0
C  C36  1  0.88587989  0.83217743  0.80974464  1  0  0.713691  0  3.844116  0  0  0.664989  0  4.149842  0  0  0.700235  0  4.142271  0  0  0.230726  0.640595  0  4.154272  0
C  C37  1  0.61412136  0.16782192  0.30974737  1  0  0.713725  0  3.843941  0  0  0.664939  0  4.149782  0  0  0.700184  0  4.142213  0  0  0.230715  0.640528  0  4.154242  0
C  C38  1  0.11412185  0.33218063  0.69025446  1  0  0.713655  0  3.844238  0  0  0.664944  0  4.15001  0  0  0.70019  0  4.142443  0  0  0.230694  0.640543  0  4.154454  0
C  C39  1  0.38587761  0.66781968  0.19025909  1  0  0.713646  0  3.844048  0  0  0.664979  0  4.149729  0  0  0.700221  0  4.142164  0  0  0.230699  0.64059  0  4.154173  0
C  C40  1  0.70588841  0.81152423  0.87649636  1  0  -0.171887  0  3.630087  0  0  -0.224239  0  3.881164  0  0  -0.225689  0  3.887554  0  0  -0.06254  -0.223317  0  3.876886  0
C  C41  1  0.79411158  0.18847691  0.37649921  1  0  -0.171998  0  3.630135  0  0  -0.224304  0  3.881176  0  0  -0.225756  0  3.887568  0  0  -0.062561  -0.223384  0  3.876916  0
C  C42  1  0.29411598  0.31152351  0.62350112  1  0  -0.17187  0  3.630075  0  0  -0.224267  0  3.881153  0  0  -0.225726  0  3.887561  0  0  -0.062525  -0.223348  0  3.876892  0
C  C43  1  0.20588758  0.68847792  0.12350229  1  0  -0.17189  0  3.630072  0  0  -0.224204  0  3.881109  0  0  -0.225652  0  3.887496  0  0  -0.062552  -0.223312  0  3.876878  0
C  C44  1  0.63589953  0.90033110  0.05873539  1  0  -0.195449  0  3.663607  0  0  -0.24901  0  3.915896  0  0  -0.251239  0  3.92427  0  0  -0.068502  -0.247396  0  3.910023  0
C  C45  1  0.86410395  0.09966783  0.55873791  1  0  -0.195315  0  3.663497  0  0  -0.249043  0  3.915956  0  0  -0.251272  0  3.924333  0  0  -0.068517  -0.247453  0  3.910131  0
C  C46  1  0.36410307  0.40033291  0.44126248  1  0  -0.195181  0  3.663363  0  0  -0.248949  0  3.915869  0  0  -0.251176  0  3.924243  0  0  -0.068505  -0.247365  0  3.910061  0
C  C47  1  0.13589558  0.59967073  0.94126402  1  0  -0.195284  0  3.663429  0  0  -0.248992  0  3.915847  0  0  -0.251219  0  3.924224  0  0  -0.068505  -0.247404  0  3.910025  0
C  C48  1  0.81077610  0.94379939  0.12332644  1  0  0.717149  0  3.827204  0  0  0.670565  0  4.132879  0  0  0.705773  0  4.124693  0  0  0.228498  0.646258  0  4.137794  0
C  C49  1  0.68922611  0.05618965  0.62332807  1  0  0.717043  0  3.827371  0  0  0.670562  0  4.13294  0  0  0.705772  0  4.124753  0  0  0.22855  0.646251  0  4.137853  0
C  C50  1  0.18922548  0.44380641  0.37667300  1  0  0.717072  0  3.82728  0  0  0.670529  0  4.132975  0  0  0.705736  0  4.124791  0  0  0.22854  0.646236  0  4.137864  0
C  C51  1  0.31077585  0.55619738  0.87667146  1  0  0.717024  0  3.827352  0  0  0.670508  0  4.132971  0  0  0.705711  0  4.124793  0  0  0.228532  0.646216  0  4.137851  0
C  C52  1  0.44646479  0.96176553  0.90129515  1  0  -0.190358  0  3.681456  0  0  -0.245157  0  3.937732  0  0  -0.246901  0  3.943335  0  0  -0.067941  -0.243858  0  3.933729  0
C  C53  1  0.05353803  0.03823722  0.40129640  1  0  -0.190389  0  3.681221  0  0  -0.245185  0  3.937476  0  0  -0.246916  0  3.943067  0  0  -0.067986  -0.243882  0  3.933471  0
C  C54  1  0.55353676  0.46176408  0.59870374  1  0  -0.190258  0  3.681178  0  0  -0.245182  0  3.937581  0  0  -0.246904  0  3.943171  0  0  -0.06799  -0.243879  0  3.933592  0
C  C55  1  0.94646539  0.53823964  0.09870534  1  0  -0.190292  0  3.681452  0  0  -0.245179  0  3.937704  0  0  -0.246907  0  3.943297  0  0  -0.067946  -0.243874  0  3.933716  0
C  C56  1  0.39087731  0.09810122  0.93560085  1  0  0.724265  0  3.849444  0  0  0.677373  0  4.149118  0  0  0.71322  0  4.141503  0  0  0.232326  0.652588  0  4.153348  0
C  C57  1  0.10911991  0.90189853  0.43560160  1  0  0.724221  0  3.849328  0  0  0.677333  0  4.148978  0  0  0.713185  0  4.141351  0  0  0.232286  0.652551  0  4.153205  0
C  C58  1  0.60912647  0.59810318  0.56439286  1  0  0.724227  0  3.849349  0  0  0.677361  0  4.149009  0  0  0.713204  0  4.141388  0  0  0.232259  0.652594  0  4.153204  0
C  C59  1  0.89087417  0.40190061  0.06439874  1  0  0.724139  0  3.8495  0  0  0.677408  0  4.1489  0  0  0.713283  0  4.141232  0  0  0.23234  0.652624  0  4.153131  0
N  N60  1  0.63714398  0.92474364  0.93932841  1  0  -0.18784  0  3.283984  0  0  -0.118505  0  3.536991  0  0  -0.135468  0  3.561481  0  0  -0.361175  -0.106254  0  3.519071  0
N  N61  1  0.86285900  0.07525932  0.43933067  1  0  -0.187903  0  3.28387  0  0  -0.118526  0  3.536877  0  0  -0.135487  0  3.56136  0  0  -0.36117  -0.106272  0  3.51895  0
N  N62  1  0.36286290  0.42474239  0.56067218  1  0  -0.188063  0  3.284113  0  0  -0.118577  0  3.53707  0  0  -0.135536  0  3.561551  0  0  -0.361153  -0.106327  0  3.519155  0
N  N63  1  0.13714051  0.57526015  0.06067265  1  0  -0.18793  0  3.284018  0  0  -0.118519  0  3.536945  0  0  -0.135482  0  3.561427  0  0  -0.361163  -0.106268  0  3.519041  0
O  O64  1  0.97713645  0.93950803  0.81594085  1  0  -0.697272  0  2.048177  0  0  -0.644549  0  2.301521  0  0  -0.677662  0  2.292088  0  0  -0.364671  -0.620523  0  2.307214  0
O  O65  1  0.52286054  0.06049130  0.31594122  1  0  -0.697221  0  2.047971  0  0  -0.644527  0  2.301398  0  0  -0.677638  0  2.291963  0  0  -0.364653  -0.620499  0  2.307119  0
O  O66  1  0.02287057  0.43950694  0.68406136  1  0  -0.697216  0  2.048299  0  0  -0.644491  0  2.301641  0  0  -0.677598  0  2.292205  0  0  -0.364633  -0.620465  0  2.307351  0
O  O67  1  0.47712746  0.56048656  0.18406624  1  0  -0.697247  0  2.04794  0  0  -0.64456  0  2.301302  0  0  -0.677671  0  2.291864  0  0  -0.36464  -0.620542  0  2.307022  0
O  O68  1  0.93540131  0.73591812  0.75212995  1  0  -0.673352  0  2.047942  0  0  -0.626635  0  2.310584  0  0  -0.65959  0  2.30141  0  0  -0.384603  -0.602763  0  2.316507  0
O  O69  1  0.56459696  0.26408233  0.25213085  1  0  -0.673499  0  2.04795  0  0  -0.626616  0  2.310507  0  0  -0.659578  0  2.301335  0  0  -0.384611  -0.602739  0  2.316446  0
O  O70  1  0.06460236  0.23591901  0.74787094  1  0  -0.673385  0  2.047923  0  0  -0.626648  0  2.31058  0  0  -0.659599  0  2.301388  0  0  -0.384638  -0.602771  0  2.316509  0
O  O71  1  0.43540434  0.76407629  0.24787381  1  0  -0.673331  0  2.047984  0  0  -0.626652  0  2.310666  0  0  -0.659592  0  2.301459  0  0  -0.384612  -0.602777  0  2.316592  0
O  O72  1  0.92659475  0.02274025  0.07702910  1  0  -0.689278  0  1.997652  0  0  -0.634013  0  2.242477  0  0  -0.666066  0  2.231131  0  0  -0.35281  -0.610941  0  2.249645  0
O  O73  1  0.57340735  0.97725377  0.57702917  1  0  -0.689275  0  1.997722  0  0  -0.634066  0  2.242538  0  0  -0.666117  0  2.231189  0  0  -0.352868  -0.610986  0  2.249702  0
O  O74  1  0.07341705  0.52274876  0.42296855  1  0  -0.689262  0  1.997777  0  0  -0.634033  0  2.242629  0  0  -0.666085  0  2.231283  0  0  -0.352823  -0.610961  0  2.249796  0
O  O75  1  0.42659292  0.47725589  0.92296887  1  0  -0.689237  0  1.997652  0  0  -0.634012  0  2.242468  0  0  -0.666065  0  2.231121  0  0  -0.352806  -0.61094  0  2.249622  0
O  O76  1  0.82776406  0.90140726  0.22035931  1  0  -0.676482  0  1.967738  0  0  -0.630949  0  2.221491  0  0  -0.662787  0  2.212206  0  0  -0.355108  -0.607975  0  2.227043  0
O  O77  1  0.67224407  0.09857085  0.72036250  1  0  -0.676399  0  1.967911  0  0  -0.630878  0  2.221592  0  0  -0.662717  0  2.212308  0  0  -0.355109  -0.607905  0  2.227144  0
O  O78  1  0.17222717  0.40141539  0.27964185  1  0  -0.676424  0  1.96777  0  0  -0.630879  0  2.221489  0  0  -0.662716  0  2.212205  0  0  -0.355131  -0.607908  0  2.227032  0
O  O79  1  0.32776540  0.59858374  0.77963861  1  0  -0.676421  0  1.967886  0  0  -0.630874  0  2.221559  0  0  -0.662709  0  2.212274  0  0  -0.355136  -0.607908  0  2.2271  0
O  O80  1  0.52410941  0.17554041  0.96720843  1  0  -0.749648  0  2.048781  0  0  -0.697436  0  2.312324  0  0  -0.736257  0  2.306113  0  0  -0.399159  -0.669012  0  2.315242  0
O  O81  1  0.97588085  0.82446053  0.46720795  1  0  -0.74963  0  2.048779  0  0  -0.697407  0  2.312257  0  0  -0.736227  0  2.306046  0  0  -0.399167  -0.668987  0  2.315177  0
O  O82  1  0.47588800  0.67553698  0.53278187  1  0  -0.749681  0  2.048867  0  0  -0.69748  0  2.312391  0  0  -0.736299  0  2.306182  0  0  -0.399196  -0.669054  0  2.315296  0
O  O83  1  0.02410540  0.32445978  0.03279415  1  0  -0.749629  0  2.048797  0  0  -0.697511  0  2.312324  0  0  -0.736344  0  2.3061  0  0  -0.399225  -0.669084  0  2.315243  0
O  O84  1  0.22019277  0.13171706  0.93163758  1  0  -0.663195  0  2.076763  0  0  -0.615356  0  2.338091  0  0  -0.648342  0  2.330179  0  0  -0.355686  -0.591418  0  2.342822  0
O  O85  1  0.27980444  0.86827783  0.43164098  1  0  -0.663239  0  2.076794  0  0  -0.615348  0  2.338019  0  0  -0.648352  0  2.330141  0  0  -0.355634  -0.591413  0  2.342751  0
O  O86  1  0.77980139  0.63172368  0.56835197  1  0  -0.663211  0  2.07685  0  0  -0.61531  0  2.338052  0  0  -0.648319  0  2.330204  0  0  -0.355607  -0.591378  0  2.342777  0
O  O87  1  0.72018933  0.36828985  0.06835858  1  0  -0.663116  0  2.07673  0  0  -0.615352  0  2.337991  0  0  -0.648324  0  2.330021  0  0  -0.355663  -0.591413  0  2.342723  0
O  O88  1  0.75235476  0.37509437  0.83667595  1  0  -0.903649  0  1.8946  0  0  -0.854411  0  2.092868  0  0  -0.880191  0  2.057428  0  0  -0.632221  -0.835291  0  2.118026  0
O  O89  1  0.74763944  0.62489907  0.33668547  1  0  -0.903676  0  1.894581  0  0  -0.854462  0  2.092851  0  0  -0.880236  0  2.05741  0  0  -0.632246  -0.835348  0  2.118005  0
O  O90  1  0.24764880  0.87509547  0.66332061  1  0  -0.903667  0  1.894626  0  0  -0.854452  0  2.092897  0  0  -0.880231  0  2.057454  0  0  -0.632226  -0.835331  0  2.11806  0
O  O91  1  0.25234491  0.12490392  0.16332188  1  0  -0.903718  0  1.894507  0  0  -0.854517  0  2.092792  0  0  -0.880295  0  2.057353  0  0  -0.632228  -0.835403  0  2.117944  0
