# generated using pymatgen
data_ZnP2H11C3NO7
_symmetry_space_group_name_H-M   'P 1'
_cell_length_a   7.57247622
_cell_length_b   7.90524063
_cell_length_c   8.52608291
_cell_angle_alpha   89.43379065
_cell_angle_beta   64.41744164
_cell_angle_gamma   82.14353992
_symmetry_Int_Tables_number   1
_chemical_formula_structural   ZnP2H11C3NO7
_chemical_formula_sum   'Zn2 P4 H22 C6 N2 O14'
_cell_volume   455.34250260
_cell_formula_units_Z   2
loop_
 _symmetry_equiv_pos_site_id
 _symmetry_equiv_pos_as_xyz
  1  'x, y, z'
loop_
 _atom_site_type_symbol
 _atom_site_label
 _atom_site_symmetry_multiplicity
 _atom_site_fract_x
 _atom_site_fract_y
 _atom_site_fract_z
 _atom_site_occupancy
 _atom_site_hle17_bader_spin_density
 _atom_site_hle17_ddec_charge
 _atom_site_hle17_ddec_spin_density
 _atom_site_hle17_ddec_sum_bond_order
 _atom_site_hle17_magmom
 _atom_site_hse06_10hf_bader_spin_density
 _atom_site_hse06_10hf_ddec_charge
 _atom_site_hse06_10hf_ddec_spin_density
 _atom_site_hse06_10hf_ddec_sum_bond_order
 _atom_site_hse06_10hf_magmom
 _atom_site_hse06_bader_spin_density
 _atom_site_hse06_ddec_charge
 _atom_site_hse06_ddec_spin_density
 _atom_site_hse06_ddec_sum_bond_order
 _atom_site_hse06_magmom
 _atom_site_pbe_bader_spin_density
 _atom_site_pbe_cm5_charge
 _atom_site_pbe_ddec_charge
 _atom_site_pbe_ddec_spin_density
 _atom_site_pbe_ddec_sum_bond_order
 _atom_site_pbe_magmom
Zn  Zn0  1  0.57435642  0.76702283  0.36447291  1  0  1.26079  0  1.748098  0  0  1.091536  0  2.235515  0  0  1.135196  0  2.169524  0  0  0.714053  1.060507  0  2.281335  0
Zn  Zn1  1  0.42564327  0.23297508  0.63552685  1  0  1.260742  0  1.74811  0  0  1.091521  0  2.23553  0  0  1.135183  0  2.169534  0  0  0.714058  1.060491  0  2.281347  0
P  P2  1  0.51440448  0.86135322  0.75057119  1  0  1.490537  0  4.879039  0  0  1.330343  0  5.381623  0  0  1.379969  0  5.343971  0  0  0.347784  1.295707  0  5.407024  0
P  P3  1  0.48559521  0.13864470  0.24942975  1  0  1.490557  0  4.87898  0  0  1.330333  0  5.38158  0  0  1.379963  0  5.343926  0  0  0.347774  1.295697  0  5.406977  0
P  P4  1  0.97226793  0.39009944  0.77814975  1  0  1.499648  0  4.811364  0  0  1.336255  0  5.31592  0  0  1.386019  0  5.277003  0  0  0.363327  1.301641  0  5.34227  0
P  P5  1  0.02773402  0.60990232  0.22184910  1  0  1.499675  0  4.811316  0  0  1.336287  0  5.315869  0  0  1.386042  0  5.276951  0  0  0.363324  1.301669  0  5.342217  0
H  H6  1  0.92643110  0.70291941  0.59120269  1  0  0.283549  0  0.899212  0  0  0.264939  0  0.959608  0  0  0.272843  0  0.954345  0  0  0.311582  0.259389  0  0.963319  0
H  H7  1  0.07356814  0.29708107  0.40879839  1  0  0.28354  0  0.899209  0  0  0.264926  0  0.959609  0  0  0.272832  0  0.954346  0  0  0.311576  0.259378  0  0.963318  0
H  H8  1  0.17587333  0.61398215  0.68597370  1  0  0.13583  0  0.934942  0  0  0.146283  0  0.996131  0  0  0.148966  0  0.994839  0  0  0.12407  0.144285  0  0.99726  0
H  H9  1  0.82412737  0.38601833  0.31402682  1  0  0.135809  0  0.934959  0  0  0.146251  0  0.996156  0  0  0.148935  0  0.994862  0  0  0.124051  0.144253  0  0.997286  0
H  H10  1  0.99653759  0.65266803  0.90613480  1  0  0.151257  0  0.95452  0  0  0.160787  0  1.01307  0  0  0.163885  0  1.012104  0  0  0.127592  0.158497  0  1.013974  0
H  H11  1  0.00346289  0.34733373  0.09386579  1  0  0.151263  0  0.954469  0  0  0.160771  0  1.01305  0  0  0.163867  0  1.012084  0  0  0.127567  0.158481  0  1.013954  0
H  H12  1  0.64099652  0.64429594  0.88837969  1  0  0.150362  0  0.938981  0  0  0.161667  0  0.995425  0  0  0.164637  0  0.994101  0  0  0.128959  0.15944  0  0.996611  0
H  H13  1  0.35900418  0.35570455  0.11162318  1  0  0.150373  0  0.938956  0  0  0.161679  0  0.995392  0  0  0.164649  0  0.994069  0  0  0.128965  0.159453  0  0.996578  0
H  H14  1  0.66345987  0.85046856  0.95269853  1  0  0.148735  0  0.930716  0  0  0.160237  0  0.988013  0  0  0.163144  0  0.986851  0  0  0.12674  0.158107  0  0.988975  0
H  H15  1  0.33654039  0.14953448  0.04730213  1  0  0.148726  0  0.93076  0  0  0.160222  0  0.988053  0  0  0.163127  0  0.986899  0  0  0.126733  0.158093  0  0.989016  0
H  H16  1  0.13295987  0.89106228  0.59638726  1  0  0.115495  0  0.945291  0  0  0.131689  0  1.012402  0  0  0.133296  0  1.011172  0  0  0.109091  0.130425  0  1.013412  0
H  H17  1  0.86704129  0.10893564  0.40360960  1  0  0.115497  0  0.945234  0  0  0.131697  0  1.012338  0  0  0.133304  0  1.011109  0  0  0.109099  0.130436  0  1.013342  0
H  H18  1  0.88787994  0.00702713  0.66950337  1  0  0.127278  0  0.953895  0  0  0.14249  0  1.017185  0  0  0.14439  0  1.016558  0  0  0.111668  0.141055  0  1.017697  0
H  H19  1  0.11212100  0.99297207  0.33049356  1  0  0.127265  0  0.95393  0  0  0.142487  0  1.017209  0  0  0.144387  0  1.016581  0  0  0.111658  0.141051  0  1.017721  0
H  H20  1  0.98298349  0.94436509  0.82451024  1  0  0.13629  0  0.921734  0  0  0.153383  0  0.981484  0  0  0.155455  0  0.980523  0  0  0.116209  0.151785  0  0.982345  0
H  H21  1  0.01701722  0.05563538  0.17548675  1  0  0.136286  0  0.921788  0  0  0.153387  0  0.981525  0  0  0.155459  0  0.980565  0  0  0.116216  0.151788  0  0.982386  0
H  H22  1  0.44879936  0.46964314  0.35198508  1  0  0.439451  0  0.865206  0  0  0.407693  0  0.929254  0  0  0.418128  0  0.914224  0  0  0.291947  0.400332  0  0.939848  0
H  H23  1  0.55119932  0.53035221  0.64801510  1  0  0.439495  0  0.865137  0  0  0.407746  0  0.929173  0  0  0.418181  0  0.914142  0  0  0.291978  0.400388  0  0.939762  0
H  H24  1  0.28702447  0.62457527  0.34599611  1  0  0.439953  0  0.864916  0  0  0.405983  0  0.932927  0  0  0.416887  0  0.917263  0  0  0.292548  0.398328  0  0.943894  0
H  H25  1  0.71297646  0.37542393  0.65400434  1  0  0.439954  0  0.864916  0  0  0.405984  0  0.932926  0  0  0.416893  0  0.917255  0  0  0.292554  0.398332  0  0.943889  0
H  H26  1  0.74530515  0.26740692  0.00878994  1  0  0.447241  0  0.860188  0  0  0.41056  0  0.931509  0  0  0.422977  0  0.91415  0  0  0.301892  0.401895  0  0.943575  0
H  H27  1  0.25469556  0.73259356  0.99120941  1  0  0.447228  0  0.860209  0  0  0.41055  0  0.931522  0  0  0.422968  0  0.914163  0  0  0.30189  0.401886  0  0.943588  0
C  C28  1  0.01982804  0.61175212  0.77533268  1  0  -0.351978  0  3.493023  0  0  -0.385049  0  3.732097  0  0  -0.390662  0  3.738124  0  0  -0.072544  -0.381214  0  3.728404  0
C  C29  1  0.98017266  0.38824837  0.22466901  1  0  -0.35197  0  3.492912  0  0  -0.385044  0  3.732034  0  0  -0.39065  0  3.738053  0  0  -0.072514  -0.381207  0  3.728342  0
C  C30  1  0.68430114  0.76886176  0.84075423  1  0  -0.349875  0  3.47902  0  0  -0.382214  0  3.714036  0  0  -0.388311  0  3.72056  0  0  -0.070013  -0.37801  0  3.709945  0
C  C31  1  0.31569809  0.23113871  0.15924685  1  0  -0.349857  0  3.479129  0  0  -0.382181  0  3.714139  0  0  -0.388286  0  3.720671  0  0  -0.069979  -0.377979  0  3.710047  0
C  C32  1  0.98236425  0.90918977  0.70098857  1  0  -0.181895  0  3.475207  0  0  -0.278285  0  3.717673  0  0  -0.276235  0  3.723749  0  0  -0.139851  -0.279415  0  3.713661  0
C  C33  1  0.01763815  0.09080943  0.29900897  1  0  -0.181895  0  3.47527  0  0  -0.278289  0  3.717721  0  0  -0.27624  0  3.723798  0  0  -0.139865  -0.279418  0  3.713709  0
N  N34  1  0.90066162  0.74392559  0.71849046  1  0  0.024622  0  3.384053  0  0  0.108123  0  3.592239  0  0  0.097838  0  3.611973  0  0  -0.342349  0.115117  0  3.578735  0
N  N35  1  0.09934077  0.25607362  0.28150943  1  0  0.024662  0  3.384084  0  0  0.108171  0  3.592229  0  0  0.097885  0  3.611962  0  0  -0.342342  0.115164  0  3.578726  0
O  O36  1  0.42830158  0.59394283  0.32886929  1  0  -0.876927  0  1.893008  0  0  -0.801285  0  2.12411  0  0  -0.824086  0  2.085776  0  0  -0.588678  -0.785164  0  2.150652  0
O  O37  1  0.57169834  0.40605381  0.67113040  1  0  -0.876941  0  1.892973  0  0  -0.801317  0  2.124065  0  0  -0.824116  0  2.085725  0  0  -0.588707  -0.785189  0  2.150585  0
O  O38  1  0.31141519  0.88001879  0.90534592  1  0  -0.813653  0  1.920036  0  0  -0.737745  0  2.15892  0  0  -0.763905  0  2.140855  0  0  -0.368607  -0.719215  0  2.170846  0
O  O39  1  0.68858596  0.11997914  0.09465563  1  0  -0.813657  0  1.919997  0  0  -0.73775  0  2.158893  0  0  -0.763911  0  2.140825  0  0  -0.368615  -0.71922  0  2.170818  0
O  O40  1  0.53979102  0.72854716  0.60574926  1  0  -0.913077  0  2.077513  0  0  -0.813307  0  2.373217  0  0  -0.841323  0  2.345362  0  0  -0.381166  -0.793433  0  2.391844  0
O  O41  1  0.46020530  0.27145329  0.39425177  1  0  -0.913062  0  2.077472  0  0  -0.813302  0  2.373203  0  0  -0.841312  0  2.345331  0  0  -0.381178  -0.793427  0  2.391827  0
O  O42  1  0.57720959  0.03024456  0.66968134  1  0  -0.882977  0  2.030296  0  0  -0.789445  0  2.3363  0  0  -0.81698  0  2.308249  0  0  -0.380768  -0.769967  0  2.355176  0
O  O43  1  0.42279010  0.96975335  0.33031842  1  0  -0.88304  0  2.030355  0  0  -0.789447  0  2.336323  0  0  -0.81698  0  2.308265  0  0  -0.380745  -0.769967  0  2.355198  0
O  O44  1  0.94030036  0.34670915  0.61958399  1  0  -0.843078  0  1.97942  0  0  -0.760504  0  2.22048  0  0  -0.786592  0  2.203296  0  0  -0.366477  -0.742331  0  2.23204  0
O  O45  1  0.05970237  0.65329646  0.38041452  1  0  -0.843058  0  1.979352  0  0  -0.760529  0  2.22046  0  0  -0.78659  0  2.203254  0  0  -0.366457  -0.742341  0  2.232014  0
O  O46  1  0.14757494  0.28155057  0.79273540  1  0  -0.865764  0  2.008269  0  0  -0.770505  0  2.309611  0  0  -0.79823  0  2.282029  0  0  -0.37514  -0.750828  0  2.32808  0
O  O47  1  0.85242352  0.71844605  0.20726368  1  0  -0.865813  0  2.008267  0  0  -0.770524  0  2.309575  0  0  -0.798251  0  2.281999  0  0  -0.375139  -0.750847  0  2.328047  0
O  O48  1  0.78078213  0.38785201  0.95089415  1  0  -0.771797  0  2.026608  0  0  -0.693623  0  2.258009  0  0  -0.717315  0  2.234699  0  0  -0.381872  -0.676941  0  2.273771  0
O  O49  1  0.21921880  0.61214719  0.04910512  1  0  -0.7718  0  2.026631  0  0  -0.693637  0  2.258036  0  0  -0.717329  0  2.23473  0  0  -0.381897  -0.676954  0  2.273799  0
