# generated using pymatgen
data_HgH39C23Br2N3O2
_symmetry_space_group_name_H-M   'P 1'
_cell_length_a   8.76902174
_cell_length_b   11.78302985
_cell_length_c   13.82800000
_cell_angle_alpha   94.57996850
_cell_angle_beta   103.39256868
_cell_angle_gamma   91.66273565
_symmetry_Int_Tables_number   1
_chemical_formula_structural   HgH39C23Br2N3O2
_chemical_formula_sum   'Hg2 H78 C46 Br4 N6 O4'
_cell_volume   1383.83022473
_cell_formula_units_Z   2
loop_
 _symmetry_equiv_pos_site_id
 _symmetry_equiv_pos_as_xyz
  1  'x, y, z'
loop_
 _atom_site_type_symbol
 _atom_site_label
 _atom_site_symmetry_multiplicity
 _atom_site_fract_x
 _atom_site_fract_y
 _atom_site_fract_z
 _atom_site_occupancy
 _atom_site_pbe_bader_charge
 _atom_site_pbe_bader_spin_density
 _atom_site_pbe_cm5_charge
 _atom_site_pbe_ddec_charge
 _atom_site_pbe_ddec_spin_density
 _atom_site_pbe_ddec_sum_bond_order
 _atom_site_pbe_magmom
Hg  Hg0  1  0.16450805  0.45281688  0.62313263  1  0.7016  0  0.450103  0.494983  0  2.650035  0
Hg  Hg1  1  0.83549050  0.54717984  0.37686448  1  0.701606  0  0.450117  0.495028  0  2.650048  0
H  H2  1  0.43717390  0.63520760  0.74364596  1  0.086802  0  0.115868  0.089747  0  1.025638  0
H  H3  1  0.56282013  0.36479167  0.25635066  1  0.086769  0  0.115904  0.089763  0  1.025739  0
H  H4  1  0.66553422  0.80875190  0.54870931  1  0.111191  0  0.111413  0.119398  0  0.992454  0
H  H5  1  0.33446455  0.19124822  0.45129095  1  0.111204  0  0.111401  0.119317  0  0.992433  0
H  H6  1  0.27658824  0.56221568  0.43873624  1  0.089586  0  0.109585  0.082548  0  1.014718  0
H  H7  1  0.72341277  0.43778274  0.56126134  1  0.08961  0  0.109598  0.082604  0  1.014671  0
H  H8  1  0.33452993  0.96112890  0.35944311  1  0.107417  0  0.11132  0.109936  0  1.023698  0
H  H9  1  0.66547470  0.03887123  0.64055584  1  0.107334  0  0.111322  0.109963  0  1.023615  0
H  H10  1  0.37638004  0.88419197  0.46674302  1  0.034709  0  0.10099  0.080553  0  1.016202  0
H  H11  1  0.62362103  0.11580730  0.53325679  1  0.034663  0  0.101008  0.080548  0  1.016162  0
H  H12  1  0.15445293  0.74501727  0.38970282  1  0.018895  0  0.079179  0.034333  0  1.006608  0
H  H13  1  0.84555159  0.25498115  0.61029311  1  0.019266  0  0.079184  0.034344  0  1.006645  0
H  H14  1  0.12040734  0.91187433  0.50303321  1  0.03997  0  0.083192  0.114002  0  1.03673  0
H  H15  1  0.87959678  0.08811812  0.49696659  1  0.039962  0  0.083193  0.11398  0  1.036743  0
H  H16  1  0.94499516  0.87568311  0.41129365  1  0.031757  0  0.081835  0.115292  0  1.031983  0
H  H17  1  0.05500907  0.12431105  0.58870556  1  0.03181  0  0.081806  0.115241  0  1.032026  0
H  H18  1  0.06642971  0.99504160  0.39965721  1  0.027503  0  0.085987  0.119964  0  1.00255  0
H  H19  1  0.93357118  0.00495512  0.60034458  1  0.027415  0  0.086018  0.119977  0  1.002625  0
H  H20  1  0.13829608  0.76182615  0.20909962  1  0.017184  0  0.083672  0.112083  0  1.040458  0
H  H21  1  0.86170509  0.23817483  0.79089743  1  0.017157  0  0.083697  0.112118  0  1.040449  0
H  H22  1  0.07942739  0.90472934  0.22185901  1  0.024693  0  0.084573  0.117067  0  1.020944  0
H  H23  1  0.92057384  0.09527249  0.77813956  1  0.025173  0  0.084554  0.117011  0  1.020977  0
H  H24  1  0.95608731  0.78782924  0.23813190  1  0.054333  0  0.078686  0.111258  0  1.044527  0
H  H25  1  0.04391738  0.21217174  0.76186712  1  0.054278  0  0.078679  0.111251  0  1.044493  0
H  H26  1  0.37027037  0.89409881  0.21225154  1  0.056849  0  0.113209  0.101719  0  0.993662  0
H  H27  1  0.62973181  0.10589962  0.78774910  1  0.056794  0  0.113175  0.101635  0  0.9937  0
H  H28  1  0.43012022  0.75305474  0.18903309  1  0.061904  0  0.105356  0.08259  0  1.020259  0
H  H29  1  0.56988418  0.24694197  0.81096704  1  0.061949  0  0.105342  0.082504  0  1.020249  0
H  H30  1  0.70249940  0.81136457  0.27601753  1  0.033979  0  0.087107  0.049071  0  0.987838  0
H  H31  1  0.29750395  0.18863385  0.72398690  1  0.03405  0  0.087092  0.049023  0  0.98781  0
H  H32  1  0.61121905  0.81858969  0.09209569  1  0.027289  0  0.084276  0.11261  0  1.030547  0
H  H33  1  0.38878998  0.18140618  0.90790796  1  0.027302  0  0.084325  0.112647  0  1.030572  0
H  H34  1  0.75873047  0.92739435  0.14361811  1  -0.001024  0  0.084906  0.113191  0  1.033267  0
H  H35  1  0.24127751  0.07260322  0.85638550  1  -0.000945  0  0.084864  0.113168  0  1.033339  0
H  H36  1  0.55893596  0.96241179  0.11018561  1  0.014829  0  0.085689  0.116885  0  1.000519  0
H  H37  1  0.44107085  0.03758578  0.88981421  1  0.014708  0  0.085686  0.116853  0  1.000509  0
H  H38  1  0.65459622  0.97032737  0.39442214  1  0.019256  0  0.080592  0.107689  0  1.028218  0
H  H39  1  0.34540478  0.02967105  0.60558050  1  0.019246  0  0.080564  0.107655  0  1.028348  0
H  H40  1  0.57923584  0.05217240  0.29331874  1  0.036033  0  0.080965  0.11692  0  1.041168  0
H  H41  1  0.42076622  0.94782432  0.70668394  1  0.035985  0  0.080974  0.116943  0  1.04111  0
H  H42  1  0.78129787  0.01952384  0.32215364  1  0.032259  0  0.083975  0.114144  0  1.038716  0
H  H43  1  0.21870436  0.98047543  0.67784924  1  0.032279  0  0.083966  0.114141  0  1.038667  0
H  H44  1  0.89623148  0.59182877  0.80970582  1  0.051988  0  0.08913  0.070089  0  1.051925  0
H  H45  1  0.10376155  0.40817306  0.19029589  1  0.051897  0  0.089146  0.070112  0  1.051917  0
H  H46  1  0.69275533  0.57625079  0.75780557  1  0.06204  0  0.104499  0.088273  0  1.015918  0
H  H47  1  0.30724016  0.42375275  0.24219516  1  0.062033  0  0.10453  0.088306  0  1.015906  0
H  H48  1  0.85465895  0.61079257  0.98003883  1  0.007906  0  0.088107  0.048854  0  0.982476  0
H  H49  1  0.14533771  0.38921096  0.01996353  1  0.007908  0  0.088107  0.048859  0  0.982461  0
H  H50  1  0.59740312  0.59319776  0.01755359  1  0.021449  0  0.081019  0.122857  0  1.031987  0
H  H51  1  0.40259120  0.40680578  0.98244770  1  0.021497  0  0.081  0.122843  0  1.032074  0
H  H52  1  0.50106283  0.56851166  0.88965852  1  0.012956  0  0.074882  0.108371  0  1.056579  0
H  H53  1  0.49893148  0.43149188  0.11034349  1  0.012931  0  0.074895  0.108381  0  1.056633  0
H  H54  1  0.59023457  0.70531067  0.93840655  1  -0.017847  0  0.079984  0.10508  0  1.034233  0
H  H55  1  0.40975858  0.29469287  0.06159456  1  -0.018076  0  0.079999  0.105131  0  1.034247  0
H  H56  1  0.74930152  0.41150091  0.98017257  1  0.026301  0  0.081248  0.121571  0  1.01948  0
H  H57  1  0.25068799  0.58850092  0.01982862  1  0.026309  0  0.081245  0.121566  0  1.019519  0
H  H58  1  0.87749156  0.41899454  0.89763257  1  0.00213  0  0.078939  0.109481  0  1.036961  0
H  H59  1  0.12249901  0.58100559  0.10236938  1  0.001989  0  0.078926  0.109494  0  1.036968  0
H  H60  1  0.67031656  0.40740759  0.84922252  1  0.037738  0  0.083132  0.119425  0  1.033536  0
H  H61  1  0.32967669  0.59259766  0.15077945  1  0.037761  0  0.08311  0.119431  0  1.033521  0
H  H62  1  0.86096527  0.79426928  0.96973497  1  0.063595  0  0.104883  0.082298  0  0.989997  0
H  H63  1  0.13903362  0.20573255  0.03026470  1  0.063601  0  0.104902  0.082329  0  0.989974  0
H  H64  1  0.86099982  0.90065904  0.88550155  1  0.084981  0  0.109697  0.092347  0  1.017327  0
H  H65  1  0.13899907  0.09934280  0.11449885  1  0.085031  0  0.109668  0.092337  0  1.017362  0
H  H66  1  0.08127807  0.70184899  0.91350515  1  0.043786  0  0.086156  0.046591  0  1.003598  0
H  H67  1  0.91871842  0.29815199  0.08649339  1  0.04381  0  0.086142  0.046595  0  1.003558  0
H  H68  1  0.22165208  0.79915706  0.80306606  1  0.012187  0  0.082256  0.116056  0  1.009356  0
H  H69  1  0.77834675  0.20084392  0.19693354  1  0.012161  0  0.082261  0.116069  0  1.009336  0
H  H70  1  0.07460584  0.90139212  0.78311856  1  0.016367  0  0.083452  0.112951  0  1.026185  0
H  H71  1  0.92539305  0.09860971  0.21688111  1  0.016402  0  0.083476  0.112983  0  1.026179  0
H  H72  1  0.02706907  0.75635532  0.73857965  1  0.0293  0  0.07029  0.112773  0  1.060936  0
H  H73  1  0.97293223  0.24364737  0.26141754  1  0.029244  0  0.070293  0.112789  0  1.060948  0
H  H74  1  0.13409350  0.85185540  0.05806989  1  0.014003  0  0.085325  0.11381  0  1.037255  0
H  H75  1  0.86590293  0.14814473  0.94192713  1  0.013967  0  0.085323  0.113786  0  1.037226  0
H  H76  1  0.14677218  0.95784793  0.97546560  1  0.018714  0  0.084643  0.112414  0  1.024193  0
H  H77  1  0.85322666  0.04215305  0.02453545  1  0.01875  0  0.084654  0.112401  0  1.024138  0
H  H78  1  0.28681255  0.85114022  0.99327051  1  0.016341  0  0.0877  0.120927  0  1.007546  0
H  H79  1  0.71318634  0.14886161  0.00672916  1  0.016311  0  0.08769  0.12089  0  1.007543  0
C  C80  1  0.45319046  0.65161158  0.67000807  1  0.551276  0  0.050966  0.055841  0  3.909526  0
C  C81  1  0.54681066  0.34838854  0.32999109  1  0.551287  0  0.050916  0.05571  0  3.9097  0
C  C82  1  0.57281180  0.72644814  0.65796473  1  0.007923  0  0.000296  -0.0362  0  3.966506  0
C  C83  1  0.42718597  0.27355454  0.34203484  1  0.007905  0  0.000351  -0.036038  0  3.966447  0
C  C84  1  0.57801082  0.74714491  0.56051194  1  -0.055595  0  -0.058697  -0.086517  0  3.923567  0
C  C85  1  0.42199259  0.25285436  0.43948749  1  -0.055657  0  -0.058684  -0.086395  0  3.923414  0
C  C86  1  0.47189280  0.68895698  0.47948188  1  -0.012197  0  -0.00282  -0.040709  0  3.980589  0
C  C87  1  0.52810827  0.31104229  0.52051794  1  -0.012122  0  -0.002847  -0.040801  0  3.980633  0
C  C88  1  0.36096105  0.61194334  0.49889440  1  0.518031  0  0.050442  0.058466  0  3.924555  0
C  C89  1  0.63904001  0.38805593  0.50110469  1  0.518012  0  0.050386  0.058371  0  3.924514  0
C  C90  1  0.48273711  0.70622617  0.37454870  1  1.391885  0  0.239473  0.415811  0  4.114294  0
C  C91  1  0.51726401  0.29377396  0.62545190  1  1.391897  0  0.239509  0.415905  0  4.114298  0
C  C92  1  0.32797200  0.87602920  0.38567117  1  0.27279  0  -0.067726  -0.124683  0  3.872359  0
C  C93  1  0.67203024  0.12397008  0.61432809  1  0.272878  0  -0.067737  -0.124652  0  3.872149  0
C  C94  1  0.15606686  0.83089012  0.36314902  1  0.040037  0  -0.095267  0.109575  0  3.884882  0
C  C95  1  0.84393543  0.16911001  0.63684814  1  0.038841  0  -0.095275  0.109466  0  3.885068  0
C  C96  1  0.06714516  0.90772816  0.42270043  1  -0.097078  0  -0.248626  -0.399021  0  3.932013  0
C  C97  1  0.93285913  0.09226685  0.57729957  1  -0.096327  0  -0.248602  -0.398888  0  3.931988  0
C  C98  1  0.07829116  0.82088100  0.25160525  1  -0.100562  0  -0.252039  -0.405462  0  3.922061  0
C  C99  1  0.92171236  0.17911998  0.74839215  1  -0.100899  0  -0.252049  -0.405436  0  3.922143  0
C  C100  1  0.45424835  0.83053210  0.24075810  1  0.306403  0  -0.061712  -0.103569  0  3.853454  0
C  C101  1  0.54575617  0.16946632  0.75924144  1  0.306337  0  -0.06168  -0.103423  0  3.853343  0
C  C102  1  0.62177466  0.87750644  0.24743870  1  0.04116  0  -0.092805  0.105121  0  3.876242  0
C  C103  1  0.37822987  0.12249198  0.75256302  1  0.04146  0  -0.092772  0.105255  0  3.876275  0
C  C104  1  0.63851608  0.89737466  0.14232133  1  -0.055927  0  -0.244446  -0.392719  0  3.923974  0
C  C105  1  0.36149073  0.10262291  0.85767994  1  -0.056206  0  -0.24447  -0.392748  0  3.924074  0
C  C106  1  0.66174106  0.98615682  0.31825172  1  -0.096205  0  -0.252192  -0.403039  0  3.927717  0
C  C107  1  0.33826112  0.01384160  0.68175181  1  -0.096141  0  -0.252147  -0.40303  0  3.927819  0
C  C108  1  0.68689483  0.79491627  0.74222015  1  1.392241  0  0.238179  0.404474  0  4.131177  0
C  C109  1  0.31310792  0.20509068  0.25777900  1  1.392143  0  0.238155  0.40442  0  4.130962  0
C  C110  1  0.78137202  0.61776367  0.82092082  1  0.290949  0  -0.0646  -0.107332  0  3.876698  0
C  C111  1  0.21862224  0.38223902  0.17907968  1  0.290976  0  -0.064627  -0.107376  0  3.876635  0
C  C112  1  0.75668392  0.57544525  0.91861387  1  0.034132  0  -0.09648  0.103638  0  3.880681  0
C  C113  1  0.24331051  0.42455999  0.08138755  1  0.034237  0  -0.096451  0.10372  0  3.880581  0
C  C114  1  0.60280602  0.61305916  0.94216676  1  -0.029333  0  -0.254978  -0.40683  0  3.930803  0
C  C115  1  0.39718947  0.38694438  0.05783325  1  -0.029096  0  -0.255013  -0.406926  0  3.930919  0
C  C116  1  0.76455423  0.44567104  0.91121536  1  -0.041704  0  -0.24795  -0.390368  0  3.896227  0
C  C117  1  0.23544009  0.55433250  0.08878737  1  -0.041694  0  -0.247923  -0.390402  0  3.896231  0
C  C118  1  0.88567569  0.81153079  0.89761032  1  0.247889  0  -0.062543  -0.102638  0  3.865602  0
C  C119  1  0.11432326  0.18847189  0.10239015  1  0.247926  0  -0.06251  -0.102582  0  3.865525  0
C  C120  1  0.05869437  0.79144180  0.89981817  1  0.014553  0  -0.092897  0.100149  0  3.886226  0
C  C121  1  0.94130218  0.20856003  0.10018116  1  0.014373  0  -0.092889  0.100139  0  3.8862  0
C  C122  1  0.09756416  0.81318193  0.80063630  1  -0.052825  0  -0.252105  -0.396969  0  3.928835  0
C  C123  1  0.90243350  0.18681905  0.19936313  1  -0.052774  0  -0.252137  -0.397051  0  3.928872  0
C  C124  1  0.16215590  0.86710861  0.98664806  1  -0.050812  0  -0.244291  -0.39234  0  3.92227  0
C  C125  1  0.83784176  0.13289236  0.01335065  1  -0.05069  0  -0.244265  -0.392229  0  3.922156  0
Br  Br126  1  0.06568465  0.34970468  0.45095039  1  -0.401553  0  -0.188764  -0.319873  0  1.460514  0
Br  Br127  1  0.93431267  0.65029118  0.54904648  1  -0.401579  0  -0.188777  -0.319889  0  1.460514  0
Br  Br128  1  0.17265010  0.47840655  0.80544201  1  -0.397272  0  -0.178777  -0.30863  0  1.351052  0
Br  Br129  1  0.82734159  0.52159273  0.19455426  1  -0.397284  0  -0.178775  -0.308638  0  1.351042  0
N  N130  1  0.35072793  0.59636621  0.59204448  1  -1.21164  0  -0.308868  -0.180692  0  3.547037  0
N  N131  1  0.64927554  0.40363392  0.40795430  1  -1.211682  0  -0.308821  -0.180597  0  3.54701  0
N  N132  1  0.42745941  0.80334670  0.33754585  1  -1.179185  0  -0.268215  -0.088176  0  3.618797  0
N  N133  1  0.57254388  0.19665086  0.66245346  1  -1.179193  0  -0.268264  -0.088252  0  3.618778  0
N  N134  1  0.77437344  0.74160588  0.81807412  1  -1.171973  0  -0.272856  -0.096112  0  3.621125  0
N  N135  1  0.22562774  0.25839510  0.18192728  1  -1.172049  0  -0.272858  -0.096138  0  3.621188  0
O  O136  1  0.54541456  0.63371842  0.32699756  1  -1.135704  0  -0.307273  -0.497284  0  2.237586  0
O  O137  1  0.45458387  0.36627659  0.67300013  1  -1.135646  0  -0.307279  -0.497295  0  2.237671  0
O  O138  1  0.69734032  0.90026522  0.73751639  1  -1.15062  0  -0.300255  -0.494095  0  2.18243  0
O  O139  1  0.30266040  0.09972894  0.26248230  1  -1.15041  0  -0.300297  -0.494181  0  2.181921  0
