# generated using pymatgen
data_H10PbC12N4Cl2O
_symmetry_space_group_name_H-M   'P 1'
_cell_length_a   8.12907526
_cell_length_b   9.32798037
_cell_length_c   10.88763967
_cell_angle_alpha   98.42080917
_cell_angle_beta   106.08251417
_cell_angle_gamma   85.60560399
_symmetry_Int_Tables_number   1
_chemical_formula_structural   H10PbC12N4Cl2O
_chemical_formula_sum   'H20 Pb2 C24 N8 Cl4 O2'
_cell_volume   784.15912903
_cell_formula_units_Z   2
loop_
 _symmetry_equiv_pos_site_id
 _symmetry_equiv_pos_as_xyz
  1  'x, y, z'
loop_
 _atom_site_type_symbol
 _atom_site_label
 _atom_site_symmetry_multiplicity
 _atom_site_fract_x
 _atom_site_fract_y
 _atom_site_fract_z
 _atom_site_occupancy
 _atom_site_hle17_bader_spin_density
 _atom_site_hle17_ddec_charge
 _atom_site_hle17_ddec_spin_density
 _atom_site_hle17_ddec_sum_bond_order
 _atom_site_hle17_magmom
 _atom_site_hse06_10hf_bader_spin_density
 _atom_site_hse06_10hf_ddec_charge
 _atom_site_hse06_10hf_ddec_spin_density
 _atom_site_hse06_10hf_ddec_sum_bond_order
 _atom_site_hse06_10hf_magmom
 _atom_site_hse06_bader_spin_density
 _atom_site_hse06_ddec_charge
 _atom_site_hse06_ddec_spin_density
 _atom_site_hse06_ddec_sum_bond_order
 _atom_site_hse06_magmom
 _atom_site_pbe_bader_spin_density
 _atom_site_pbe_cm5_charge
 _atom_site_pbe_ddec_charge
 _atom_site_pbe_ddec_spin_density
 _atom_site_pbe_ddec_sum_bond_order
 _atom_site_pbe_magmom
H  H0  1  0.93446825  0.52411125  0.19482175  1  0  0.276125  0  0.877389  0  0  0.263885  0  0.933681  0  0  0.270648  0  0.929411  0  0  0.328731  0.259011  0  0.936649  0
H  H1  1  0.06550772  0.47584402  0.80515272  1  0  0.276321  0  0.877192  0  0  0.264018  0  0.933516  0  0  0.270807  0  0.92924  0  0  0.328883  0.259143  0  0.936481  0
H  H2  1  0.81599434  0.65525626  0.03266246  1  0  0.092097  0  0.941527  0  0  0.101812  0  1.00577  0  0  0.105599  0  1.000804  0  0  0.108835  0.098932  0  1.009453  0
H  H3  1  0.18397580  0.34469974  0.96729515  1  0  0.091959  0  0.941815  0  0  0.101605  0  1.006067  0  0  0.105423  0  1.001066  0  0  0.108842  0.098735  0  1.009739  0
H  H4  1  0.87839382  0.41164459  0.32488756  1  0  0.097512  0  0.925228  0  0  0.113081  0  0.976997  0  0  0.115741  0  0.974947  0  0  0.114082  0.110983  0  0.978707  0
H  H5  1  0.12159885  0.58833531  0.67516392  1  0  0.097422  0  0.92565  0  0  0.112974  0  0.977401  0  0  0.115632  0  0.975351  0  0  0.114073  0.110863  0  0.979143  0
H  H6  1  0.86632498  0.23938300  0.47399948  1  0  0.116677  0  0.986511  0  0  0.124553  0  1.048287  0  0  0.128311  0  1.046961  0  0  0.093001  0.121811  0  1.049336  0
H  H7  1  0.13374239  0.76058427  0.52605556  1  0  0.116705  0  0.986675  0  0  0.12458  0  1.048458  0  0  0.128332  0  1.04714  0  0  0.093044  0.12184  0  1.0495  0
H  H8  1  0.14272822  0.15199110  0.62102714  1  0  0.076305  0  0.95551  0  0  0.080983  0  1.028735  0  0  0.083848  0  1.025252  0  0  0.108008  0.078688  0  1.031425  0
H  H9  1  0.85738030  0.84801142  0.37900300  1  0  0.076147  0  0.955483  0  0  0.080875  0  1.028697  0  0  0.083748  0  1.025197  0  0  0.107993  0.078569  0  1.031401  0
H  H10  1  0.43153402  0.38325306  0.46554260  1  0  0.09643  0  0.945777  0  0  0.09934  0  1.01707  0  0  0.103258  0  1.012202  0  0  0.118248  0.096404  0  1.020825  0
H  H11  1  0.56846503  0.61680238  0.53445265  1  0  0.096665  0  0.945696  0  0  0.099455  0  1.017023  0  0  0.103372  0  1.012159  0  0  0.118259  0.096528  0  1.020758  0
H  H12  1  0.24294962  0.75841486  0.99171434  1  0  0.100906  0  0.979016  0  0  0.106432  0  1.048916  0  0  0.109705  0  1.045845  0  0  0.097665  0.103974  0  1.051073  0
H  H13  1  0.75702932  0.24156503  0.00828902  1  0  0.10093  0  0.979087  0  0  0.106398  0  1.049006  0  0  0.109696  0  1.045903  0  0  0.097623  0.103938  0  1.051166  0
H  H14  1  0.25880056  0.92524239  0.83432543  1  0  0.118838  0  0.953932  0  0  0.122744  0  1.020534  0  0  0.126362  0  1.01904  0  0  0.100592  0.12037  0  1.021198  0
H  H15  1  0.74120265  0.07473567  0.16568503  1  0  0.118719  0  0.954123  0  0  0.122636  0  1.02075  0  0  0.126275  0  1.019234  0  0  0.100585  0.12028  0  1.021375  0
H  H16  1  0.98679882  0.03860583  0.71006701  1  0  0.06218  0  0.940056  0  0  0.072148  0  1.006388  0  0  0.074002  0  1.00477  0  0  0.108774  0.07079  0  1.007653  0
H  H17  1  0.01320908  0.96136800  0.28992018  1  0  0.062191  0  0.940279  0  0  0.072219  0  1.006515  0  0  0.074073  0  1.004896  0  0  0.108764  0.07086  0  1.007781  0
H  H18  1  0.69202471  0.83537983  0.88377454  1  0  0.092161  0  0.922818  0  0  0.097841  0  0.989572  0  0  0.100769  0  0.987129  0  0  0.114782  0.096268  0  0.990312  0
H  H19  1  0.30795702  0.16459092  0.11618624  1  0  0.092043  0  0.922761  0  0  0.097747  0  0.989486  0  0  0.100676  0  0.987046  0  0  0.114772  0.09616  0  0.99026  0
Pb  Pb20  1  0.42266623  0.85222330  0.31180871  1  0  1.122413  0  1.651469  0  0  0.927036  0  2.098294  0  0  0.98237  0  2.055659  0  0  0.492459  0.887591  0  2.127655  0
Pb  Pb21  1  0.57735787  0.14781108  0.68816891  1  0  1.122224  0  1.65174  0  0  0.92686  0  2.098543  0  0  0.982165  0  2.055974  0  0  0.492433  0.887422  0  2.127888  0
C  C22  1  0.19110366  0.51843479  0.30295740  1  0  0.51847  0  3.851718  0  0  0.468556  0  4.140182  0  0  0.49858  0  4.141696  0  0  0.245162  0.44865  0  4.137725  0
C  C23  1  0.80885300  0.48160385  0.69706433  1  0  0.517892  0  3.852056  0  0  0.467789  0  4.1407  0  0  0.497858  0  4.142204  0  0  0.245015  0.447883  0  4.138237  0
C  C24  1  0.94537918  0.69025128  0.04098781  1  0  0.06512  0  3.67732  0  0  0.021273  0  3.952038  0  0  0.029812  0  3.964617  0  0  0.060187  0.016014  0  3.943391  0
C  C25  1  0.05458643  0.30972940  0.95899149  1  0  0.064883  0  3.677152  0  0  0.021261  0  3.951723  0  0  0.029783  0  3.96428  0  0  0.060045  0.015996  0  3.94308  0
C  C26  1  0.15843281  0.41278423  0.38299738  1  0  -0.120853  0  3.765799  0  0  -0.096168  0  4.005683  0  0  -0.10861  0  4.030183  0  0  -0.013696  -0.088656  0  3.989551  0
C  C27  1  0.84155863  0.58723462  0.61702373  1  0  -0.120621  0  3.766318  0  0  -0.095949  0  4.006258  0  0  -0.108395  0  4.030754  0  0  -0.01361  -0.088441  0  3.990135  0
C  C28  1  0.99801100  0.37075190  0.38587582  1  0  -0.016167  0  3.711227  0  0  -0.047053  0  3.963703  0  0  -0.041153  0  3.981887  0  0  -0.061933  -0.050434  0  3.951214  0
C  C29  1  0.00199915  0.62923858  0.61415859  1  0  -0.016228  0  3.712324  0  0  -0.047072  0  3.964765  0  0  -0.041165  0  3.982951  0  0  -0.062081  -0.050461  0  3.952272  0
C  C30  1  0.98949662  0.27602490  0.47159353  1  0  -0.126262  0  3.730051  0  0  -0.136086  0  3.983136  0  0  -0.145026  0  4.004697  0  0  -0.089074  -0.129853  0  3.967343  0
C  C31  1  0.01055581  0.72395873  0.52844877  1  0  -0.126367  0  3.730814  0  0  -0.136176  0  3.983905  0  0  -0.145121  0  4.005474  0  0  -0.088911  -0.129937  0  3.968102  0
C  C32  1  0.14112056  0.22603030  0.55180798  1  0  0.132335  0  3.707538  0  0  0.095694  0  3.967338  0  0  0.104502  0  3.984767  0  0  0.050285  0.090174  0  3.954611  0
C  C33  1  0.85895951  0.77397125  0.44822302  1  0  0.13288  0  3.707891  0  0  0.096102  0  3.967818  0  0  0.104908  0  3.98525  0  0  0.050197  0.090589  0  3.955082  0
C  C34  1  0.30443427  0.35487369  0.46634444  1  0  0.149675  0  3.646805  0  0  0.109258  0  3.89361  0  0  0.11928  0  3.908848  0  0  0.067  0.102099  0  3.884263  0
C  C35  1  0.69558252  0.64515529  0.53365581  1  0  0.149327  0  3.647205  0  0  0.109095  0  3.893895  0  0  0.119112  0  3.909142  0  0  0.066979  0.101935  0  3.884552  0
C  C36  1  0.96520267  0.78322784  0.94992430  1  0  -0.011189  0  3.812152  0  0  0.012178  0  4.054371  0  0  0.005617  0  4.07969  0  0  -0.0131  0.01628  0  4.037282  0
C  C37  1  0.03477069  0.21675360  0.05005498  1  0  -0.010699  0  3.81176  0  0  0.012505  0  4.053991  0  0  0.005954  0  4.079298  0  0  -0.013099  0.016609  0  4.036898  0
C  C38  1  0.12665219  0.80940270  0.93523795  1  0  -0.04885  0  3.67287  0  0  -0.076022  0  3.918753  0  0  -0.073094  0  3.93724  0  0  -0.067347  -0.077088  0  3.905849  0
C  C39  1  0.87333071  0.19058346  0.06476417  1  0  -0.049337  0  3.672525  0  0  -0.07637  0  3.918398  0  0  -0.07349  0  3.936929  0  0  -0.067387  -0.077444  0  3.905513  0
C  C40  1  0.13658806  0.90151394  0.84846589  1  0  -0.10814  0  3.721476  0  0  -0.117891  0  3.973726  0  0  -0.12534  0  3.995612  0  0  -0.082695  -0.113281  0  3.959211  0
C  C41  1  0.86340896  0.09846194  0.15153653  1  0  -0.107624  0  3.721068  0  0  -0.117441  0  3.973273  0  0  -0.124908  0  3.995142  0  0  -0.082587  -0.112839  0  3.958783  0
C  C42  1  0.98476524  0.96518167  0.77910924  1  0  0.128928  0  3.736089  0  0  0.095593  0  3.996546  0  0  0.102304  0  4.017005  0  0  0.047147  0.091108  0  3.982578  0
C  C43  1  0.01524000  0.03479451  0.22088034  1  0  0.128674  0  3.736427  0  0  0.095325  0  3.996888  0  0  0.10204  0  4.017355  0  0  0.047051  0.090839  0  3.982925  0
C  C44  1  0.81979547  0.85140356  0.87457333  1  0  0.099399  0  3.669517  0  0  0.06083  0  3.925955  0  0  0.066521  0  3.945493  0  0  0.053458  0.057044  0  3.912505  0
C  C45  1  0.18018475  0.14857072  0.12539390  1  0  0.099525  0  3.669315  0  0  0.060981  0  3.925781  0  0  0.066667  0  3.945327  0  0  0.053628  0.05719  0  3.912321  0
N  N46  1  0.29561406  0.26468676  0.54857701  1  0  -0.31941  0  3.238195  0  0  -0.242053  0  3.49174  0  0  -0.263153  0  3.513332  0  0  -0.295344  -0.227999  0  3.477358  0
N  N47  1  0.70444876  0.73534076  0.45143528  1  0  -0.319609  0  3.238831  0  0  -0.242196  0  3.492283  0  0  -0.263289  0  3.51387  0  0  -0.29526  -0.228143  0  3.477904  0
N  N48  1  0.05324390  0.56394737  0.20970712  1  0  -0.30124  0  3.450311  0  0  -0.250539  0  3.705663  0  0  -0.271805  0  3.721616  0  0  -0.287185  -0.236048  0  3.693354  0
N  N49  1  0.94671345  0.43605476  0.79028995  1  0  -0.301426  0  3.449787  0  0  -0.250474  0  3.704998  0  0  -0.271849  0  3.721035  0  0  -0.2874  -0.235967  0  3.692673  0
N  N50  1  0.07786742  0.65502538  0.13041618  1  0  -0.160491  0  3.112033  0  0  -0.131688  0  3.396909  0  0  -0.13984  0  3.415491  0  0  -0.200951  -0.126058  0  3.383946  0
N  N51  1  0.92208461  0.34498471  0.86958601  1  0  -0.160342  0  3.111526  0  0  -0.131682  0  3.396329  0  0  -0.139803  0  3.414941  0  0  -0.200885  -0.126059  0  3.38337  0
N  N52  1  0.82992804  0.94136739  0.79179870  1  0  -0.347956  0  3.215233  0  0  -0.281994  0  3.481267  0  0  -0.301069  0  3.504423  0  0  -0.309571  -0.268728  0  3.465053  0
N  N53  1  0.17006618  0.05861086  0.20817483  1  0  -0.347959  0  3.215485  0  0  -0.282028  0  3.481528  0  0  -0.301106  0  3.504686  0  0  -0.309628  -0.268758  0  3.465312  0
Cl  Cl54  1  0.61122785  0.09705328  0.39710557  1  0  -0.623544  0  0.837262  0  0  -0.549591  0  1.079237  0  0  -0.571579  0  1.062572  0  0  -0.286869  -0.533974  0  1.089904  0
Cl  Cl55  1  0.38875905  0.90300614  0.60283404  1  0  -0.623527  0  0.837488  0  0  -0.549571  0  1.07948  0  0  -0.571524  0  1.062755  0  0  -0.286801  -0.533964  0  1.090166  0
Cl  Cl56  1  0.57147790  0.78446346  0.11853135  1  0  -0.620953  0  0.739036  0  0  -0.555988  0  0.95666  0  0  -0.573462  0  0.93697  0  0  -0.330622  -0.543084  0  0.969342  0
Cl  Cl57  1  0.42849585  0.21561082  0.88141692  1  0  -0.620844  0  0.739056  0  0  -0.555873  0  0.956651  0  0  -0.573348  0  0.936978  0  0  -0.330601  -0.542971  0  0.96934  0
O  O58  1  0.33688629  0.56323170  0.32103911  1  0  -0.540452  0  1.983072  0  0  -0.488134  0  2.209979  0  0  -0.513066  0  2.204838  0  0  -0.270064  -0.470952  0  2.212972  0
O  O59  1  0.66305957  0.43684257  0.67900125  1  0  -0.539991  0  1.983063  0  0  -0.487621  0  2.210034  0  0  -0.512559  0  2.204907  0  0  -0.269903  -0.470431  0  2.212996  0
