# generated using pymatgen
data_CuH14C15(NO2)2
_symmetry_space_group_name_H-M   'P 1'
_cell_length_a   7.43769411
_cell_length_b   7.87336983
_cell_length_c   12.98043313
_cell_angle_alpha   97.12850084
_cell_angle_beta   98.50843777
_cell_angle_gamma   92.51242609
_symmetry_Int_Tables_number   1
_chemical_formula_structural   CuH14C15(NO2)2
_chemical_formula_sum   'Cu2 H28 C30 N4 O8'
_cell_volume   744.45396313
_cell_formula_units_Z   2
loop_
 _symmetry_equiv_pos_site_id
 _symmetry_equiv_pos_as_xyz
  1  'x, y, z'
loop_
 _atom_site_type_symbol
 _atom_site_label
 _atom_site_symmetry_multiplicity
 _atom_site_fract_x
 _atom_site_fract_y
 _atom_site_fract_z
 _atom_site_occupancy
 _atom_site_hle17_ddec_charge
 _atom_site_hle17_ddec_spin_density
 _atom_site_hle17_ddec_sum_bond_order
 _atom_site_hle17_magmom
 _atom_site_hse06_10hf_ddec_charge
 _atom_site_hse06_10hf_ddec_spin_density
 _atom_site_hse06_10hf_ddec_sum_bond_order
 _atom_site_hse06_10hf_magmom
 _atom_site_hse06_ddec_charge
 _atom_site_hse06_ddec_spin_density
 _atom_site_hse06_ddec_sum_bond_order
 _atom_site_hse06_magmom
 _atom_site_pbe_cm5_charge
 _atom_site_pbe_ddec_charge
 _atom_site_pbe_ddec_spin_density
 _atom_site_pbe_ddec_sum_bond_order
 _atom_site_pbe_magmom
Cu  Cu0  1  0.92645930  0.44268677  0.57397885  1  0.815246  -0.666691  1.933819  -0.478  0.801567  -0.796756  2.346973  -0.629  0.906216  -0.887316  2.261354  -0.729  0.673071  0.736259  -0.695601  2.405601  -0.537
Cu  Cu1  1  0.07353237  0.55730389  0.42601341  1  0.815332  0.666704  1.933775  0.478  0.801654  0.796762  2.347054  0.629  0.90621  0.887319  2.261435  0.729  0.673127  0.736215  0.695573  2.405798  0.537
H  H2  1  0.54366838  0.20459372  0.00098502  1  0.057269  -2.5e-05  0.929561  0.0  0.067873  -4.5e-05  0.996089  0.0  0.071382  -3e-05  0.992272  0.0  0.107167  0.065318  -5.7e-05  0.998937  0.0
H  H3  1  0.45634175  0.79540719  0.99901798  1  0.057192  2.3e-05  0.929589  0.0  0.067829  4.5e-05  0.996101  0.0  0.071338  3e-05  0.992275  0.0  0.107176  0.065274  5.7e-05  0.998948  0.0
H  H4  1  0.32510296  0.35699771  0.09854247  1  0.090132  -2e-05  0.977401  0.0  0.100449  -3.3e-05  1.040746  0.0  0.102317  -2.1e-05  1.041855  0.0  0.097567  0.099138  -4.1e-05  1.040004  0.0
H  H5  1  0.67490309  0.64302127  0.90147152  1  0.090076  2.4e-05  0.977208  0.0  0.100332  3.3e-05  1.040634  0.0  0.10219  2.1e-05  1.041782  0.0  0.097505  0.099021  4.1e-05  1.039892  0.0
H  H6  1  0.53348309  0.36731055  0.59385048  1  0.094232  1.7e-05  0.930983  0.0  0.104612  3.3e-05  0.988352  0.0  0.108004  3.1e-05  0.98575  0.0  0.120862  0.101953  2.9e-05  0.990577  0.0
H  H7  1  0.46652085  0.63264285  0.40614010  1  0.094207  -1.2e-05  0.930986  0.0  0.104487  -3.3e-05  0.988456  0.0  0.107947  -3.1e-05  0.985768  0.0  0.120893  0.101839  -2.9e-05  0.990669  0.0
H  H8  1  0.33583165  0.28132315  0.72247343  1  0.124341  4.2e-05  0.9552  0.0  0.129171  2e-06  1.022365  0.0  0.133997  2.4e-05  1.019317  0.0  0.112104  0.125676  -2e-05  1.024766  0.0
H  H9  1  0.66416806  0.71864696  0.27751955  1  0.124331  -4.3e-05  0.955298  0.0  0.129138  -2e-06  1.022482  0.0  0.133961  -2.4e-05  1.019438  0.0  0.112025  0.125648  2e-05  1.024894  0.0
H  H10  1  0.00592510  0.34106447  0.80252874  1  0.088772  3.9e-05  0.93086  0.0  0.092945  5e-05  0.999284  0.0  0.096983  5.1e-05  0.994961  0.0  0.117297  0.089914  4.2e-05  1.002543  0.0
H  H11  1  0.99407850  0.65894031  0.19747246  1  0.088861  -4e-05  0.930919  0.0  0.092987  -5e-05  0.999373  0.0  0.097023  -5.1e-05  0.995053  0.0  0.117333  0.089964  -4.2e-05  1.002634  0.0
H  H12  1  0.13875634  0.29561328  0.23640910  1  0.105768  -6.5e-05  0.977862  0.0  0.112951  -3.1e-05  1.042644  0.0  0.116073  -4.5e-05  1.040929  0.0  0.101877  0.110628  -1.4e-05  1.044061  0.0
H  H13  1  0.86125606  0.70439928  0.76360725  1  0.105777  7e-05  0.977639  0.0  0.112893  3.1e-05  1.042533  0.0  0.116016  4.5e-05  1.040814  0.0  0.101782  0.110566  1.4e-05  1.043942  0.0
H  H14  1  0.89823990  0.05998185  0.19874051  1  0.101393  -4e-05  0.957048  0.0  0.111851  -1.2e-05  1.01794  0.0  0.115107  -1.4e-05  1.016479  0.0  0.103484  0.109462  -8e-06  1.019149  0.0
H  H15  1  0.10177986  0.94003839  0.80127855  1  0.101486  3.4e-05  0.957171  0.0  0.111927  1.2e-05  1.018061  0.0  0.115186  1.4e-05  1.016598  0.0  0.103504  0.109536  8e-06  1.019278  0.0
H  H16  1  0.82986951  0.26649945  0.94297270  1  0.103142  1.9e-05  0.97077  0.0  0.112284  9e-06  1.032859  0.0  0.115033  8e-06  1.033547  0.0  0.105377  0.11031  9e-06  1.03253  0.0
H  H17  1  0.17013709  0.73350917  0.05702980  1  0.103123  -1.7e-05  0.970827  0.0  0.112278  -9e-06  1.032896  0.0  0.115026  -8e-06  1.033589  0.0  0.105376  0.110312  -9e-06  1.032559  0.0
H  H18  1  0.81171965  0.01926754  0.60166779  1  0.15274  0.000283  0.929026  0.0  0.170168  0.000201  0.987257  0.0  0.171806  0.000148  0.987854  0.0  0.104452  0.168967  0.00022  0.986805  0.0
H  H19  1  0.18829182  0.98073451  0.39831846  1  0.152755  -0.000282  0.929007  0.0  0.170177  -0.000201  0.987233  0.0  0.171819  -0.000148  0.987825  0.0  0.104487  0.168984  -0.00022  0.98678  0.0
H  H20  1  0.59441086  0.91130870  0.55396941  1  0.134975  0.001024  0.956748  0.001  0.152693  0.00069  1.020317  0.001  0.154341  0.000444  1.020743  0.0  0.098092  0.151352  0.000821  1.020021  0.001
H  H21  1  0.40560277  0.08868447  0.44602947  1  0.134819  -0.00102  0.956758  -0.001  0.152517  -0.00069  1.020397  -0.001  0.154177  -0.000444  1.020808  0.0  0.098027  0.151182  -0.000821  1.020101  -0.001
H  H22  1  0.72364237  0.00905762  0.46714041  1  0.140869  -0.001211  0.95122  -0.002  0.158205  -0.000821  1.010714  -0.001  0.160591  -0.000539  1.009984  -0.001  0.094965  0.156267  -0.000969  1.011364  -0.001
H  H23  1  0.27635170  0.99092912  0.53284560  1  0.140787  0.001213  0.951224  0.002  0.158137  0.000822  1.010718  0.001  0.160514  0.000539  1.009998  0.001  0.094931  0.156205  0.000969  1.011366  0.001
H  H24  1  0.60797281  0.10792345  0.28242611  1  0.137962  0.000526  0.935672  0.001  0.15701  0.000372  0.994529  0.0  0.158769  0.000256  0.994757  0.0  0.100277  0.155771  0.000427  0.994221  0.0
H  H25  1  0.39200754  0.89208006  0.71756383  1  0.138013  -0.000526  0.935694  -0.001  0.157041  -0.000372  0.994556  0.0  0.1588  -0.000256  0.994784  0.0  0.100293  0.155801  -0.000427  0.994248  0.0
H  H26  1  0.60445465  0.27508695  0.20092267  1  0.125726  -0.00125  0.956228  -0.002  0.139098  -0.00089  1.024427  -0.001  0.140878  -0.000614  1.023837  -0.001  0.089244  0.137706  -0.001022  1.024808  -0.001
H  H27  1  0.39551763  0.72491788  0.79906669  1  0.125828  0.001252  0.956266  0.002  0.139194  0.00089  1.024443  0.001  0.140976  0.000615  1.02385  0.001  0.089296  0.137802  0.001022  1.02482  0.001
H  H28  1  0.46169794  0.27617952  0.30167481  1  0.148507  0.000767  0.952098  0.001  0.164507  0.000535  1.014789  0.001  0.166979  0.00034  1.014278  0.0  0.101188  0.162671  0.000645  1.015129  0.001
H  H29  1  0.53828952  0.72382788  0.69832370  1  0.148622  -0.000765  0.952004  -0.001  0.164632  -0.000535  1.014662  -0.001  0.167098  -0.000339  1.014158  0.0  0.10123  0.162799  -0.000645  1.014985  -0.001
C  C30  1  0.82367848  0.77339617  0.51637733  1  0.73541  -0.000715  3.808507  -0.001  0.710578  -0.000378  4.098602  -0.001  0.751613  -0.000375  4.091633  -0.001  0.216161  0.682661  -0.000342  4.102801  -0.001
C  C31  1  0.17632290  0.22659703  0.48361745  1  0.735622  0.000714  3.808567  0.001  0.710797  0.000376  4.098656  0.001  0.751867  0.000375  4.091631  0.001  0.216258  0.682863  0.000338  4.102878  0.001
C  C32  1  0.19439527  0.15141088  0.98438712  1  0.154485  -0.000216  3.842946  0.0  0.153036  -8.8e-05  4.094801  0.0  0.155875  -8.9e-05  4.119444  0.0  0.088699  0.151165  -0.000101  4.077992  0.0
C  C33  1  0.80560533  0.84860812  0.01562487  1  0.154548  0.000223  3.842938  0.0  0.153176  9.1e-05  4.094793  0.0  0.156011  8.7e-05  4.119439  0.0  0.088822  0.15131  0.000101  4.07797  0.0
C  C34  1  0.94647087  0.98410310  0.03975830  1  -0.021406  -0.000243  3.788714  0.0  -0.009175  -7.8e-05  4.019912  0.0  -0.010749  -7.1e-05  4.044504  0.0  -0.011192  -0.008086  -9.3e-05  4.003232  0.0
C  C35  1  0.05353254  0.01591716  0.96025325  1  -0.021021  0.000231  3.788155  0.0  -0.008656  7.9e-05  4.019274  0.0  -0.010232  6.9e-05  4.043865  0.0  -0.01101  -0.007565  9.4e-05  4.002597  0.0
C  C36  1  0.56847414  0.26606017  0.84341646  1  0.073474  0.000378  3.813976  0.0  0.091352  0.000277  4.041298  0.0  0.093993  0.000241  4.061492  0.0  0.000844  0.08963  0.000349  4.027717  0.0
C  C37  1  0.43152581  0.73393177  0.15658120  1  0.07374  -0.000397  3.814038  0.0  0.091622  -0.000277  4.041393  0.0  0.094263  -0.00024  4.061586  0.0  0.000874  0.089903  -0.000349  4.02781  0.0
C  C38  1  0.46440962  0.21726877  0.92355078  1  0.118536  -0.000262  3.69614  0.0  0.087405  -0.000123  3.949196  0.0  0.096539  -0.000135  3.958834  0.0  0.082558  0.081107  -0.000115  3.942771  0.0
C  C39  1  0.53559935  0.78273474  0.07645462  1  0.118624  0.00028  3.696129  0.0  0.087417  0.000123  3.949284  0.0  0.096562  0.000132  3.958909  0.0  0.08257  0.081121  0.000115  3.942856  0.0
C  C40  1  0.74377555  0.34525141  0.35980412  1  0.726908  -0.000705  3.819401  -0.001  0.700408  -0.000408  4.111084  -0.001  0.741239  -0.000393  4.104496  -0.001  0.211533  0.672589  -0.00038  4.115076  -0.001
C  C41  1  0.25621132  0.65474825  0.64018762  1  0.726744  0.000711  3.819355  0.001  0.700344  0.000405  4.110893  0.001  0.741173  0.000396  4.104314  0.001  0.21157  0.672518  0.000375  4.114886  0.001
C  C42  1  0.22248483  0.25002487  0.08271789  1  -0.165383  5.7e-05  3.757984  0.0  -0.18317  5.8e-05  4.00358  0.0  -0.188146  7.6e-05  4.027728  0.0  -0.098102  -0.179761  6.2e-05  3.987137  0.0
C  C43  1  0.77752177  0.75000179  0.91729516  1  -0.165307  -7.5e-05  3.757822  0.0  -0.183055  -5.9e-05  4.003391  0.0  -0.188036  -7.5e-05  4.027533  0.0  -0.098102  -0.17965  -6.2e-05  3.986945  0.0
C  C44  1  0.59228808  0.34066741  0.67186437  1  0.127203  0.000471  3.682611  0.0  0.107793  0.000387  3.928445  0.0  0.114365  0.000346  3.94601  0.0  0.049236  0.103508  0.000423  3.917189  0.0
C  C45  1  0.40771166  0.65930273  0.32813246  1  0.127265  -0.000521  3.682528  0.0  0.107943  -0.000386  3.928333  0.0  0.114462  -0.000348  3.945885  0.0  0.049197  0.103658  -0.000423  3.917073  0.0
C  C46  1  0.48365131  0.29414601  0.74328413  1  -0.145223  -0.000295  3.677753  0.0  -0.159934  -0.000156  3.913011  0.0  -0.165317  -0.000153  3.930955  0.0  -0.077048  -0.156629  -0.000172  3.901267  0.0
C  C47  1  0.51635560  0.70582924  0.25671444  1  -0.145322  0.000336  3.677533  0.0  -0.160007  0.000157  3.912721  0.0  -0.165396  0.000154  3.930693  0.0  -0.0769  -0.156707  0.000173  3.900992  0.0
C  C48  1  0.85726725  0.32834721  0.78852083  1  0.133734  0.000548  3.690078  0.001  0.109685  0.000426  3.94688  0.0  0.117378  0.00038  3.962669  0.0  0.051937  0.104733  0.000476  3.936548  0.0
C  C49  1  0.14272889  0.67164859  0.21147602  1  0.13361  -0.00057  3.689791  -0.001  0.10961  -0.000427  3.946607  0.0  0.117299  -0.000381  3.962393  0.0  0.051873  0.104655  -0.000477  3.93628  0.0
C  C50  1  0.11548551  0.21755092  0.15983311  1  -0.051383  -0.000132  3.77506  0.0  -0.062918  -2.4e-05  4.024045  0.0  -0.063822  -6.2e-05  4.045426  0.0  -0.092878  -0.062181  -1e-06  4.009561  0.0
C  C51  1  0.88451665  0.78247065  0.84018151  1  -0.051303  0.000102  3.775041  0.0  -0.062785  2.5e-05  4.023988  0.0  -0.063686  6e-05  4.045366  0.0  -0.092774  -0.062044  2e-06  4.009484  0.0
C  C52  1  0.98022728  0.08667561  0.13905605  1  -0.105531  0.000592  3.739416  0.001  -0.131135  0.000162  3.995025  0.0  -0.134282  0.000125  4.015948  0.0  -0.093901  -0.128996  0.000215  3.980901  0.0
C  C53  1  0.01978111  0.91333821  0.86095544  1  -0.105786  -0.000549  3.739398  -0.001  -0.131396  -0.000163  3.994899  0.0  -0.134546  -0.000121  4.015824  0.0  -0.093918  -0.129257  -0.000215  3.980766  0.0
C  C54  1  0.75897471  0.28564062  0.86602068  1  -0.152806  -0.000311  3.709674  0.0  -0.169658  -0.000126  3.949035  0.0  -0.176217  -0.000154  3.969519  0.0  -0.077991  -0.165424  -0.000101  3.935311  0.0
C  C55  1  0.24103386  0.71435771  0.13397892  1  -0.152856  0.000327  3.709834  0.0  -0.169727  0.000126  3.949223  0.0  -0.17629  0.000154  3.969711  0.0  -0.078007  -0.165492  0.000101  3.935493  0.0
C  C56  1  0.73029121  0.93793270  0.53457645  1  -0.443122  0.000527  3.632557  0.001  -0.521697  0.0003  3.862678  0.0  -0.530976  0.000225  3.866378  0.0  -0.242732  -0.513834  0.000293  3.85936  0.0
C  C57  1  0.26971450  0.06206430  0.46541666  1  -0.442883  -0.000538  3.632424  -0.001  -0.521474  -0.000299  3.862608  0.0  -0.530769  -0.000223  3.866294  0.0  -0.242664  -0.513615  -0.000288  3.859296  0.0
C  C58  1  0.59505192  0.24607044  0.28024438  1  -0.445362  0.000762  3.646916  0.001  -0.522843  0.000517  3.881306  0.001  -0.53191  0.000333  3.884911  0.001  -0.243556  -0.515197  0.000594  3.877903  0.001
C  C59  1  0.40492708  0.75393310  0.71974853  1  -0.445649  -0.000774  3.646977  -0.001  -0.523129  -0.000516  3.881348  -0.001  -0.532195  -0.000336  3.884949  -0.001  -0.243679  -0.515482  -0.000588  3.877947  -0.001
N  N60  1  0.77590311  0.35637722  0.69322174  1  -0.302757  0.00122  3.220819  0.0  -0.25447  0.000746  3.500758  0.0  -0.274744  0.00072  3.516002  0.0  -0.329089  -0.242  0.000732  3.492041  0.0
N  N61  1  0.22409600  0.64360318  0.30677578  1  -0.302859  -0.001189  3.220793  0.0  -0.25457  -0.000746  3.500698  0.0  -0.274822  -0.00072  3.515934  0.0  -0.329128  -0.242085  -0.000733  3.492006  0.0
N  N62  1  0.29077771  0.18698544  0.90438158  1  -0.309784  0.000257  3.129158  0.0  -0.267491  0.00017  3.394845  0.0  -0.280177  0.000163  3.410335  0.0  -0.295395  -0.258734  0.00022  3.384136  0.0
N  N63  1  0.70922579  0.81303610  0.09562929  1  -0.309763  -0.00027  3.129189  0.0  -0.267462  -0.000173  3.394885  0.0  -0.280146  -0.000158  3.410371  0.0  -0.295405  -0.258709  -0.00022  3.384175  0.0
O  O64  1  0.73635730  0.33114733  0.45587235  1  -0.589512  -0.073004  2.071683  -0.096  -0.564448  -0.051059  2.346246  -0.073  -0.608974  -0.040608  2.339213  -0.062  -0.314263  -0.535428  -0.053559  2.351522  -0.074
O  O65  1  0.26362208  0.66886135  0.54412173  1  -0.589338  0.073009  2.07156  0.096  -0.56433  0.051061  2.34614  0.073  -0.608832  0.040608  2.339086  0.062  -0.31423  -0.535287  0.053571  2.351422  0.074
O  O66  1  0.92333431  0.75975042  0.44420348  1  -0.580575  0.080032  2.042122  0.105  -0.556862  0.05448  2.30987  0.079  -0.601951  0.042966  2.302533  0.066  -0.317984  -0.527594  0.057291  2.315229  0.079
O  O67  1  0.07665416  0.24023382  0.55578573  1  -0.580684  -0.080023  2.042304  -0.105  -0.556976  -0.054478  2.310034  -0.079  -0.602115  -0.042966  2.302735  -0.066  -0.318066  -0.527726  -0.057281  2.315394  -0.079
O  O68  1  0.79786102  0.66110548  0.57666560  1  -0.596325  -0.074508  2.073276  -0.098  -0.573757  -0.051457  2.349293  -0.074  -0.618773  -0.04074  2.342002  -0.062  -0.319658  -0.544391  -0.054231  2.354642  -0.075
O  O69  1  0.20215319  0.33889542  0.42333774  1  -0.59647  0.074502  2.073315  0.098  -0.573906  0.051455  2.349366  0.074  -0.618929  0.040736  2.342077  0.062  -0.319689  -0.544511  0.054236  2.354733  0.075
O  O70  1  0.86421702  0.43315798  0.32522171  1  -0.581945  0.078179  2.051358  0.103  -0.558393  0.054153  2.321956  0.078  -0.603694  0.042818  2.315755  0.066  -0.314364  -0.5288  0.056853  2.326539  0.079
O  O71  1  0.13578080  0.56682368  0.67477118  1  -0.581836  -0.078189  2.0512  -0.103  -0.558348  -0.054158  2.321768  -0.078  -0.603671  -0.042821  2.315585  -0.066  -0.314415  -0.52877  -0.056852  2.326336  -0.079
