# generated using pymatgen
data_ZnH8C12(SN)4
_symmetry_space_group_name_H-M   'P 1'
_cell_length_a   8.94736632
_cell_length_b   8.94728105
_cell_length_c   11.16320988
_cell_angle_alpha   81.29377598
_cell_angle_beta   81.29373346
_cell_angle_gamma   64.11516754
_symmetry_Int_Tables_number   1
_chemical_formula_structural   ZnH8C12(SN)4
_chemical_formula_sum   'Zn2 H16 C24 S8 N8'
_cell_volume   791.08035817
_cell_formula_units_Z   2
loop_
 _symmetry_equiv_pos_site_id
 _symmetry_equiv_pos_as_xyz
  1  'x, y, z'
loop_
 _atom_site_type_symbol
 _atom_site_label
 _atom_site_symmetry_multiplicity
 _atom_site_fract_x
 _atom_site_fract_y
 _atom_site_fract_z
 _atom_site_occupancy
 _atom_site_hle17_bader_spin_density
 _atom_site_hle17_ddec_charge
 _atom_site_hle17_ddec_spin_density
 _atom_site_hle17_ddec_sum_bond_order
 _atom_site_hle17_magmom
 _atom_site_hse06_10hf_bader_spin_density
 _atom_site_hse06_10hf_ddec_charge
 _atom_site_hse06_10hf_ddec_spin_density
 _atom_site_hse06_10hf_ddec_sum_bond_order
 _atom_site_hse06_10hf_magmom
 _atom_site_hse06_bader_spin_density
 _atom_site_hse06_ddec_charge
 _atom_site_hse06_ddec_spin_density
 _atom_site_hse06_ddec_sum_bond_order
 _atom_site_hse06_magmom
 _atom_site_pbe_bader_spin_density
 _atom_site_pbe_cm5_charge
 _atom_site_pbe_ddec_charge
 _atom_site_pbe_ddec_spin_density
 _atom_site_pbe_ddec_sum_bond_order
 _atom_site_pbe_magmom
Zn  Zn0  1  0.05730632  0.94270336  0.24999446  1  0  0.974792  0  2.070388  0  0  0.78181  0  2.577053  0  0  0.82182  0  2.528693  0  0  0.75005  0.753619  0  2.611669  0
Zn  Zn1  1  0.94269763  0.05729525  0.75000602  1  0  0.974709  0  2.07024  0  0  0.781757  0  2.576902  0  0  0.821768  0  2.52855  0  0  0.75002  0.753571  0  2.611509  0
H  H2  1  0.02751518  0.77611163  0.05775249  1  0  0.090729  0  0.936603  0  0  0.102647  0  0.992539  0  0  0.104848  0  0.990613  0  0  0.115114  0.101011  0  0.993951  0
H  H3  1  0.22389528  0.97249137  0.44223885  1  0  0.090736  0  0.936501  0  0  0.102616  0  0.992487  0  0  0.104829  0  0.990552  0  0  0.115128  0.10098  0  0.993898  0
H  H4  1  0.97247992  0.22389445  0.94224369  1  0  0.090687  0  0.936556  0  0  0.10259  0  0.992541  0  0  0.104791  0  0.990621  0  0  0.115102  0.100975  0  0.993925  0
H  H5  1  0.77610787  0.02751719  0.55775864  1  0  0.090737  0  0.936616  0  0  0.102614  0  0.992613  0  0  0.104814  0  0.990695  0  0  0.115112  0.100992  0  0.994006  0
H  H6  1  0.20232750  0.61787739  0.88446629  1  0  0.102614  0  1.012544  0  0  0.106824  0  1.08347  0  0  0.109701  0  1.083807  0  0  0.094102  0.104545  0  1.083833  0
H  H7  1  0.38211860  0.79767617  0.61553361  1  0  0.102517  0  1.012452  0  0  0.106746  0  1.083379  0  0  0.109625  0  1.083714  0  0  0.09406  0.104468  0  1.083741  0
H  H8  1  0.79767032  0.38212496  0.11553182  1  0  0.1027  0  1.012618  0  0  0.106841  0  1.083606  0  0  0.109719  0  1.083942  0  0  0.094083  0.10456  0  1.083972  0
H  H9  1  0.61787232  0.20232372  0.38446482  1  0  0.102465  0  1.012264  0  0  0.106668  0  1.083246  0  0  0.109546  0  1.083584  0  0  0.094033  0.104387  0  1.08361  0
H  H10  1  0.58674514  0.76198371  0.94649081  1  0  0.122246  0  0.933571  0  0  0.132254  0  0.991538  0  0  0.135822  0  0.990326  0  0  0.109116  0.129642  0  0.992655  0
H  H11  1  0.23799844  0.41324293  0.55350372  1  0  0.122246  0  0.933241  0  0  0.132181  0  0.991345  0  0  0.135744  0  0.990134  0  0  0.109142  0.129571  0  0.992459  0
H  H12  1  0.41324438  0.23800631  0.05351715  1  0  0.122324  0  0.933238  0  0  0.132274  0  0.991288  0  0  0.135838  0  0.990073  0  0  0.109161  0.129663  0  0.992404  0
H  H13  1  0.76200375  0.58675443  0.44649536  1  0  0.122221  0  0.933314  0  0  0.132166  0  0.991406  0  0  0.135726  0  0.990195  0  0  0.109147  0.129555  0  0.992519  0
H  H14  1  0.39676247  0.90945058  0.12093727  1  0  0.074896  0  0.968555  0  0  0.081661  0  1.038075  0  0  0.084187  0  1.036078  0  0  0.104932  0.079661  0  1.039826  0
H  H15  1  0.09054206  0.60324584  0.37905278  1  0  0.074922  0  0.968562  0  0  0.081667  0  1.0381  0  0  0.084193  0  1.036102  0  0  0.104927  0.079668  0  1.039848  0
H  H16  1  0.60323791  0.09054308  0.87906522  1  0  0.074899  0  0.968684  0  0  0.081673  0  1.038177  0  0  0.084197  0  1.036183  0  0  0.104922  0.079671  0  1.039932  0
H  H17  1  0.90946278  0.39676150  0.62094823  1  0  0.074895  0  0.968527  0  0  0.081695  0  1.038039  0  0  0.084223  0  1.036036  0  0  0.104908  0.079694  0  1.039784  0
C  C18  1  0.15264130  0.76873695  0.03024678  1  0  0.144278  0  3.70015  0  0  0.112081  0  3.952934  0  0  0.120901  0  3.968848  0  0  0.04496  0.106051  0  3.942393  0
C  C19  1  0.23126055  0.84735636  0.46975487  1  0  0.144296  0  3.700522  0  0  0.112156  0  3.953358  0  0  0.12096  0  3.969277  0  0  0.044975  0.106132  0  3.942817  0
C  C20  1  0.84734766  0.23125669  0.96974913  1  0  0.144065  0  3.700497  0  0  0.111903  0  3.953447  0  0  0.120713  0  3.969372  0  0  0.044862  0.105864  0  3.942898  0
C  C21  1  0.76873675  0.15264725  0.53024403  1  0  0.144108  0  3.70039  0  0  0.111955  0  3.953248  0  0  0.120769  0  3.969167  0  0  0.044916  0.105918  0  3.942705  0
C  C22  1  0.25003423  0.68243049  0.93287982  1  0  -0.16208  0  3.730418  0  0  -0.179207  0  3.978429  0  0  -0.188216  0  4.00024  0  0  -0.091709  -0.173316  0  3.964472  0
C  C23  1  0.31755589  0.74997927  0.56711110  1  0  -0.162089  0  3.730295  0  0  -0.179174  0  3.978325  0  0  -0.188174  0  4.000147  0  0  -0.091729  -0.173287  0  3.964368  0
C  C24  1  0.74997257  0.31756693  0.06712671  1  0  -0.162159  0  3.730094  0  0  -0.179202  0  3.978104  0  0  -0.188207  0  3.999908  0  0  -0.091642  -0.173314  0  3.964156  0
C  C25  1  0.68244375  0.25002680  0.43288538  1  0  -0.161869  0  3.730079  0  0  -0.179003  0  3.978205  0  0  -0.188003  0  4.000023  0  0  -0.091656  -0.173112  0  3.964253  0
C  C26  1  0.40899016  0.67801576  0.90085238  1  0  0.099799  0  3.751067  0  0  0.115317  0  4.004427  0  0  0.122494  0  4.024907  0  0  0.010607  0.110411  0  3.990793  0
C  C27  1  0.32197307  0.59099915  0.59913584  1  0  0.099741  0  3.750769  0  0  0.115188  0  4.004276  0  0  0.122342  0  4.024789  0  0  0.010508  0.110282  0  3.990642  0
C  C28  1  0.59099581  0.32197414  0.09914173  1  0  0.099845  0  3.751219  0  0  0.115367  0  4.004546  0  0  0.122554  0  4.025  0  0  0.010589  0.11046  0  3.990913  0
C  C29  1  0.67802952  0.40899444  0.40086099  1  0  0.099697  0  3.751018  0  0  0.115214  0  4.004399  0  0  0.122375  0  4.024901  0  0  0.010542  0.110302  0  3.990775  0
C  C30  1  0.46359808  0.76237809  0.96820881  1  0  -0.153921  0  3.693677  0  0  -0.171644  0  3.942932  0  0  -0.179728  0  3.962782  0  0  -0.086225  -0.166438  0  3.929999  0
C  C31  1  0.23761656  0.53640859  0.53178628  1  0  -0.15381  0  3.693781  0  0  -0.171489  0  3.943117  0  0  -0.179558  0  3.962965  0  0  -0.086185  -0.16628  0  3.930182  0
C  C32  1  0.53640622  0.23762808  0.03179960  1  0  -0.153866  0  3.693931  0  0  -0.171552  0  3.943157  0  0  -0.179627  0  3.962994  0  0  -0.086227  -0.166343  0  3.930222  0
C  C33  1  0.76237862  0.46359757  0.46821794  1  0  -0.15375  0  3.693824  0  0  -0.171453  0  3.943139  0  0  -0.179517  0  3.962982  0  0  -0.086204  -0.166242  0  3.930205  0
C  C34  1  0.35806535  0.84492874  0.06487265  1  0  0.13555  0  3.702487  0  0  0.105957  0  3.950618  0  0  0.114006  0  3.967233  0  0  0.04166  0.100585  0  3.939738  0
C  C35  1  0.15507398  0.64193292  0.43512005  1  0  0.135461  0  3.702827  0  0  0.105931  0  3.950942  0  0  0.113986  0  3.96755  0  0  0.041675  0.100557  0  3.940063  0
C  C36  1  0.64192585  0.15506247  0.93512956  1  0  0.135341  0  3.702034  0  0  0.10584  0  3.950169  0  0  0.113893  0  3.966778  0  0  0.041703  0.100467  0  3.939292  0
C  C37  1  0.84492623  0.35807195  0.56488100  1  0  0.135426  0  3.702942  0  0  0.10583  0  3.951049  0  0  0.113883  0  3.967662  0  0  0.041666  0.100462  0  3.940163  0
C  C38  1  0.71480459  0.93899711  0.26815055  1  0  0.320684  0  4.080176  0  0  0.302665  0  4.375544  0  0  0.327371  0  4.388419  0  0  0.146071  0.28606  0  4.36585  0
C  C39  1  0.06100749  0.28521884  0.23183567  1  0  0.3206  0  4.079819  0  0  0.302598  0  4.375184  0  0  0.327308  0  4.388056  0  0  0.146039  0.285989  0  4.3655  0
C  C40  1  0.28520122  0.06100525  0.73185188  1  0  0.320659  0  4.080138  0  0  0.30264  0  4.375519  0  0  0.327347  0  4.388395  0  0  0.146024  0.286032  0  4.365828  0
C  C41  1  0.93899082  0.71478464  0.76815058  1  0  0.320616  0  4.079864  0  0  0.302606  0  4.375252  0  0  0.327314  0  4.388125  0  0  0.146045  0.285997  0  4.365562  0
S  S42  1  0.54844048  0.57031896  0.78105595  1  0  0.036909  0  2.523059  0  0  0.033881  0  2.892171  0  0  0.030508  0  2.895965  0  0  0.069683  0.036913  0  2.891188  0
S  S43  1  0.42967207  0.45156057  0.71893826  1  0  0.036828  0  2.523061  0  0  0.033861  0  2.892179  0  0  0.030496  0  2.895978  0  0  0.069653  0.036891  0  2.891197  0
S  S44  1  0.45156280  0.42967595  0.21894778  1  0  0.036883  0  2.523002  0  0  0.03386  0  2.892139  0  0  0.03048  0  2.895926  0  0  0.069667  0.036892  0  2.891155  0
S  S45  1  0.57032795  0.54843931  0.28106256  1  0  0.036824  0  2.523143  0  0  0.033843  0  2.892226  0  0  0.030472  0  2.896026  0  0  0.069654  0.036875  0  2.891245  0
S  S46  1  0.52863820  0.95813929  0.31150626  1  0  -0.342375  0  2.082239  0  0  -0.330053  0  2.374688  0  0  -0.346759  0  2.372823  0  0  -0.155526  -0.318228  0  2.375919  0
S  S47  1  0.04186622  0.47138011  0.18848878  1  0  -0.342236  0  2.08242  0  0  -0.329918  0  2.374867  0  0  -0.34662  0  2.373  0  0  -0.15543  -0.318096  0  2.376102  0
S  S48  1  0.47136650  0.04186311  0.68849900  1  0  -0.342309  0  2.082283  0  0  -0.329988  0  2.37473  0  0  -0.346692  0  2.372864  0  0  -0.155479  -0.31816  0  2.375963  0
S  S49  1  0.95814888  0.52861586  0.81150252  1  0  -0.34231  0  2.082283  0  0  -0.329998  0  2.374749  0  0  -0.346699  0  2.372881  0  0  -0.155492  -0.318173  0  2.375985  0
N  N50  1  0.20496826  0.84762453  0.09655323  1  0  -0.355303  0  3.329791  0  0  -0.271773  0  3.613425  0  0  -0.290855  0  3.627233  0  0  -0.342861  -0.258744  0  3.604719  0
N  N51  1  0.15238023  0.79502604  0.40344347  1  0  -0.355191  0  3.329734  0  0  -0.271748  0  3.613427  0  0  -0.290827  0  3.627236  0  0  -0.342811  -0.258721  0  3.604725  0
N  N52  1  0.79502870  0.15238291  0.90345418  1  0  -0.354922  0  3.329686  0  0  -0.271602  0  3.613481  0  0  -0.290681  0  3.627293  0  0  -0.342845  -0.258575  0  3.604776  0
N  N53  1  0.84762285  0.20498005  0.59655615  1  0  -0.355069  0  3.329594  0  0  -0.271595  0  3.613245  0  0  -0.290677  0  3.627057  0  0  -0.342766  -0.258568  0  3.604545  0
N  N54  1  0.85175313  0.92864560  0.23565047  1  0  -0.601398  0  3.024573  0  0  -0.531475  0  3.336614  0  0  -0.555156  0  3.335977  0  0  -0.434947  -0.514934  0  3.33657  0
N  N55  1  0.07136185  0.14825166  0.26433587  1  0  -0.601473  0  3.024225  0  0  -0.531544  0  3.336277  0  0  -0.555237  0  3.335649  0  0  -0.434983  -0.514977  0  3.336186  0
N  N56  1  0.14824964  0.07135058  0.76435496  1  0  -0.601419  0  3.02454  0  0  -0.531499  0  3.336591  0  0  -0.555181  0  3.335954  0  0  -0.434909  -0.514958  0  3.336553  0
N  N57  1  0.92864253  0.85174562  0.73565666  1  0  -0.601397  0  3.024379  0  0  -0.531459  0  3.33641  0  0  -0.555148  0  3.335784  0  0  -0.434925  -0.514907  0  3.336348  0
