# generated using pymatgen
data_Pr2H18C9(NO)12
_symmetry_space_group_name_H-M   'P 1'
_cell_length_a   9.49045909
_cell_length_b   10.15632064
_cell_length_c   14.31529826
_cell_angle_alpha   68.20171156
_cell_angle_beta   74.93223685
_cell_angle_gamma   84.27367643
_symmetry_Int_Tables_number   1
_chemical_formula_structural   Pr2H18C9(NO)12
_chemical_formula_sum   'Pr4 H36 C18 N24 O24'
_cell_volume   1237.10760486
_cell_formula_units_Z   2
loop_
 _symmetry_equiv_pos_site_id
 _symmetry_equiv_pos_as_xyz
  1  'x, y, z'
loop_
 _atom_site_type_symbol
 _atom_site_label
 _atom_site_symmetry_multiplicity
 _atom_site_fract_x
 _atom_site_fract_y
 _atom_site_fract_z
 _atom_site_occupancy
 _atom_site_pbe_bader_charge
 _atom_site_pbe_bader_spin_density
 _atom_site_pbe_cm5_charge
 _atom_site_pbe_ddec_charge
 _atom_site_pbe_ddec_spin_density
 _atom_site_pbe_ddec_sum_bond_order
 _atom_site_pbe_magmom
Pr  Pr0  1  0.87890465  0.55841703  0.13245628  1  2.260193  0  1.528206  2.071785  0  2.1283  0
Pr  Pr1  1  0.12109559  0.44158062  0.86754732  1  2.260134  0  1.52823  2.071746  0  2.128384  0
Pr  Pr2  1  0.61773503  0.69556622  0.38351924  1  2.263235  0  1.459575  2.106758  0  2.027692  0
Pr  Pr3  1  0.38226744  0.30443673  0.61648052  1  2.263252  0  1.459586  2.10688  0  2.027568  0
H  H4  1  0.56898950  0.73736791  0.16435111  1  0.651168  0  0.296965  0.382394  0  0.947005  0
H  H5  1  0.43101175  0.26262766  0.83564936  1  0.65117  0  0.296946  0.382357  0  0.947036  0
H  H6  1  0.43633087  0.63905387  0.24440369  1  0.626884  0  0.288641  0.351146  0  1.006451  0
H  H7  1  0.56367144  0.36094171  0.75559518  1  0.626902  0  0.288637  0.351174  0  1.006393  0
H  H8  1  0.52204065  0.00697315  0.29753173  1  0.63738  0  0.288586  0.361504  0  0.993434  0
H  H9  1  0.47795522  0.99302675  0.70246929  1  0.637356  0  0.288584  0.361518  0  0.993428  0
H  H10  1  0.66712955  0.99258855  0.20780384  1  0.644581  0  0.290213  0.347759  0  1.011416  0
H  H11  1  0.33286518  0.00741034  0.79219555  1  0.644568  0  0.290227  0.347793  0  1.011363  0
H  H12  1  0.31112110  0.83918797  0.44510903  1  0.644402  0  0.291644  0.351896  0  1.007158  0
H  H13  1  0.68887805  0.16081079  0.55489310  1  0.644396  0  0.291607  0.351869  0  1.007192  0
H  H14  1  0.28728247  0.66842118  0.47532356  1  0.64148  0  0.298359  0.402484  0  0.924882  0
H  H15  1  0.71271774  0.33157867  0.52467530  1  0.641475  0  0.298367  0.402484  0  0.924866  0
H  H16  1  0.88873131  0.49432052  0.41979745  1  0.646228  0  0.296904  0.344389  0  1.01304  0
H  H17  1  0.11126791  0.50568676  0.58019969  1  0.64641  0  0.296865  0.344336  0  1.01312  0
H  H18  1  0.80688072  0.50871754  0.53107306  1  0.631099  0  0.296874  0.336153  0  1.028772  0
H  H19  1  0.19311847  0.49128762  0.46892462  1  0.631082  0  0.296825  0.336072  0  1.028885  0
H  H20  1  0.75500898  0.87387335  0.02209174  1  0.644851  0  0.292151  0.353055  0  1.005364  0
H  H21  1  0.24499114  0.12612444  0.97790417  1  0.644814  0  0.292155  0.353045  0  1.005371  0
H  H22  1  0.68551039  0.76689846  0.98665497  1  0.602743  0  0.337009  0.418469  0  0.857503  0
H  H23  1  0.31449080  0.23309288  0.01334660  1  0.602625  0  0.336912  0.418367  0  0.857657  0
H  H24  1  0.91282264  0.22431355  0.26470631  1  0.604722  0  0.343488  0.437638  0  0.837068  0
H  H25  1  0.08717203  0.77568109  0.73529488  1  0.604744  0  0.343521  0.437634  0  0.837088  0
H  H26  1  0.89419789  0.23880940  0.15258519  1  0.65249  0  0.295525  0.341805  0  1.024693  0
H  H27  1  0.10580119  0.76118835  0.84741441  1  0.652509  0  0.295535  0.341854  0  1.02463  0
H  H28  1  0.55978563  0.31395212  0.25156745  1  0.116558  0  0.121779  0.157529  0  0.973624  0
H  H29  1  0.44021458  0.68604127  0.74843865  1  0.116453  0  0.121821  0.157567  0  0.973634  0
H  H30  1  0.66503562  0.21652782  0.33821837  1  0.110808  0  0.12044  0.144146  0  0.999807  0
H  H31  1  0.33496458  0.78346450  0.66178871  1  0.110925  0  0.120435  0.144133  0  0.999784  0
H  H32  1  0.07344797  0.96100355  0.18952060  1  0.088305  0  0.123074  0.158524  0  0.943812  0
H  H33  1  0.92655139  0.03901328  0.81047407  1  0.088495  0  0.123101  0.158566  0  0.943727  0
H  H34  1  0.15065698  0.79178953  0.22449136  1  0.09976  0  0.126951  0.164987  0  0.949737  0
H  H35  1  0.84934239  0.20822515  0.77550595  1  0.099668  0  0.126981  0.165048  0  0.949573  0
H  H36  1  0.42762582  0.51823161  0.08105838  1  0.151311  0  0.116332  0.160113  0  1.000461  0
H  H37  1  0.57237548  0.48177145  0.91893667  1  0.151523  0  0.116338  0.160153  0  1.000416  0
H  H38  1  0.33416494  0.67897651  0.04334597  1  0.05973  0  0.120133  0.150414  0  0.96153  0
H  H39  1  0.66583090  0.32102557  0.95665100  1  0.059779  0  0.120126  0.150437  0  0.961485  0
C  C40  1  0.58346269  0.40970526  0.35380433  1  1.579297  0  0.240835  0.713802  0  4.109468  0
C  C41  1  0.41654300  0.59028907  0.64620194  1  1.578907  0  0.240813  0.713786  0  4.109349  0
C  C42  1  0.56338578  0.27882710  0.33347058  1  -0.033679  0  -0.141494  -0.403134  0  3.939469  0
C  C43  1  0.43661440  0.72116416  0.66653678  1  -0.033112  0  -0.14151  -0.403135  0  3.939485  0
C  C44  1  0.43984309  0.18202183  0.39957428  1  0.973216  0  0.216928  0.341114  0  4.04219  0
C  C45  1  0.56015277  0.81797269  0.60043231  1  0.973422  0  0.216861  0.341025  0  4.04209  0
C  C46  1  0.91923579  0.79301307  0.25216106  1  1.598575  0  0.210952  0.653938  0  4.184579  0
C  C47  1  0.08075912  0.20698779  0.74784687  1  1.598272  0  0.210956  0.654003  0  4.184196  0
C  C48  1  0.06724693  0.85587184  0.18557990  1  -0.013173  0  -0.139745  -0.382116  0  3.899175  0
C  C49  1  0.93274484  0.14413862  0.81442614  1  -0.013462  0  -0.139801  -0.382272  0  3.899126  0
C  C50  1  0.10337931  0.86708671  0.07543693  1  0.975781  0  0.226923  0.332986  0  4.01344  0
C  C51  1  0.89662100  0.13291842  0.92456196  1  0.976708  0  0.226958  0.333118  0  4.01339  0
C  C52  1  0.31717507  0.56326851  0.08083880  1  -0.018216  0  -0.143276  -0.385312  0  3.895461  0
C  C53  1  0.68282724  0.43673247  0.91915311  1  -0.018171  0  -0.143321  -0.385522  0  3.895512  0
C  C54  1  0.25514305  0.52019424  0.00906740  1  1.564307  0  0.215273  0.666024  0  4.152178  0
C  C55  1  0.74486351  0.47979386  0.99093193  1  1.564708  0  0.215315  0.66614  0  4.152252  0
C  C56  1  0.23059245  0.52936705  0.19011023  1  0.955536  0  0.224126  0.334792  0  4.001546  0
C  C57  1  0.76940999  0.47063701  0.80988646  1  0.955131  0  0.224152  0.334892  0  4.001696  0
N  N58  1  0.39680403  0.08808937  0.36727771  1  -0.748432  0  -0.237332  -0.305695  0  3.267022  0
N  N59  1  0.60319512  0.91190616  0.63272804  1  -0.748763  0  -0.237286  -0.30566  0  3.266962  0
N  N60  1  0.29924183  0.00474256  0.45053738  1  -0.187226  0  -0.102271  -0.090529  0  3.391503  0
N  N61  1  0.70075516  0.99525621  0.54946653  1  -0.187033  0  -0.102247  -0.090512  0  3.391437  0
N  N62  1  0.28288731  0.04623238  0.52916931  1  -0.108187  0  -0.095194  -0.057645  0  3.261611  0
N  N63  1  0.71710750  0.95376643  0.47083498  1  -0.108007  0  -0.095259  -0.057722  0  3.261594  0
N  N64  1  0.37070040  0.15984029  0.49889364  1  -0.76025  0  -0.304064  -0.401241  0  3.370608  0
N  N65  1  0.62929768  0.84015738  0.50111175  1  -0.760599  0  -0.304031  -0.401162  0  3.370545  0
N  N66  1  0.05790261  0.77982929  0.03770917  1  -0.735656  0  -0.294132  -0.393493  0  3.424458  0
N  N67  1  0.94209665  0.22017687  0.96229173  1  -0.735762  0  -0.294208  -0.393557  0  3.424472  0
N  N68  1  0.12266136  0.82705231  0.93574501  1  -0.19492  0  -0.078202  -0.056089  0  3.390765  0
N  N69  1  0.87733664  0.17294438  0.06425575  1  -0.194898  0  -0.078081  -0.055921  0  3.390696  0
N  N70  1  0.20348977  0.93751418  0.91228157  1  -0.147833  0  -0.072521  -0.034035  0  3.311207  0
N  N71  1  0.79650599  0.06248367  0.08771580  1  -0.148204  0  -0.072565  -0.034104  0  3.311322  0
N  N72  1  0.19344233  0.96587028  0.99822398  1  -0.731617  0  -0.207188  -0.27038  0  3.264954  0
N  N73  1  0.80655134  0.03413289  0.00177311  1  -0.732022  0  -0.207215  -0.270455  0  3.264956  0
N  N74  1  0.08540699  0.50975111  0.22774288  1  -0.765115  0  -0.319752  -0.403715  0  3.432079  0
N  N75  1  0.91459753  0.49024656  0.77225436  1  -0.764502  0  -0.319727  -0.403709  0  3.431995  0
N  N76  1  0.05983197  0.48797792  0.32954181  1  -0.147605  0  -0.074462  -0.049192  0  3.335027  0
N  N77  1  0.94016936  0.51202510  0.67045534  1  -0.147507  0  -0.074506  -0.049214  0  3.335043  0
N  N78  1  0.18376600  0.49481885  0.35176823  1  -0.154766  0  -0.065733  -0.024683  0  3.324805  0
N  N79  1  0.81623639  0.50518310  0.64822831  1  -0.155016  0  -0.065765  -0.024775  0  3.324748  0
N  N80  1  0.29334391  0.52069084  0.26624075  1  -0.708575  0  -0.203094  -0.261641  0  3.223111  0
N  N81  1  0.70665945  0.47930477  0.73375514  1  -0.708781  0  -0.203029  -0.261541  0  3.223098  0
O  O82  1  0.49493133  0.44802605  0.42249937  1  -1.209912  0  -0.384485  -0.682662  0  2.32455  0
O  O83  1  0.50507327  0.55197261  0.57750181  1  -1.209903  0  -0.384456  -0.682586  0  2.324368  0
O  O84  1  0.69586889  0.48564431  0.29668094  1  -1.233762  0  -0.430071  -0.72936  0  2.359532  0
O  O85  1  0.30413457  0.51435012  0.70332222  1  -1.2338  0  -0.430064  -0.729402  0  2.359556  0
O  O86  1  0.83974503  0.73432069  0.21718119  1  -1.234567  0  -0.447606  -0.741361  0  2.366581  0
O  O87  1  0.16025962  0.26568007  0.78282083  1  -1.234677  0  -0.447609  -0.741385  0  2.366647  0
O  O88  1  0.87730416  0.79988979  0.34038758  1  -1.160933  0  -0.339277  -0.582211  0  2.216394  0
O  O89  1  0.12269645  0.20013763  0.65960415  1  -1.160421  0  -0.339298  -0.582318  0  2.216011  0
O  O90  1  0.11912450  0.48875194  0.03248728  1  -1.217928  0  -0.431137  -0.730307  0  2.389505  0
O  O91  1  0.88087565  0.51124690  0.96750906  1  -1.218127  0  -0.431154  -0.730362  0  2.389558  0
O  O92  1  0.33818620  0.51651366  0.92513002  1  -1.199446  0  -0.345096  -0.604133  0  2.157106  0
O  O93  1  0.66181614  0.48348835  0.07486301  1  -1.199771  0  -0.345089  -0.604171  0  2.157262  0
O  O94  1  0.50119873  0.71803057  0.23266130  1  -1.296477  0  -0.630788  -0.821562  0  2.092027  0
O  O95  1  0.49880360  0.28196392  0.76733995  1  -1.296511  0  -0.630769  -0.821537  0  2.092144  0
O  O96  1  0.60067548  0.94240959  0.27584395  1  -1.305094  0  -0.677176  -0.852629  0  2.177744  0
O  O97  1  0.39932036  0.05759033  0.72415567  1  -1.305062  0  -0.677187  -0.852714  0  2.177754  0
O  O98  1  0.35482813  0.74967908  0.43443080  1  -1.303711  0  -0.657679  -0.836617  0  2.074252  0
O  O99  1  0.64517320  0.25032071  0.56556997  1  -1.303728  0  -0.657648  -0.836591  0  2.074305  0
O  O100  1  0.79127467  0.50012816  0.46622657  1  -1.290932  0  -0.611195  -0.817524  0  2.245979  0
O  O101  1  0.20872460  0.49988123  0.53377071  1  -1.291141  0  -0.611115  -0.817382  0  2.246043  0
O  O102  1  0.72581371  0.77037771  0.04153636  1  -1.25325  0  -0.601759  -0.8198  0  2.117949  0
O  O103  1  0.27418755  0.22961894  0.95846313  1  -1.253103  0  -0.601666  -0.819697  0  2.118078  0
O  O104  1  0.90269996  0.29243468  0.19799062  1  -1.263345  0  -0.633186  -0.848569  0  2.096844  0
O  O105  1  0.09730347  0.70756193  0.80200849  1  -1.263378  0  -0.633218  -0.848562  0  2.096816  0
