# generated using pymatgen
data_Cd3H62C52(N2O3)4
_symmetry_space_group_name_H-M   'P 1'
_cell_length_a   8.65691985
_cell_length_b   9.42035838
_cell_length_c   16.06400000
_cell_angle_alpha   93.74595942
_cell_angle_beta   94.96588324
_cell_angle_gamma   98.83231382
_symmetry_Int_Tables_number   1
_chemical_formula_structural   Cd3H62C52(N2O3)4
_chemical_formula_sum   'Cd3 H62 C52 N8 O12'
_cell_volume   1285.52656990
_cell_formula_units_Z   1
loop_
 _symmetry_equiv_pos_site_id
 _symmetry_equiv_pos_as_xyz
  1  'x, y, z'
loop_
 _atom_site_type_symbol
 _atom_site_label
 _atom_site_symmetry_multiplicity
 _atom_site_fract_x
 _atom_site_fract_y
 _atom_site_fract_z
 _atom_site_occupancy
 _atom_site_hle17_bader_spin_density
 _atom_site_hle17_ddec_charge
 _atom_site_hle17_ddec_spin_density
 _atom_site_hle17_ddec_sum_bond_order
 _atom_site_hle17_magmom
 _atom_site_hse06_10hf_bader_spin_density
 _atom_site_hse06_10hf_ddec_charge
 _atom_site_hse06_10hf_ddec_spin_density
 _atom_site_hse06_10hf_ddec_sum_bond_order
 _atom_site_hse06_10hf_magmom
 _atom_site_hse06_bader_spin_density
 _atom_site_hse06_ddec_charge
 _atom_site_hse06_ddec_spin_density
 _atom_site_hse06_ddec_sum_bond_order
 _atom_site_hse06_magmom
 _atom_site_pbe_bader_charge
 _atom_site_pbe_bader_spin_density
 _atom_site_pbe_cm5_charge
 _atom_site_pbe_ddec_charge
 _atom_site_pbe_ddec_spin_density
 _atom_site_pbe_ddec_sum_bond_order
 _atom_site_pbe_magmom
Cd  Cd0  1  0.32742427  0.43284479  0.74224154  1  0  1.139965  0  1.621006  0  0  0.951745  0  2.067506  0  0  1.01343  0  2.010955  0  1.254235  0  0.757029  0.906468  0  2.107808  0
Cd  Cd1  1  0.67257784  0.56715252  0.25775615  1  0  1.139978  0  1.620906  0  0  0.951762  0  2.067387  0  0  1.013447  0  2.010835  0  1.254184  0  0.757048  0.906481  0  2.107695  0
Cd  Cd2  1  0.50000076  0.50000027  0.00000076  1  0  1.219237  0  1.691843  0  0  1.03065  0  2.156343  0  0  1.084226  0  2.103625  0  1.331754  0  0.802998  0.992425  0  2.192642  0
H  H3  1  0.02787795  0.74114701  0.42301330  1  0  0.124515  0  0.974598  0  0  0.131508  0  1.040258  0  0  0.135612  0  1.037277  0  0.128997  0  0.105603  0.128398  0  1.042798  0
H  H4  1  0.97212899  0.25885139  0.57698591  1  0  0.124524  0  0.974489  0  0  0.131477  0  1.040213  0  0  0.135579  0  1.037231  0  0.128991  0  0.105596  0.128372  0  1.04274  0
H  H5  1  0.28569357  0.74751197  0.36108074  1  0  0.092631  0  0.946943  0  0  0.105675  0  1.002832  0  0  0.108405  0  1.001997  0  0.097755  0  0.100805  0.103899  0  1.003048  0
H  H6  1  0.71431008  0.25248750  0.63891649  1  0  0.092655  0  0.946935  0  0  0.105705  0  1.002815  0  0  0.108437  0  1.001977  0  0.09785  0  0.100847  0.10393  0  1.003032  0
H  H7  1  0.51610500  0.68207652  0.44135897  1  0  0.089227  0  0.971452  0  0  0.099842  0  1.034726  0  0  0.102083  0  1.034531  0  0.07069  0  0.098595  0.098416  0  1.034511  0
H  H8  1  0.48389516  0.31792295  0.55863872  1  0  0.089215  0  0.971438  0  0  0.099821  0  1.034709  0  0  0.102062  0  1.034514  0  0.070734  0  0.098581  0.098395  0  1.034494  0
H  H9  1  0.50135039  0.60552986  0.58744912  1  0  0.116557  0  0.965669  0  0  0.128438  0  1.024803  0  0  0.131143  0  1.023922  0  0.099269  0  0.106812  0.125125  0  1.028372  0
H  H10  1  0.49866019  0.39447608  0.41254868  1  0  0.116541  0  0.965676  0  0  0.128362  0  1.024901  0  0  0.131078  0  1.02401  0  0.099287  0  0.106804  0.125065  0  1.028426  0
H  H11  1  0.98975091  0.57374597  0.71373327  1  0  0.102109  0  0.939025  0  0  0.112989  0  1.002486  0  0  0.115323  0  0.999018  0  0.161305  0  0.141413  0.111229  0  1.00518  0
H  H12  1  0.01025775  0.42625566  0.28626614  1  0  0.102187  0  0.938989  0  0  0.11307  0  1.002449  0  0  0.115407  0  0.998972  0  0.16127  0  0.14145  0.111311  0  1.005141  0
H  H13  1  0.80024830  0.62904769  0.51063935  1  0  0.084447  0  0.937406  0  0  0.097207  0  1.003385  0  0  0.097677  0  1.004461  0  0.103084  0  0.10953  0.097058  0  1.002862  0
H  H14  1  0.19975322  0.37095286  0.48936280  1  0  0.084409  0  0.937509  0  0  0.097179  0  1.003484  0  0  0.097647  0  1.004559  0  0.10303  0  0.109535  0.09703  0  1.00296  0
H  H15  1  0.77308033  0.63552582  0.61925603  1  0  0.085179  0  0.942187  0  0  0.10037  0  1.00634  0  0  0.1015  0  1.005861  0  0.099709  0  0.110882  0.098474  0  1.009677  0
H  H16  1  0.22692852  0.36447688  0.38074592  1  0  0.085141  0  0.942159  0  0  0.100362  0  1.006297  0  0  0.101493  0  1.005812  0  0.09984  0  0.110867  0.098464  0  1.009635  0
H  H17  1  0.92916801  0.89022047  0.52916330  1  0  0.066211  0  0.953841  0  0  0.082506  0  1.021787  0  0  0.083536  0  1.021375  0  0.032021  0  0.090425  0.081346  0  1.022768  0
H  H18  1  0.07083059  0.10978331  0.47083759  1  0  0.066191  0  0.953843  0  0  0.082477  0  1.021791  0  0  0.083516  0  1.021371  0  0.032028  0  0.090409  0.081317  0  1.022771  0
H  H19  1  0.72746313  0.85862087  0.53905133  1  0  0.075062  0  0.937746  0  0  0.096823  0  0.995887  0  0  0.096925  0  0.997428  0  0.040586  0  0.095267  0.096803  0  0.994761  0
H  H20  1  0.27253704  0.14137860  0.46094885  1  0  0.075027  0  0.937777  0  0  0.096786  0  0.995911  0  0  0.09689  0  0.997451  0  0.04057  0  0.095253  0.096766  0  0.994785  0
H  H21  1  0.90640795  0.04515722  0.64860637  1  0  0.067493  0  0.941473  0  0  0.088225  0  0.999213  0  0  0.088538  0  1.000462  0  0.034341  0  0.089708  0.087797  0  0.998352  0
H  H22  1  0.09358795  0.95484441  0.35139431  1  0  0.067481  0  0.941455  0  0  0.08822  0  0.999216  0  0  0.088532  0  1.00047  0  0.034355  0  0.089715  0.08779  0  0.998359  0
H  H23  1  0.96564134  0.89610047  0.69455989  1  0  0.04961  0  0.959674  0  0  0.070392  0  1.021826  0  0  0.070457  0  1.02287  0  0.014522  0  0.082459  0.070153  0  1.020748  0
H  H24  1  0.03435378  0.10390331  0.30544146  1  0  0.049508  0  0.959652  0  0  0.070373  0  1.021749  0  0  0.070464  0  1.022756  0  0.014773  0  0.082442  0.070134  0  1.020672  0
H  H25  1  0.62453510  0.94793843  0.66398662  1  0  0.060793  0  0.940883  0  0  0.081997  0  1.000077  0  0  0.082365  0  1.001344  0  0.015522  0  0.088359  0.08194  0  0.998705  0
H  H26  1  0.37546081  0.05206320  0.33601344  1  0  0.060761  0  0.940881  0  0  0.081925  0  1.00012  0  0  0.082295  0  1.001384  0  0.01541  0  0.088324  0.081868  0  0.998748  0
H  H27  1  0.68157196  0.79905033  0.71180142  1  0  0.063033  0  0.966571  0  0  0.083261  0  1.026778  0  0  0.083725  0  1.028032  0  0.040392  0  0.085898  0.082867  0  1.026193  0
H  H28  1  0.31842298  0.20095238  0.28819863  1  0  0.063001  0  0.966642  0  0  0.08322  0  1.026858  0  0  0.083686  0  1.028109  0  0.040375  0  0.085888  0.082826  0  1.026273  0
H  H29  1  0.77063801  0.11767971  0.77678698  1  0  0.071043  0  0.932096  0  0  0.092003  0  0.988426  0  0  0.092816  0  0.988233  0  0.020503  0  0.094142  0.091272  0  0.988813  0
H  H30  1  0.22935576  0.88232300  0.22321426  1  0  0.071094  0  0.932094  0  0  0.092023  0  0.98842  0  0  0.092839  0  0.988219  0  0.020511  0  0.094153  0.091294  0  0.98881  0
H  H31  1  0.84645437  0.97745050  0.82635788  1  0  0.062294  0  0.951082  0  0  0.080661  0  1.016165  0  0  0.080694  0  1.017726  0  0.018305  0  0.088207  0.081136  0  1.014028  0
H  H32  1  0.15353922  0.02255113  0.17364269  1  0  0.062258  0  0.951146  0  0  0.080623  0  1.016181  0  0  0.080647  0  1.017761  0  0.018234  0  0.088179  0.081113  0  1.014025  0
H  H33  1  0.57727168  0.86781807  0.85502819  1  0  0.076249  0  0.923184  0  0  0.094429  0  0.981542  0  0  0.094428  0  0.982536  0  0.054638  0  0.108662  0.094113  0  0.981114  0
H  H34  1  0.42272269  0.13218140  0.14497172  1  0  0.076239  0  0.923204  0  0  0.094419  0  0.981599  0  0  0.094422  0  0.98259  0  0.054647  0  0.108672  0.094103  0  0.981171  0
H  H35  1  0.49461590  0.99267965  0.79380792  1  0  0.083799  0  0.943581  0  0  0.097464  0  1.009569  0  0  0.098569  0  1.009366  0  0.11177  0  0.112224  0.096861  0  1.00886  0
H  H36  1  0.50537866  0.00732090  0.20619203  1  0  0.083756  0  0.943664  0  0  0.097479  0  1.00955  0  0  0.098561  0  1.009405  0  0.111826  0  0.112237  0.096879  0  1.008844  0
H  H37  1  0.77407479  0.86979351  0.98720530  1  0  0.110392  0  0.961089  0  0  0.121352  0  1.023401  0  0  0.124315  0  1.022091  0  0.105806  0  0.105678  0.119431  0  1.023941  0
H  H38  1  0.22591939  0.13020488  0.01279518  1  0  0.110382  0  0.961091  0  0  0.121324  0  1.023429  0  0  0.124285  0  1.022124  0  0.105736  0  0.105695  0.119411  0  1.02395  0
H  H39  1  0.88958127  0.92347975  0.13525922  1  0  0.091024  0  0.959404  0  0  0.10649  0  1.013393  0  0  0.108436  0  1.013446  0  0.049502  0  0.101179  0.104962  0  1.0133  0
H  H40  1  0.11041426  0.07651972  0.86474074  1  0  0.090982  0  0.959438  0  0  0.106475  0  1.013396  0  0  0.108419  0  1.013451  0  0.049537  0  0.101153  0.104947  0  1.013303  0
H  H41  1  0.86825034  0.15191755  0.21491380  1  0  0.071115  0  0.994164  0  0  0.08103  0  1.061141  0  0  0.083548  0  1.060345  0  0.023716  0  0.090009  0.078852  0  1.062407  0
H  H42  1  0.13174867  0.84808192  0.78508570  1  0  0.071103  0  0.994173  0  0  0.081023  0  1.061151  0  0  0.083543  0  1.060354  0  0.024184  0  0.090004  0.078856  0  1.062406  0
H  H43  1  0.72827105  0.33571382  0.15013935  1  0  0.097115  0  0.990955  0  0  0.10487  0  1.061923  0  0  0.107723  0  1.059981  0  0.108458  0  0.0981  0.102896  0  1.06337  0
H  H44  1  0.27172313  0.66428457  0.84986112  1  0  0.097143  0  0.990976  0  0  0.104913  0  1.061925  0  0  0.107771  0  1.059971  0  0.108393  0  0.098122  0.102939  0  1.063372  0
H  H45  1  0.47975436  0.23242696  0.85357820  1  0  0.10906  0  0.982172  0  0  0.116361  0  1.049531  0  0  0.119625  0  1.044726  0  0.192101  0  0.135687  0.113864  0  1.052929  0
H  H46  1  0.52024270  0.76757466  0.14642441  1  0  0.10904  0  0.982245  0  0  0.116355  0  1.049612  0  0  0.11962  0  1.044812  0  0.192043  0  0.135693  0.113907  0  1.052949  0
H  H47  1  0.30996468  0.93235471  0.67236441  1  0  0.128218  0  0.950898  0  0  0.146192  0  1.014463  0  0  0.148348  0  1.014198  0  0.037662  0  0.093089  0.144367  0  1.015383  0
H  H48  1  0.69003705  0.06764045  0.32763443  1  0  0.128226  0  0.950915  0  0  0.146175  0  1.014516  0  0  0.148333  0  1.014247  0  0.0377  0  0.093091  0.144352  0  1.015434  0
H  H49  1  0.18560749  0.97330885  0.58479136  1  0  0.127259  0  0.971882  0  0  0.144136  0  1.037943  0  0  0.145921  0  1.038633  0  0.068876  0  0.092874  0.1428  0  1.037207  0
H  H50  1  0.81439481  0.02668954  0.41520825  1  0  0.127233  0  0.971914  0  0  0.144123  0  1.037969  0  0  0.145908  0  1.038659  0  0.068802  0  0.092893  0.142788  0  1.037232  0
H  H51  1  0.39263128  0.00650292  0.58473957  1  0  0.131387  0  0.937585  0  0  0.151638  0  0.998921  0  0  0.15393  0  0.998577  0  0.07889  0  0.09915  0.150322  0  0.998395  0
H  H52  1  0.60737045  0.99349224  0.41525927  1  0  0.131337  0  0.937544  0  0  0.151592  0  0.998892  0  0  0.153882  0  0.998548  0  0.078355  0  0.099116  0.150276  0  0.998365  0
H  H53  1  0.15599467  0.28465290  0.18389995  1  0  0.131062  0  0.959657  0  0  0.149698  0  1.024024  0  0  0.151707  0  1.024475  0  0.038055  0  0.096007  0.148124  0  1.023827  0
H  H54  1  0.84399913  0.71534334  0.81610105  1  0  0.130956  0  0.959792  0  0  0.14965  0  1.024095  0  0  0.151658  0  1.024544  0  0.038059  0  0.095986  0.148076  0  1.0239  0
H  H55  1  0.19976184  0.36091828  0.08730855  1  0  0.142881  0  0.977815  0  0  0.15763  0  1.042777  0  0  0.161414  0  1.04024  0  0.097703  0  0.092628  0.154644  0  1.044921  0
H  H56  1  0.80023447  0.63907904  0.91269385  1  0  0.142881  0  0.977819  0  0  0.157596  0  1.04282  0  0  0.161375  0  1.040286  0  0.097966  0  0.092612  0.154613  0  1.04496  0
H  H57  1  0.12528807  0.46239351  0.16794324  1  0  0.148133  0  0.943889  0  0  0.168211  0  1.001993  0  0  0.170627  0  1.001439  0  0.08866  0  0.101685  0.165967  0  1.003071  0
H  H58  1  0.87471075  0.53760489  0.83205807  1  0  0.148148  0  0.943894  0  0  0.168231  0  1.001994  0  0  0.170649  0  1.001436  0  0.088652  0  0.101669  0.165988  0  1.003073  0
H  H59  1  0.06950532  0.59233327  0.03402709  1  0  0.134996  0  0.955616  0  0  0.157392  0  1.012208  0  0  0.159  0  1.01315  0  0.060513  0  0.099042  0.156121  0  1.011523  0
H  H60  1  0.93049736  0.40766728  0.96597387  1  0  0.134844  0  0.955801  0  0  0.157349  0  1.012243  0  0  0.158955  0  1.013188  0  0.060442  0  0.099023  0.156077  0  1.011559  0
H  H61  1  0.11960073  0.72227195  0.12067808  1  0  0.12445  0  0.968041  0  0  0.140657  0  1.032679  0  0  0.143486  0  1.03125  0  0.04183  0  0.09011  0.138608  0  1.033776  0
H  H62  1  0.88040523  0.27772752  0.87932050  1  0  0.124444  0  0.968078  0  0  0.140637  0  1.032737  0  0  0.143466  0  1.031312  0  0.041546  0  0.09011  0.138587  0  1.033835  0
H  H63  1  0.01599652  0.76462281  0.02611370  1  0  0.128154  0  0.962684  0  0  0.146916  0  1.024761  0  0  0.148444  0  1.026188  0  0.037872  0  0.093821  0.145803  0  1.023539  0
H  H64  1  0.98401233  0.23537989  0.97388451  1  0  0.128155  0  0.962725  0  0  0.146908  0  1.024828  0  0  0.14844  0  1.026251  0  0.038158  0  0.093802  0.145795  0  1.023604  0
C  C65  1  0.12564599  0.67149123  0.54015434  1  0  0.09803  0  3.765408  0  0  0.088569  0  4.007557  0  0  0.092325  0  4.029797  0  0.282202  0  0.091448  0.087091  0  3.992358  0
C  C66  1  0.87436132  0.32850932  0.45984496  1  0  0.098043  0  3.765471  0  0  0.088615  0  4.007545  0  0  0.092373  0  4.029781  0  0.281715  0  0.091452  0.087128  0  3.992357  0
C  C67  1  0.13131998  0.71436801  0.45858753  1  0  -0.156592  0  3.73775  0  0  -0.177161  0  3.994469  0  0  -0.179943  0  4.013464  0  -0.034594  0  -0.097097  -0.175005  0  3.981278  0
C  C68  1  0.86868520  0.28563361  0.54141109  1  0  -0.156613  0  3.737572  0  0  -0.17715  0  3.994299  0  0  -0.17993  0  4.013293  0  -0.034616  0  -0.097108  -0.174991  0  3.981111  0
C  C69  1  0.27494201  0.71750847  0.42498744  1  0  -0.064873  0  3.763429  0  0  -0.080028  0  4.017397  0  0  -0.081921  0  4.039608  0  -0.035481  0  -0.094529  -0.078473  0  4.001184  0
C  C70  1  0.72506029  0.28248993  0.57500843  1  0  -0.064827  0  3.763352  0  0  -0.079997  0  4.017314  0  0  -0.081889  0  4.039527  0  -0.035436  0  -0.094542  -0.078445  0  4.001103  0
C  C71  1  0.40722583  0.67997714  0.47093365  1  0  -0.082951  0  3.787663  0  0  -0.099627  0  4.043022  0  0  -0.102062  0  4.066263  0  -0.039823  0  -0.099903  -0.097353  0  4.026015  0
C  C72  1  0.59277569  0.32002341  0.52906538  1  0  -0.083004  0  3.787669  0  0  -0.099671  0  4.043036  0  0  -0.102105  0  4.066275  0  -0.039799  0  -0.099877  -0.0974  0  4.026031  0
C  C73  1  0.40073140  0.63687727  0.55201290  1  0  -0.152262  0  3.743861  0  0  -0.169616  0  3.990103  0  0  -0.17238  0  4.01065  0  -0.036178  0  -0.093848  -0.167008  0  3.977619  0
C  C74  1  0.59927745  0.36312543  0.44798469  1  0  -0.152056  0  3.743744  0  0  -0.169364  0  3.989965  0  0  -0.17214  0  4.010505  0  -0.036236  0  -0.093755  -0.166754  0  3.977488  0
C  C75  1  0.25716714  0.63195536  0.58648930  1  0  0.145207  0  3.843469  0  0  0.1439  0  4.086306  0  0  0.147775  0  4.10973  0  0.371035  0  0.084368  0.140824  0  4.07166  0
C  C76  1  0.74284055  0.36804735  0.41350824  1  0  0.145001  0  3.843509  0  0  0.143679  0  4.08635  0  0  0.147556  0  4.109776  0  0.370695  0  0.084225  0.140605  0  4.07171  0
C  C77  1  0.06197093  0.60286252  0.66359658  1  0  0.205693  0  3.659884  0  0  0.141558  0  3.931677  0  0  0.159468  0  3.942647  0  1.007483  0  0.161292  0.12937  0  3.924844  0
C  C78  1  0.93803619  0.39713695  0.33640143  1  0  0.205576  0  3.65985  0  0  0.141433  0  3.93162  0  0  0.159348  0  3.942588  0  1.007733  0  0.16116  0.129246  0  3.924786  0
C  C79  1  0.84512400  0.68422871  0.57224915  1  0  0.000734  0  3.601366  0  0  -0.060112  0  3.857011  0  0  -0.05621  0  3.868703  0  0.249797  0  -0.053256  -0.063675  0  3.851637  0
C  C80  1  0.15488331  0.31577184  0.42775202  1  0  0.000866  0  3.601357  0  0  -0.060007  0  3.856974  0  0  -0.056122  0  3.868712  0  0.249628  0  -0.053243  -0.06357  0  3.851601  0
C  C81  1  0.84199873  0.84596853  0.57038113  1  0  -0.125129  0  3.67599  0  0  -0.169602  0  3.940147  0  0  -0.170507  0  3.953074  0  -0.013663  0  -0.163751  -0.168677  0  3.931474  0
C  C82  1  0.15800279  0.15403202  0.42962039  1  0  -0.125115  0  3.675956  0  0  -0.169552  0  3.940133  0  0  -0.170467  0  3.953064  0  -0.013677  0  -0.163716  -0.168626  0  3.931458  0
C  C83  1  0.86791775  0.93029843  0.65630396  1  0  -0.104631  0  3.692832  0  0  -0.144553  0  3.954913  0  0  -0.145424  0  3.970177  0  -0.037409  0  -0.169752  -0.14304  0  3.943146  0
C  C84  1  0.13207719  0.06970427  0.34369672  1  0  -0.104434  0  3.692562  0  0  -0.144473  0  3.954743  0  0  -0.145353  0  3.970014  0  -0.037341  0  -0.169714  -0.14296  0  3.942975  0
C  C85  1  0.72083723  0.91356156  0.70319092  1  0  -0.112492  0  3.697762  0  0  -0.149392  0  3.95403  0  0  -0.151064  0  3.969605  0  -0.017601  0  -0.170111  -0.148756  0  3.943757  0
C  C86  1  0.27915771  0.08644114  0.29680976  1  0  -0.112429  0  3.697778  0  0  -0.149306  0  3.954004  0  0  -0.150979  0  3.96958  0  -0.017791  0  -0.170086  -0.148673  0  3.943738  0
C  C87  1  0.74445110  0.00247982  0.78745778  1  0  -0.129087  0  3.695609  0  0  -0.172821  0  3.96152  0  0  -0.173918  0  3.975251  0  -0.019269  0  -0.165491  -0.172453  0  3.9525  0
C  C88  1  0.25554230  0.99752073  0.21254336  1  0  -0.129174  0  3.695722  0  0  -0.172784  0  3.961462  0  0  -0.173877  0  3.975191  0  -0.019007  0  -0.165441  -0.172427  0  3.952446  0
C  C89  1  0.59817114  0.97753672  0.83456370  1  0  0.006109  0  3.625711  0  0  -0.055134  0  3.884599  0  0  -0.050636  0  3.895892  0  0.294794  0  -0.053087  -0.05774  0  3.876449  0
C  C90  1  0.40182110  0.02246383  0.16543677  1  0  0.006226  0  3.625586  0  0  -0.055097  0  3.884532  0  0  -0.050604  0  3.895817  0  0.29454  0  -0.053127  -0.057709  0  3.876392  0
C  C91  1  0.68570624  0.07454859  0.98659150  1  0  0.097647  0  3.775651  0  0  0.088332  0  4.019714  0  0  0.09233  0  4.041522  0  0.293826  0  0.093896  0.085428  0  4.005336  0
C  C92  1  0.31428697  0.92545088  0.01340898  1  0  0.097724  0  3.775585  0  0  0.088345  0  4.019677  0  0  0.092331  0  4.041502  0  0.293769  0  0.093844  0.08544  0  4.0053  0
C  C93  1  0.76567786  0.97147782  0.02148630  1  0  -0.143621  0  3.756475  0  0  -0.166594  0  4.017614  0  0  -0.169231  0  4.037624  0  -0.056032  0  -0.097463  -0.164821  0  4.002239  0
C  C94  1  0.23431382  0.02851950  0.97851526  1  0  -0.143618  0  3.756411  0  0  -0.166578  0  4.017598  0  0  -0.169212  0  4.037611  0  -0.056041  0  -0.097497  -0.164802  0  4.002227  0
C  C95  1  0.82981882  0.00237851  0.10451762  1  0  -0.075922  0  3.784782  0  0  -0.094162  0  4.043644  0  0  -0.096119  0  4.066551  0  0.044458  0  -0.099131  -0.091673  0  4.025118  0
C  C96  1  0.17017574  0.99762204  0.89548358  1  0  -0.07588  0  3.784636  0  0  -0.094128  0  4.043482  0  0  -0.096084  0  4.066391  0  0.044618  0  -0.099054  -0.091639  0  4.024959  0
C  C97  1  0.81673196  0.13221697  0.15006190  1  0  -0.091104  0  3.813658  0  0  -0.106748  0  4.069241  0  0  -0.109757  0  4.093094  0  -0.033855  0  -0.104504  -0.104136  0  4.051719  0
C  C98  1  0.18326126  0.86778250  0.84993920  1  0  -0.091062  0  3.813552  0  0  -0.106704  0  4.069158  0  0  -0.109716  0  4.093016  0  -0.035037  0  -0.104486  -0.104099  0  4.051633  0
C  C99  1  0.73754156  0.23522794  0.11501312  1  0  -0.134314  0  3.741447  0  0  -0.151422  0  3.986476  0  0  -0.154178  0  4.007629  0  -0.019888  0  -0.094472  -0.14912  0  3.971725  0
C  C100  1  0.26245262  0.76477046  0.88498611  1  0  -0.134311  0  3.741446  0  0  -0.151489  0  3.986473  0  0  -0.154245  0  4.00763  0  -0.019335  0  -0.094517  -0.149186  0  3.971728  0
C  C101  1  0.66971527  0.20482136  0.03240850  1  0  0.149611  0  3.82777  0  0  0.147125  0  4.07274  0  0  0.15125  0  4.095733  0  0.373742  0  0.086669  0.143811  0  4.057464  0
C  C102  1  0.33027891  0.79517703  0.96759198  1  0  0.149464  0  3.827901  0  0  0.147135  0  4.072692  0  0  0.151264  0  4.095685  0  0.374109  0  0.086663  0.14382  0  4.057414  0
C  C103  1  0.54803193  0.20479550  0.90825753  1  0  0.212875  0  3.6498  0  0  0.14798  0  3.921634  0  0  0.165961  0  3.93198  0  1.005789  0  0.161118  0.135877  0  3.914244  0
C  C104  1  0.45196611  0.79520505  0.09174445  1  0  0.212813  0  3.649822  0  0  0.147873  0  3.921727  0  0  0.165851  0  3.932075  0  1.005637  0  0.161071  0.135737  0  3.914304  0
C  C105  1  0.29558522  0.00844495  0.62453428  1  0  -0.442053  0  3.665528  0  0  -0.520713  0  3.901823  0  0  -0.528108  0  3.905684  0  -0.106487  0  -0.244249  -0.51512  0  3.898477  0
C  C106  1  0.70441670  0.99155129  0.37546460  1  0  -0.441963  0  3.665429  0  0  -0.520595  0  3.901754  0  0  -0.527993  0  3.90562  0  -0.105824  0  -0.244245  -0.515006  0  3.898408  0
C  C107  1  0.30334415  0.15968893  0.66406856  1  0  0.725193  0  3.875343  0  0  0.689961  0  4.159154  0  0  0.723596  0  4.153489  0  1.548826  0  0.192999  0.667198  0  4.161894  0
C  C108  1  0.69665875  0.84030623  0.33593345  1  0  0.725022  0  3.875303  0  0  0.689707  0  4.159259  0  0  0.723344  0  4.153591  0  1.548857  0  0.192879  0.666946  0  4.161999  0
C  C109  1  0.20271086  0.38287559  0.15527193  1  0  -0.465113  0  3.630633  0  0  -0.538677  0  3.857827  0  0  -0.546638  0  3.859967  0  -0.104336  0  -0.25153  -0.532293  0  3.856723  0
C  C110  1  0.79728758  0.61712065  0.84472929  1  0  -0.465034  0  3.630739  0  0  -0.538612  0  3.857914  0  0  -0.546567  0  3.860052  0  -0.104576  0  -0.25147  -0.532219  0  3.856783  0
C  C111  1  0.36635113  0.44114964  0.19495890  1  0  0.744292  0  3.840841  0  0  0.705138  0  4.126657  0  0  0.73958  0  4.120234  0  1.489954  0  0.19928  0.681669  0  4.129393  0
C  C112  1  0.63364750  0.55884767  0.80504299  1  0  0.744323  0  3.840658  0  0  0.705132  0  4.126534  0  0  0.739569  0  4.120113  0  1.489858  0  0.199311  0.681663  0  4.129273  0
C  C113  1  0.02921477  0.68114753  0.06936941  1  0  -0.458809  0  3.66432  0  0  -0.536748  0  3.899413  0  0  -0.544395  0  3.902792  0  -0.065785  0  -0.252388  -0.531559  0  3.897613  0
C  C114  1  0.97078693  0.31885409  0.93062967  1  0  -0.45868  0  3.664495  0  0  -0.536652  0  3.89958  0  0  -0.544303  0  3.902961  0  -0.065826  0  -0.252355  -0.531465  0  3.897781  0
C  C115  1  0.87340099  0.62738694  0.10193703  1  0  0.759002  0  3.855158  0  0  0.717379  0  4.149617  0  0  0.75256  0  4.140265  0  1.566999  0  0.205037  0.693224  0  4.155635  0
C  C116  1  0.12660187  0.37261469  0.89806335  1  0  0.759092  0  3.854994  0  0  0.717399  0  4.149583  0  0  0.75258  0  4.140232  0  1.566219  0  0.205062  0.693243  0  4.155602  0
N  N117  1  0.21283247  0.58906780  0.66347085  1  0  -0.453118  0  3.192494  0  0  -0.382412  0  3.476723  0  0  -0.406184  0  3.491099  0  -1.225394  0  -0.361006  -0.3666  0  3.468615  0
N  N118  1  0.78717522  0.41093490  0.33652669  1  0  -0.45307  0  3.192484  0  0  -0.382368  0  3.476718  0  0  -0.406141  0  3.49109  0  -1.224932  0  -0.360975  -0.366554  0  3.468605  0
N  N119  1  0.00432403  0.65330807  0.59183852  1  0  -0.117204  0  3.515902  0  0  -0.02831  0  3.73983  0  0  -0.044962  0  3.76477  0  -1.222552  0  -0.239708  -0.017045  0  3.722714  0
N  N120  1  0.99568328  0.34669248  0.40816016  1  0  -0.117286  0  3.51606  0  0  -0.028397  0  3.740011  0  0  -0.045055  0  3.764949  0  -1.222428  0  -0.239678  -0.017129  0  3.722895  0
N  N121  1  0.58261968  0.28330144  0.98118245  1  0  -0.453408  0  3.201958  0  0  -0.382367  0  3.488135  0  0  -0.406327  0  3.503398  0  -1.231331  0  -0.358406  -0.365705  0  3.477233  0
N  N122  1  0.41737603  0.71669910  0.01881880  1  0  -0.453355  0  3.201991  0  0  -0.382321  0  3.488096  0  0  -0.406285  0  3.503366  0  -1.231506  0  -0.358397  -0.365661  0  3.477206  0
N  N123  1  0.60713739  0.07927759  0.90797432  1  0  -0.120977  0  3.520978  0  0  -0.032193  0  3.744096  0  0  -0.049501  0  3.769072  0  -1.241004  0  -0.242016  -0.021107  0  3.727154  0
N  N124  1  0.39285466  0.92072188  0.09202672  1  0  -0.120993  0  3.520714  0  0  -0.032229  0  3.743936  0  0  -0.049528  0  3.768912  0  -1.240835  0  -0.241964  -0.021146  0  3.727005  0
O  O125  1  0.21813425  0.24385071  0.63113745  1  0  -0.662167  0  1.922369  0  0  -0.600625  0  2.155242  0  0  -0.628882  0  2.146522  0  -1.180901  0  -0.333999  -0.580244  0  2.160963  0
O  O126  1  0.78186285  0.75614445  0.36886802  1  0  -0.662029  0  1.922366  0  0  -0.600439  0  2.15525  0  0  -0.628699  0  2.146537  0  -1.180908  0  -0.333854  -0.580049  0  2.160953  0
O  O127  1  0.39967945  0.20029497  0.72946208  1  0  -0.667382  0  1.938633  0  0  -0.601228  0  2.172511  0  0  -0.631361  0  2.163079  0  -1.18278  0  -0.340107  -0.579976  0  2.177877  0
O  O128  1  0.60033078  0.79970234  0.27053599  1  0  -0.66734  0  1.938574  0  0  -0.601181  0  2.172512  0  0  -0.631312  0  2.163081  0  -1.18282  0  -0.340132  -0.579941  0  2.177884  0
O  O129  1  0.39383158  0.45995788  0.27384950  1  0  -0.644491  0  1.905207  0  0  -0.589367  0  2.137239  0  0  -0.616367  0  2.127469  0  -1.148138  0  -0.326759  -0.569986  0  2.143519  0
O  O130  1  0.60616630  0.54003513  0.72615343  1  0  -0.644452  0  1.905119  0  0  -0.5893  0  2.137147  0  0  -0.616309  0  2.127396  0  -1.148105  0  -0.32673  -0.56992  0  2.143428  0
O  O131  1  0.47771095  0.47212201  0.14711349  1  0  -0.70826  0  2.037999  0  0  -0.626161  0  2.304325  0  0  -0.659288  0  2.290704  0  -1.17868  0  -0.338399  -0.60231  0  2.312784  0
O  O132  1  0.52228827  0.52787207  0.85288768  1  0  -0.708301  0  2.037935  0  0  -0.626224  0  2.304329  0  0  -0.65935  0  2.290706  0  -1.178659  0  -0.338479  -0.602374  0  2.312789  0
O  O133  1  0.75118413  0.61936876  0.05133880  1  0  -0.689476  0  2.012646  0  0  -0.622974  0  2.27187  0  0  -0.650841  0  2.259363  0  -1.204544  0  -0.340184  -0.603773  0  2.279702  0
O  O134  1  0.24882064  0.38063718  0.94866183  1  0  -0.689501  0  2.012602  0  0  -0.622974  0  2.271862  0  0  -0.650842  0  2.259359  0  -1.204157  0  -0.340154  -0.603772  0  2.27969  0
O  O135  1  0.87792944  0.59443481  0.17813180  1  0  -0.684025  0  1.96583  0  0  -0.614633  0  2.216222  0  0  -0.64449  0  2.202549  0  -1.186301  0  -0.347508  -0.593198  0  2.225582  0
O  O136  1  0.12207822  0.40557436  0.82186909  1  0  -0.684094  0  1.965758  0  0  -0.614683  0  2.216197  0  0  -0.644541  0  2.202523  0  -1.185898  0  -0.34757  -0.593251  0  2.225559  0
