# generated using pymatgen
data_ZnH8C11N2Cl2O
_symmetry_space_group_name_H-M   'P 1'
_cell_length_a   7.96648242
_cell_length_b   9.09077570
_cell_length_c   9.09056173
_cell_angle_alpha   116.87179706
_cell_angle_beta   91.71553914
_cell_angle_gamma   91.71620253
_symmetry_Int_Tables_number   1
_chemical_formula_structural   ZnH8C11N2Cl2O
_chemical_formula_sum   'Zn2 H16 C22 N4 Cl4 O2'
_cell_volume   586.30176692
_cell_formula_units_Z   2
loop_
 _symmetry_equiv_pos_site_id
 _symmetry_equiv_pos_as_xyz
  1  'x, y, z'
loop_
 _atom_site_type_symbol
 _atom_site_label
 _atom_site_symmetry_multiplicity
 _atom_site_fract_x
 _atom_site_fract_y
 _atom_site_fract_z
 _atom_site_occupancy
 _atom_site_hle17_bader_spin_density
 _atom_site_hle17_ddec_charge
 _atom_site_hle17_ddec_spin_density
 _atom_site_hle17_ddec_sum_bond_order
 _atom_site_hle17_magmom
 _atom_site_hse06_10hf_bader_spin_density
 _atom_site_hse06_10hf_ddec_charge
 _atom_site_hse06_10hf_ddec_spin_density
 _atom_site_hse06_10hf_ddec_sum_bond_order
 _atom_site_hse06_10hf_magmom
 _atom_site_hse06_bader_spin_density
 _atom_site_hse06_ddec_charge
 _atom_site_hse06_ddec_spin_density
 _atom_site_hse06_ddec_sum_bond_order
 _atom_site_hse06_magmom
 _atom_site_pbe_bader_spin_density
 _atom_site_pbe_cm5_charge
 _atom_site_pbe_ddec_charge
 _atom_site_pbe_ddec_spin_density
 _atom_site_pbe_ddec_sum_bond_order
 _atom_site_pbe_magmom
Zn  Zn0  1  0.24999983  0.20555200  0.79443632  1  0  0.833898  0  2.147505  0  0  0.656521  0  2.640651  0  0  0.695821  0  2.596532  0  0  0.555351  0.629507  0  2.670647  0
Zn  Zn1  1  0.75000187  0.79445027  0.20556809  1  0  0.833732  0  2.147626  0  0  0.656378  0  2.64079  0  0  0.69568  0  2.59668  0  0  0.555308  0.629368  0  2.670785  0
H  H2  1  0.37273001  0.03311377  0.18933833  1  0  0.111353  0  0.940889  0  0  0.121446  0  0.99871  0  0  0.124619  0  0.997932  0  0  0.10759  0.119169  0  0.999452  0
H  H3  1  0.12728235  0.81063443  0.96688031  1  0  0.111384  0  0.941006  0  0  0.121499  0  0.998784  0  0  0.124672  0  0.998007  0  0  0.107588  0.119223  0  0.999524  0
H  H4  1  0.62726158  0.96688734  0.81066638  1  0  0.111364  0  0.940896  0  0  0.121436  0  0.998727  0  0  0.124609  0  0.997949  0  0  0.107577  0.119158  0  0.999471  0
H  H5  1  0.87271295  0.18936530  0.03311731  1  0  0.111345  0  0.941047  0  0  0.121507  0  0.998781  0  0  0.124679  0  0.998006  0  0  0.107579  0.119228  0  0.999524  0
H  H6  1  0.22688375  0.02398891  0.42661265  1  0  0.073097  0  0.971816  0  0  0.078529  0  1.045298  0  0  0.080899  0  1.042673  0  0  0.102561  0.076711  0  1.047188  0
H  H7  1  0.27312311  0.57336263  0.97600041  1  0  0.073006  0  0.971726  0  0  0.078436  0  1.045214  0  0  0.080828  0  1.042557  0  0  0.102543  0.076619  0  1.047103  0
H  H8  1  0.77311424  0.97601467  0.57339553  1  0  0.073148  0  0.971786  0  0  0.078577  0  1.045268  0  0  0.080971  0  1.042606  0  0  0.102586  0.076759  0  1.047158  0
H  H9  1  0.72686986  0.42664104  0.02401097  1  0  0.072985  0  0.971709  0  0  0.078408  0  1.045221  0  0  0.08083  0  1.042514  0  0  0.102547  0.076592  0  1.047111  0
H  H10  1  0.62003080  0.23372750  0.25275101  1  0  0.107492  0  0.944446  0  0  0.116004  0  1.008072  0  0  0.118758  0  1.005736  0  0  0.105935  0.113915  0  1.009904  0
H  H11  1  0.87997496  0.74722794  0.76627313  1  0  0.107435  0  0.94444  0  0  0.115854  0  1.008188  0  0  0.118604  0  1.005861  0  0  0.105928  0.113766  0  1.010015  0
H  H12  1  0.37996534  0.76626484  0.74724450  1  0  0.107453  0  0.944449  0  0  0.115986  0  1.008082  0  0  0.118741  0  1.005745  0  0  0.105936  0.113881  0  1.00993  0
H  H13  1  0.12002517  0.25276800  0.23371967  1  0  0.107461  0  0.944428  0  0  0.115929  0  1.008129  0  0  0.118683  0  1.005797  0  0  0.105936  0.113842  0  1.009957  0
H  H14  1  0.57194917  0.36754453  0.76919642  1  0  0.077793  0  0.972583  0  0  0.0803  0  1.05136  0  0  0.082888  0  1.048967  0  0  0.104285  0.078321  0  1.053187  0
H  H15  1  0.92804229  0.23079619  0.63245517  1  0  0.07778  0  0.972693  0  0  0.080286  0  1.051453  0  0  0.082891  0  1.049018  0  0  0.104284  0.078311  0  1.053275  0
H  H16  1  0.42805778  0.63246125  0.23080088  1  0  0.077789  0  0.972627  0  0  0.080327  0  1.051363  0  0  0.082921  0  1.048959  0  0  0.104303  0.07835  0  1.053187  0
H  H17  1  0.07196060  0.76920482  0.36754762  1  0  0.077795  0  0.972633  0  0  0.080303  0  1.051391  0  0  0.082911  0  1.048948  0  0  0.104271  0.078327  0  1.053214  0
C  C18  1  0.42024494  0.10925078  0.31594383  1  0  -0.113676  0  3.716844  0  0  -0.125912  0  3.973764  0  0  -0.134715  0  3.99459  0  0  -0.078758  -0.120482  0  3.959974  0
C  C19  1  0.07976584  0.68403637  0.89074520  1  0  -0.113897  0  3.716852  0  0  -0.126159  0  3.973771  0  0  -0.134966  0  3.994606  0  0  -0.078826  -0.120732  0  3.959982  0
C  C20  1  0.57975425  0.89075150  0.68406051  1  0  -0.113743  0  3.717007  0  0  -0.125897  0  3.973891  0  0  -0.134703  0  3.994728  0  0  -0.078711  -0.120467  0  3.960095  0
C  C21  1  0.92023330  0.31596456  0.10925195  1  0  -0.113998  0  3.716778  0  0  -0.126287  0  3.973702  0  0  -0.135099  0  3.994546  0  0  -0.078867  -0.120858  0  3.959913  0
C  C22  1  0.34082404  0.10150882  0.44682981  1  0  0.154557  0  3.657443  0  0  0.1173  0  3.909861  0  0  0.126363  0  3.926824  0  0  0.053484  0.111639  0  3.898341  0
C  C23  1  0.15918243  0.55315181  0.89848084  1  0  0.154805  0  3.656936  0  0  0.117601  0  3.909309  0  0  0.12665  0  3.92627  0  0  0.053583  0.111939  0  3.897792  0
C  C24  1  0.65917667  0.89849846  0.55318006  1  0  0.154428  0  3.657441  0  0  0.117174  0  3.909901  0  0  0.126224  0  3.926863  0  0  0.053402  0.111513  0  3.898381  0
C  C25  1  0.84081168  0.44684923  0.10152061  1  0  0.154947  0  3.656687  0  0  0.117714  0  3.909139  0  0  0.126756  0  3.926097  0  0  0.053606  0.112052  0  3.897622  0
C  C26  1  0.55816350  0.21870220  0.35054965  1  0  0.017213  0  3.657909  0  0  -0.014933  0  3.909903  0  0  -0.007796  0  3.924424  0  0  -0.049732  -0.019306  0  3.900125  0
C  C27  1  0.94184480  0.64943234  0.78129506  1  0  0.017351  0  3.658037  0  0  -0.014687  0  3.909968  0  0  -0.007549  0  3.924482  0  0  -0.0497  -0.019054  0  3.900187  0
C  C28  1  0.44183794  0.78129507  0.64944927  1  0  0.017232  0  3.657787  0  0  -0.014964  0  3.909768  0  0  -0.007831  0  3.924284  0  0  -0.049752  -0.019319  0  3.899996  0
C  C29  1  0.05815917  0.35056478  0.21869616  1  0  0.017359  0  3.657925  0  0  -0.014714  0  3.909857  0  0  -0.007578  0  3.924372  0  0  -0.049708  -0.019084  0  3.900078  0
C  C30  1  0.61696192  0.31308905  0.51505789  1  0  -0.078605  0  3.745876  0  0  -0.058782  0  3.982656  0  0  -0.068869  0  4.005737  0  0  -0.009965  -0.052515  0  3.967432  0
C  C31  1  0.88303956  0.48492893  0.68691030  1  0  -0.078492  0  3.746014  0  0  -0.058714  0  3.982784  0  0  -0.068795  0  4.005857  0  0  -0.009951  -0.052452  0  3.967567  0
C  C32  1  0.38304064  0.68690572  0.48493887  1  0  -0.078463  0  3.745621  0  0  -0.058651  0  3.982415  0  0  -0.068725  0  4.005476  0  0  -0.009956  -0.052389  0  3.967193  0
C  C33  1  0.11696789  0.51506331  0.31308328  1  0  -0.078397  0  3.745813  0  0  -0.058648  0  3.982599  0  0  -0.06873  0  4.005667  0  0  -0.00992  -0.052387  0  3.967386  0
C  C34  1  0.53414938  0.29420364  0.63886910  1  0  0.118051  0  3.65204  0  0  0.076744  0  3.900738  0  0  0.084796  0  3.918158  0  0  0.053727  0.071663  0  3.888967  0
C  C35  1  0.96584730  0.36111876  0.70579588  1  0  0.117979  0  3.652242  0  0  0.076716  0  3.900912  0  0  0.08477  0  3.918334  0  0  0.05374  0.071634  0  3.889142  0
C  C36  1  0.46585504  0.70580229  0.36113479  1  0  0.117856  0  3.652059  0  0  0.076572  0  3.900781  0  0  0.084617  0  3.9182  0  0  0.053674  0.071493  0  3.889009  0
C  C37  1  0.03415777  0.63887603  0.29420205  1  0  0.117838  0  3.65215  0  0  0.076619  0  3.900803  0  0  0.084673  0  3.918227  0  0  0.053694  0.071538  0  3.889034  0
C  C38  1  0.74999765  0.44583665  0.55416586  1  0  0.412666  0  3.701528  0  0  0.393068  0  3.957212  0  0  0.413877  0  3.962643  0  0  0.175526  0.378874  0  3.953613  0
C  C39  1  0.25000115  0.55415812  0.44582968  1  0  0.412599  0  3.701577  0  0  0.392992  0  3.957277  0  0  0.413803  0  3.96271  0  0  0.175453  0.378801  0  3.953677  0
N  N40  1  0.39673101  0.19209513  0.60492990  1  0  -0.315954  0  3.320831  0  0  -0.226582  0  3.589866  0  0  -0.246739  0  3.607046  0  0  -0.331288  -0.21318  0  3.578066  0
N  N41  1  0.10326843  0.39505433  0.80790151  1  0  -0.315959  0  3.320596  0  0  -0.226678  0  3.589777  0  0  -0.246829  0  3.606944  0  0  -0.331338  -0.213278  0  3.577987  0
N  N42  1  0.60327228  0.80791331  0.39507725  1  0  -0.315646  0  3.320403  0  0  -0.226373  0  3.589531  0  0  -0.24653  0  3.606717  0  0  -0.33122  -0.212977  0  3.577742  0
N  N43  1  0.89673063  0.60494549  0.19210175  1  0  -0.315912  0  3.320464  0  0  -0.226668  0  3.589697  0  0  -0.246832  0  3.606885  0  0  -0.331275  -0.213268  0  3.577904  0
Cl  Cl44  1  0.42381199  0.28714110  0.01649474  1  0  -0.559361  0  0.953842  0  0  -0.494438  0  1.233375  0  0  -0.510618  0  1.211844  0  0  -0.304345  -0.482565  0  1.248  0
Cl  Cl45  1  0.07618638  0.98350383  0.71285736  1  0  -0.55935  0  0.95385  0  0  -0.49441  0  1.233372  0  0  -0.51059  0  1.211837  0  0  -0.304332  -0.482536  0  1.247995  0
Cl  Cl46  1  0.57618441  0.71285636  0.98351292  1  0  -0.559342  0  0.95388  0  0  -0.494407  0  1.233413  0  0  -0.510586  0  1.211885  0  0  -0.304345  -0.482533  0  1.248032  0
Cl  Cl47  1  0.92381526  0.01649717  0.28714429  1  0  -0.559328  0  0.953884  0  0  -0.494399  0  1.233425  0  0  -0.510578  0  1.211892  0  0  -0.304327  -0.482528  0  1.248052  0
O  O48  1  0.74999579  0.52542466  0.47458783  1  0  -0.430561  0  1.949098  0  0  -0.389007  0  2.158765  0  0  -0.408972  0  2.163328  0  0  -0.237877  -0.375185  0  2.155481  0
O  O49  1  0.24999960  0.47457616  0.52540256  1  0  -0.430504  0  1.949267  0  0  -0.388918  0  2.158906  0  0  -0.408902  0  2.163503  0  0  -0.237802  -0.375097  0  2.155619  0
