# generated using pymatgen
data_CuH15C16N3O5
_symmetry_space_group_name_H-M   'P 1'
_cell_length_a   9.97985008
_cell_length_b   20.56454571
_cell_length_c   21.31979363
_cell_angle_alpha   86.51377365
_cell_angle_beta   76.46927571
_cell_angle_gamma   75.94817045
_symmetry_Int_Tables_number   1
_chemical_formula_structural   CuH15C16N3O5
_chemical_formula_sum   'Cu8 H120 C128 N24 O40'
_cell_volume   4126.70801874
_cell_formula_units_Z   8
loop_
 _symmetry_equiv_pos_site_id
 _symmetry_equiv_pos_as_xyz
  1  'x, y, z'
loop_
 _atom_site_type_symbol
 _atom_site_label
 _atom_site_symmetry_multiplicity
 _atom_site_fract_x
 _atom_site_fract_y
 _atom_site_fract_z
 _atom_site_occupancy
 _atom_site_pbe_bader_charge
 _atom_site_pbe_bader_spin_density
 _atom_site_pbe_cm5_charge
 _atom_site_pbe_ddec_charge
 _atom_site_pbe_ddec_spin_density
 _atom_site_pbe_ddec_sum_bond_order
 _atom_site_pbe_magmom
Cu  Cu0  1  0.56650226  0.23268753  0.91489644  1  1.082152  0.576564  0.726135  0.772556  0.735545  2.312095  0.576
Cu  Cu1  1  0.51453292  0.42177647  0.76625168  1  1.081801  0.576139  0.726348  0.772771  0.735319  2.314122  0.575
Cu  Cu2  1  0.71401395  0.26733415  0.58508023  1  1.085273  0.576526  0.726234  0.774003  0.735537  2.309728  0.576
Cu  Cu3  1  0.70260701  0.07826675  0.73373902  1  1.081378  0.576107  0.726679  0.773425  0.7358  2.313164  0.575
Cu  Cu4  1  0.43349517  0.76731287  0.08510289  1  1.082152  0.576559  0.726125  0.772424  0.735536  2.312218  0.576
Cu  Cu5  1  0.48545517  0.57822594  0.23375083  1  1.081734  0.576136  0.726377  0.772951  0.735331  2.31385  0.575
Cu  Cu6  1  0.28597552  0.73266274  0.41492161  1  1.085162  0.576551  0.726358  0.774114  0.735576  2.309952  0.576
Cu  Cu7  1  0.29739311  0.92173014  0.26625939  1  1.081436  0.576105  0.72666  0.773388  0.735798  2.313096  0.575
H  H8  1  0.16309609  0.09648917  0.02754371  1  0.535976  0.000164  0.305438  0.288338  9.2e-05  1.007591  0.0
H  H9  1  0.87761357  0.14645667  0.88908664  1  0.083156  -2.3e-05  0.120203  0.094676  -1.7e-05  1.017724  0.0
H  H10  1  0.05609848  0.08469741  0.94909887  1  0.144547  0.000122  0.114811  0.127219  0.000127  1.015846  0.0
H  H11  1  0.72256829  0.11594482  0.12267240  1  0.09785  -1.8e-05  0.113409  0.121605  -1.3e-05  0.991734  0.0
H  H12  1  0.55698121  0.17921900  0.05414531  1  0.055428  -5.3e-05  0.117849  0.090695  -5.1e-05  0.982213  0.0
H  H13  1  0.27095306  0.69230450  0.03062401  1  0.111187  0.001725  0.121005  0.096384  0.000779  1.005473  0.001
H  H14  1  0.32355647  0.58932128  0.96319416  1  0.094137  0.001137  0.107096  0.111993  0.000588  1.015077  0.001
H  H15  1  0.57825275  0.53130078  0.91798028  1  0.106686  5.4e-05  0.113933  0.129474  1.6e-05  1.014721  0.0
H  H16  1  0.69916588  0.68059540  0.01295424  1  0.174958  0.002222  0.121335  0.113666  0.000989  1.046845  0.002
H  H17  1  0.80960255  0.53239816  0.90236000  1  0.529157  0.000195  0.305768  0.290138  0.000125  1.008695  0.0
H  H18  1  0.23596422  0.39197555  0.84525888  1  0.119147  -2.4e-05  0.119892  0.094553  -1.5e-05  1.025182  0.0
H  H19  1  0.00032873  0.44873172  0.91178885  1  0.114812  0.000119  0.114502  0.125626  0.000115  1.011351  0.0
H  H20  1  0.14545795  0.63221074  0.88870252  1  0.108006  -2.2e-05  0.113063  0.120695  -1.7e-05  0.990958  0.0
H  H21  1  0.37737054  0.56656029  0.82115508  1  0.087501  -4.8e-05  0.119022  0.092603  -4.7e-05  0.979433  0.0
H  H22  1  0.19508606  0.39259993  0.65921535  1  0.039008  4.9e-05  0.088227  0.121407  3.2e-05  1.014574  0.0
H  H23  1  0.18946491  0.32549855  0.71565912  1  0.037654  0.001079  0.086179  0.118232  0.000606  1.03368  0.001
H  H24  1  0.16389865  0.31688517  0.63691309  1  0.034382  0.00055  0.089497  0.122583  0.000236  1.017707  0.0
H  H25  1  0.36452215  0.21148940  0.61256871  1  0.023625  0.000659  0.095507  0.142278  0.00034  0.983362  0.0
H  H26  1  0.36990568  0.21668576  0.69520883  1  0.066694  0.000182  0.090747  0.134668  0.000137  1.012096  0.0
H  H27  1  0.52772778  0.20880022  0.63491775  1  0.039774  -0.000819  0.082155  0.098576  -0.0011  1.099199  0.0
H  H28  1  0.53376662  0.97663653  0.19291668  1  0.124197  0.001716  0.121575  0.096834  0.000784  1.005351  0.001
H  H29  1  0.58865527  0.03749612  0.08793473  1  0.062231  0.001163  0.107405  0.111994  0.000591  1.014928  0.001
H  H30  1  0.39446556  0.07998845  0.02825308  1  0.130575  7.7e-05  0.113365  0.128224  3.5e-05  1.017635  0.0
H  H31  1  0.11750189  0.99492012  0.18038277  1  0.171823  0.00222  0.120915  0.113607  0.000987  1.046742  0.002
H  H32  1  0.91239568  0.34433902  0.88649870  1  0.016875  4.6e-05  0.087447  0.120688  2.9e-05  1.014993  0.0
H  H33  1  0.01773433  0.36723487  0.81335069  1  0.040739  0.000574  0.089137  0.122725  0.000249  1.01722  0.0
H  H34  1  0.98447706  0.28546545  0.82262132  1  0.026614  0.001104  0.086021  0.11847  0.000615  1.033508  0.001
H  H35  1  0.90983117  0.30596657  0.71792850  1  0.062297  0.000182  0.090978  0.135359  0.000136  1.011835  0.0
H  H36  1  0.92001433  0.39169199  0.71147899  1  0.046691  0.00069  0.095236  0.140947  0.00036  0.985015  0.0
H  H37  1  0.75920939  0.36872280  0.70958834  1  0.056387  -0.000799  0.082094  0.099832  -0.001082  1.098222  0.0
H  H38  1  0.28719808  0.40351099  0.47245412  1  0.540983  0.000163  0.305899  0.289351  9.2e-05  1.006191  0.0
H  H39  1  0.91340239  0.35352583  0.61088656  1  0.080901  -2.3e-05  0.119875  0.093733  -1.6e-05  1.019244  0.0
H  H40  1  0.09003939  0.41530033  0.55088757  1  0.132576  0.000121  0.114751  0.128291  0.000127  1.01483  0.0
H  H41  1  0.96131198  0.38407035  0.37730771  1  0.095157  -1.8e-05  0.1131  0.121395  -1.3e-05  0.991922  0.0
H  H42  1  0.79042393  0.32086459  0.44583399  1  0.091995  -5.1e-05  0.117776  0.090799  -5.1e-05  0.982384  0.0
H  H43  1  0.99402347  0.80769671  0.46940454  1  0.121065  0.001715  0.121327  0.096986  0.00078  1.004419  0.001
H  H44  1  0.87622868  0.91068064  0.53679109  1  0.08949  0.001137  0.107277  0.111538  0.000589  1.014682  0.001
H  H45  1  0.02761016  0.96870852  0.58202243  1  0.157247  6.5e-05  0.114087  0.129395  1.7e-05  1.014367  0.0
H  H46  1  0.39284208  0.81938204  0.48710100  1  0.158377  0.002237  0.120921  0.113553  0.000989  1.046173  0.002
H  H47  1  0.24436437  0.96762002  0.59766127  1  0.529717  0.000193  0.305766  0.290476  0.000125  1.008878  0.0
H  H48  1  0.47305570  0.10808920  0.65475873  1  0.138239  -2.2e-05  0.119929  0.094572  -1.5e-05  1.02529  0.0
H  H49  1  0.36087092  0.05132575  0.58813626  1  0.128229  0.000115  0.114176  0.125075  0.000114  1.011922  0.0
H  H50  1  0.66636175  0.86785206  0.61135812  1  0.107363  -2.2e-05  0.113177  0.120962  -1.7e-05  0.991274  0.0
H  H51  1  0.76505144  0.93350652  0.67889360  1  0.099  -4.8e-05  0.118888  0.091932  -4.7e-05  0.979304  0.0
H  H52  1  0.24698166  0.10746633  0.84078491  1  0.039628  4.9e-05  0.088319  0.122131  3.2e-05  1.013365  0.0
H  H53  1  0.23062278  0.17456557  0.78434343  1  0.031089  0.001089  0.0865  0.118547  0.000606  1.033057  0.001
H  H54  1  0.11777514  0.18317989  0.86309736  1  0.0552  0.000542  0.089493  0.122682  0.000236  1.01847  0.0
H  H55  1  0.18861805  0.28855292  0.88746077  1  0.027012  0.00066  0.095667  0.1423  0.000341  0.983689  0.0
H  H56  1  0.28176995  0.28337223  0.80481612  1  0.034501  0.000184  0.090812  0.135118  0.000137  1.011507  0.0
H  H57  1  0.37148186  0.29125453  0.86509107  1  0.056085  -0.000818  0.08213  0.098288  -0.001102  1.099229  0.0
H  H58  1  0.70331127  0.52331867  0.30711380  1  0.115732  0.001729  0.120651  0.095711  0.000786  1.005885  0.001
H  H59  1  0.71406585  0.46246338  0.41209214  1  0.079783  0.001152  0.106922  0.111688  0.000591  1.013923  0.001
H  H60  1  0.50268379  0.41996651  0.47173648  1  0.135892  7.7e-05  0.114092  0.129794  3.5e-05  1.017419  0.0
H  H61  1  0.29279500  0.50508276  0.31959673  1  0.171745  0.002217  0.121644  0.114709  0.000987  1.047471  0.002
H  H62  1  0.14320469  0.15566799  0.61345124  1  0.014884  4.5e-05  0.087468  0.120146  2.9e-05  1.015017  0.0
H  H63  1  0.19829275  0.13276715  0.68660680  1  0.049326  0.000572  0.088282  0.121452  0.000249  1.018533  0.0
H  H64  1  0.09250446  0.21453520  0.67733478  1  0.034523  0.001101  0.086157  0.1183  0.000616  1.033544  0.001
H  H65  1  0.93378955  0.19400434  0.78203145  1  0.029233  0.000184  0.090998  0.135809  0.000136  1.011644  0.0
H  H66  1  0.02330037  0.10828035  0.78847223  1  0.053811  0.000686  0.096016  0.142707  0.000358  0.985165  0.0
H  H67  1  0.83763013  0.13125534  0.79036165  1  0.07248  -0.000803  0.082743  0.100634  -0.001082  1.099394  0.0
H  H68  1  0.83690619  0.90351073  0.97245514  1  0.535989  0.000164  0.305461  0.288383  9.2e-05  1.007558  0.0
H  H69  1  0.12238733  0.85354323  0.11091256  1  0.083154  -2.3e-05  0.120225  0.094712  -1.7e-05  1.017723  0.0
H  H70  1  0.94390262  0.91530299  0.05090092  1  0.144471  0.000122  0.114814  0.127223  0.000127  1.015876  0.0
H  H71  1  0.27743348  0.88405608  0.87732749  1  0.097836  -1.8e-05  0.113397  0.121603  -1.3e-05  0.991728  0.0
H  H72  1  0.44302080  0.82078141  0.94585459  1  0.055409  -5.3e-05  0.11785  0.090725  -5.1e-05  0.982169  0.0
H  H73  1  0.72904531  0.30769490  0.96937591  1  0.111223  0.001725  0.120984  0.096353  0.000779  1.005466  0.001
H  H74  1  0.67644488  0.41067862  0.03680562  1  0.094123  0.001137  0.107089  0.111972  0.000588  1.01509  0.001
H  H75  1  0.42174835  0.46869962  0.08201950  1  0.106688  5.4e-05  0.113922  0.129449  1.6e-05  1.014713  0.0
H  H76  1  0.30083430  0.31940500  0.98704543  1  0.174932  0.002222  0.121366  0.113666  0.000989  1.046784  0.002
H  H77  1  0.19039833  0.46760174  0.09764025  1  0.529175  0.000195  0.305754  0.290119  0.000125  1.008718  0.0
H  H78  1  0.76403572  0.60802435  0.15474231  1  0.119142  -2.4e-05  0.119897  0.094599  -1.5e-05  1.02513  0.0
H  H79  1  0.99967005  0.55126868  0.08821223  1  0.114813  0.000119  0.11452  0.125642  0.000115  1.011345  0.0
H  H80  1  0.85454062  0.36778916  0.11129798  1  0.107994  -2.2e-05  0.113069  0.120689  -1.7e-05  0.990968  0.0
H  H81  1  0.62262940  0.43343961  0.17884611  1  0.087457  -4.8e-05  0.119008  0.092595  -4.7e-05  0.979434  0.0
H  H82  1  0.80491484  0.60739997  0.34078385  1  0.039016  4.9e-05  0.088231  0.121416  3.2e-05  1.014561  0.0
H  H83  1  0.81053738  0.67450135  0.28433972  1  0.038001  0.001078  0.086173  0.118221  0.000606  1.033693  0.001
H  H84  1  0.83610108  0.68311523  0.36308600  1  0.03439  0.00055  0.089479  0.122569  0.000236  1.017712  0.0
H  H85  1  0.63547807  0.78851000  0.38743143  1  0.023644  0.000659  0.095514  0.142273  0.00034  0.983366  0.0
H  H86  1  0.63009450  0.78331464  0.30479084  1  0.06668  0.000182  0.090745  0.134689  0.000137  1.012064  0.0
H  H87  1  0.47227152  0.79119918  0.36508228  1  0.039523  -0.000818  0.082167  0.098602  -0.0011  1.099171  0.0
H  H88  1  0.46623356  0.02336387  0.80708300  1  0.124214  0.001716  0.121582  0.09684  0.000784  1.005341  0.001
H  H89  1  0.41134844  0.96250278  0.91206423  1  0.062313  0.001163  0.10739  0.111952  0.000591  1.014957  0.001
H  H90  1  0.60553794  0.92000994  0.97174530  1  0.130565  7.7e-05  0.113381  0.12826  3.5e-05  1.017616  0.0
H  H91  1  0.88249975  0.00507929  0.81961492  1  0.17179  0.00222  0.120926  0.113645  0.000987  1.046715  0.002
H  H92  1  0.08760545  0.65566038  0.11350155  1  0.016877  4.6e-05  0.087438  0.12067  2.9e-05  1.015047  0.0
H  H93  1  0.98226449  0.63276453  0.18664981  1  0.040711  0.000574  0.089165  0.122761  0.000249  1.017264  0.0
H  H94  1  0.01552432  0.71453345  0.17737894  1  0.02647  0.001104  0.086037  0.118479  0.000615  1.033559  0.001
H  H95  1  0.09016855  0.69403383  0.28207164  1  0.062288  0.000182  0.090999  0.135386  0.000136  1.011762  0.0
H  H96  1  0.07998425  0.60830791  0.28852150  1  0.046667  0.00069  0.095246  0.140962  0.00036  0.984991  0.0
H  H97  1  0.24078944  0.63127660  0.29041216  1  0.05638  -0.0008  0.08211  0.099865  -0.001082  1.098248  0.0
H  H98  1  0.71280115  0.59648941  0.52754754  1  0.540992  0.000163  0.305902  0.289341  9.2e-05  1.006243  0.0
H  H99  1  0.08659732  0.64647458  0.38911358  1  0.080904  -2.3e-05  0.119856  0.09372  -1.6e-05  1.019228  0.0
H  H100  1  0.90996332  0.58469957  0.44911291  1  0.132621  0.000121  0.114757  0.128322  0.000127  1.014839  0.0
H  H101  1  0.03868915  0.61592905  0.62269255  1  0.09515  -1.8e-05  0.113105  0.121368  -1.3e-05  0.991891  0.0
H  H102  1  0.20957810  0.67913481  0.55416743  1  0.092266  -5.1e-05  0.11775  0.090772  -5.1e-05  0.982381  0.0
H  H103  1  0.00597391  0.19230469  0.53059537  1  0.121066  0.001715  0.121315  0.09698  0.00078  1.004354  0.001
H  H104  1  0.12376959  0.08932076  0.46320998  1  0.089483  0.001137  0.107263  0.111525  0.000589  1.014811  0.001
H  H105  1  0.97238882  0.03129138  0.41798075  1  0.157312  6.5e-05  0.114057  0.129329  1.7e-05  1.014443  0.0
H  H106  1  0.60715554  0.18061786  0.51290149  1  0.158376  0.002237  0.120914  0.113545  0.00099  1.046164  0.002
H  H107  1  0.75563694  0.03237988  0.40234061  1  0.529725  0.000193  0.305787  0.290525  0.000125  1.00881  0.0
H  H108  1  0.52694451  0.89191020  0.34524142  1  0.138244  -2.2e-05  0.119983  0.094661  -1.5e-05  1.025238  0.0
H  H109  1  0.63912999  0.94867315  0.41186446  1  0.128197  0.000115  0.114171  0.125059  0.000114  1.011922  0.0
H  H110  1  0.33364075  0.13214734  0.38864283  1  0.106989  -2.2e-05  0.113178  0.120959  -1.7e-05  0.991311  0.0
H  H111  1  0.23495036  0.06649338  0.32110677  1  0.099038  -4.8e-05  0.11888  0.09197  -4.7e-05  0.979366  0.0
H  H112  1  0.75302013  0.89253357  0.15921546  1  0.039639  4.9e-05  0.088291  0.122098  3.2e-05  1.013379  0.0
H  H113  1  0.76937810  0.82543433  0.21565682  1  0.031087  0.001089  0.086482  0.118512  0.000606  1.033042  0.001
H  H114  1  0.88222507  0.81681950  0.13690278  1  0.055188  0.000542  0.089482  0.122657  0.000236  1.018474  0.0
H  H115  1  0.81138285  0.71144698  0.11253843  1  0.026995  0.00066  0.095673  0.142302  0.000341  0.983663  0.0
H  H116  1  0.71823095  0.71662768  0.19518308  1  0.034456  0.000184  0.090819  0.135115  0.000137  1.011533  0.0
H  H117  1  0.62851926  0.70874587  0.13490767  1  0.056091  -0.000818  0.082126  0.098284  -0.001102  1.099254  0.0
H  H118  1  0.29668801  0.47668174  0.69288470  1  0.115735  0.001729  0.120643  0.095704  0.000786  1.005859  0.001
H  H119  1  0.28593249  0.53753702  0.58790731  1  0.079757  0.001152  0.106937  0.111715  0.000591  1.013867  0.001
H  H120  1  0.49731449  0.58003489  0.52826460  1  0.135888  7.7e-05  0.114095  0.129784  3.5e-05  1.017429  0.0
H  H121  1  0.70720221  0.49491715  0.68040308  1  0.171775  0.002217  0.121663  0.114738  0.000987  1.047441  0.002
H  H122  1  0.85679524  0.84433292  0.38654843  1  0.014888  4.6e-05  0.08747  0.120138  2.9e-05  1.015145  0.0
H  H123  1  0.80170743  0.86723325  0.31339287  1  0.049324  0.000572  0.088283  0.121452  0.000249  1.018531  0.0
H  H124  1  0.90749548  0.78546570  0.32266489  1  0.034548  0.0011  0.086176  0.118327  0.000616  1.033524  0.001
H  H125  1  0.06620877  0.80599606  0.21796905  1  0.029235  0.000184  0.090998  0.135825  0.000136  1.011642  0.0
H  H126  1  0.97669842  0.89172005  0.21152780  1  0.053703  0.000686  0.096031  0.142708  0.000358  0.985175  0.0
H  H127  1  0.16236894  0.86874456  0.20963733  1  0.072455  -0.000803  0.082749  0.100664  -0.001082  1.099374  0.0
C  C128  1  0.43024624  0.32727438  0.56798389  1  1.58874  -0.000358  0.213124  0.5868  -0.000394  4.110127  -0.001
C  C129  1  0.38175039  0.30863546  0.64011562  1  0.046362  0.011102  -0.021144  -0.023469  0.007192  3.843778  0.009
C  C130  1  0.46961678  0.33486667  0.67896064  1  1.538619  -0.003019  0.218609  0.579879  -0.00314  4.058344  -0.005
C  C131  1  0.84763153  0.13892087  0.94098661  1  0.533534  -0.00059  0.052582  0.108832  -0.000637  3.922633  0.0
C  C132  1  0.94697903  0.10430607  0.97487240  1  0.01594  0.000412  -0.078562  -0.146301  0.000259  3.92523  0.0
C  C133  1  0.90238521  0.09620460  0.04147888  1  -0.159221  -0.000617  0.003409  0.01477  -0.000685  3.967246  0.0
C  C134  1  0.99716126  0.05893868  0.08360346  1  1.397733  9.8e-05  0.242634  0.472399  7.2e-05  4.11757  0.0
C  C135  1  0.24074882  0.04090128  0.09985138  1  0.392711  0.004955  0.107816  0.217023  0.003307  3.995728  0.004
C  C136  1  0.75967354  0.12256444  0.07091996  1  0.047589  0.000286  -0.081188  -0.158229  0.000187  3.96962  0.0
C  C137  1  0.66868710  0.15714892  0.03330422  1  0.527334  -0.000565  0.043069  0.08735  -0.000625  3.977981  0.0
C  C138  1  0.37922636  0.66519356  0.01025193  1  0.451399  -0.001614  0.035478  0.063783  -0.001988  3.959759  -0.001
C  C139  1  0.40985747  0.60803229  0.97288738  1  -0.004954  0.005005  -0.085065  -0.10981  0.003376  4.011794  0.004
C  C140  1  0.55028174  0.57556083  0.94837800  1  -0.015227  -0.00399  -0.070713  -0.131001  -0.004485  3.904519  -0.002
C  C141  1  0.65838874  0.60137864  0.96221690  1  0.343588  0.005024  0.108655  0.219835  0.003324  3.995785  0.004
C  C142  1  0.61956547  0.65885072  0.00099991  1  0.52071  -0.001478  0.041348  -0.008021  -0.001669  3.869679  -0.001
C  C143  1  0.69419844  0.32428586  0.83186737  1  1.550825  -0.003186  0.220572  0.583361  -0.003412  4.055845  -0.005
C  C144  1  0.21139315  0.44520565  0.85590844  1  0.508159  -0.00054  0.052246  0.108657  -0.000583  3.926531  0.0
C  C145  1  0.07984075  0.47726674  0.89293857  1  -0.033449  0.000385  -0.076276  -0.142048  0.000257  3.926145  0.0
C  C146  1  0.05437160  0.54580248  0.90465197  1  -0.019778  -0.000577  0.003846  0.014968  -0.000641  3.968808  0.0
C  C147  1  0.91805481  0.58588569  0.94438224  1  1.372779  0.000102  0.244322  0.477028  7.3e-05  4.114293  0.0
C  C148  1  0.16274692  0.57892501  0.87943486  1  -0.085528  0.000281  -0.081027  -0.156576  0.000184  3.971296  0.0
C  C149  1  0.29017566  0.54289706  0.84239922  1  0.535801  -0.00055  0.044093  0.085494  -0.000607  3.982047  0.0
C  C150  1  0.22313782  0.33794116  0.66456538  1  -0.070244  0.000628  -0.250137  -0.398054  0.000704  3.969703  0.0
C  C151  1  0.41343941  0.23156321  0.64578339  1  -0.087062  -0.001013  -0.243202  -0.396103  -0.001327  3.889546  -0.001
C  C152  1  0.45360932  0.99578553  0.16522034  1  0.414325  -0.001447  0.033821  0.062032  -0.001893  3.962214  -0.001
C  C153  1  0.48257264  0.02964883  0.10699741  1  0.023088  0.004923  -0.085826  -0.108571  0.003379  4.006082  0.004
C  C154  1  0.37604589  0.05250189  0.07364251  1  -0.015068  -0.003878  -0.069562  -0.128479  -0.004359  3.900647  -0.002
C  C155  1  0.21967753  0.00543578  0.15846015  1  0.521729  -0.001417  0.043507  -0.005654  -0.001635  3.867987  -0.001
C  C156  1  0.74132462  0.43931966  0.82229862  1  1.581786  -0.000522  0.213365  0.58657  -0.000523  4.111227  -0.002
C  C157  1  0.80783632  0.36412176  0.80556722  1  0.004133  0.011318  -0.02118  -0.024084  0.007343  3.847229  0.009
C  C158  1  0.93813122  0.33862034  0.83394642  1  -0.037482  0.00064  -0.249595  -0.399177  0.000733  3.970407  0.0
C  C159  1  0.85148656  0.35747503  0.73147712  1  -0.089727  -0.000974  -0.243524  -0.396273  -0.001296  3.886105  -0.001
C  C160  1  0.32571202  0.17274042  0.93198984  1  1.582395  -0.000338  0.211278  0.582115  -0.000383  4.113085  -0.001
C  C161  1  0.33061366  0.19142316  0.85987157  1  0.040482  0.011118  -0.020584  -0.021491  0.007211  3.846173  0.009
C  C162  1  0.48352128  0.16522057  0.82099507  1  1.557267  -0.002997  0.219542  0.579857  -0.003141  4.058987  -0.005
C  C163  1  0.92780924  0.36106375  0.55898260  1  0.518525  -0.000584  0.052772  0.111158  -0.000628  3.926538  0.0
C  C164  1  0.02632583  0.39570367  0.52509749  1  -0.036061  0.000412  -0.077485  -0.146419  0.00026  3.928296  0.0
C  C165  1  0.04023882  0.40380222  0.45849100  1  -0.090617  -0.000611  0.003245  0.013213  -0.000677  3.969758  0.0
C  C166  1  0.13985643  0.44104345  0.41634781  1  1.418187  9.9e-05  0.241091  0.470803  7.3e-05  4.125235  0.0
C  C167  1  0.38154942  0.45908559  0.40012472  1  0.378695  0.004969  0.108458  0.219042  0.00331  3.996535  0.004
C  C168  1  0.95337572  0.37743706  0.42904952  1  -0.017764  0.000282  -0.080737  -0.156126  0.000186  3.970917  0.0
C  C169  1  0.85929117  0.34290048  0.46666511  1  0.538161  -0.000559  0.042713  0.086124  -0.000619  3.981972  0.0
C  C170  1  0.05483409  0.83478930  0.48977721  1  0.45987  -0.001658  0.034029  0.062086  -0.001991  3.960069  -0.001
C  C171  1  0.99093444  0.89195919  0.52712870  1  -0.02087  0.00501  -0.085363  -0.110189  0.003373  4.011908  0.004
C  C172  1  0.07431555  0.92442967  0.55165761  1  -0.066088  -0.003991  -0.069853  -0.128561  -0.00448  3.904126  -0.002
C  C173  1  0.22208119  0.89860025  0.53784779  1  0.379684  0.005005  0.107618  0.217399  0.003324  3.996916  0.004
C  C174  1  0.27954325  0.84113433  0.49905790  1  0.556974  -0.001488  0.040955  -0.009376  -0.001656  3.869725  -0.001
C  C175  1  0.85032801  0.17577050  0.66815620  1  1.538475  -0.003145  0.220514  0.582432  -0.003398  4.05445  -0.005
C  C176  1  0.51241415  0.05486303  0.64409707  1  0.472825  -0.000544  0.053212  0.109414  -0.000583  3.925081  0.0
C  C177  1  0.45007677  0.02280712  0.60700689  1  -0.04462  0.000385  -0.076321  -0.141513  0.000256  3.924792  0.0
C  C178  1  0.50487120  0.95426079  0.59534134  1  -0.048299  -0.000577  0.0038  0.015182  -0.000641  3.970869  0.0
C  C179  1  0.44838409  0.91412617  0.55566744  1  1.408847  0.0001  0.242342  0.475033  7.3e-05  4.116194  0.0
C  C180  1  0.62109194  0.92114391  0.62060953  1  -0.024712  0.000282  -0.080104  -0.157704  0.000184  3.973932  0.0
C  C181  1  0.67542332  0.95717422  0.65764920  1  0.490057  -0.000552  0.043593  0.087864  -0.000608  3.980246  0.0
C  C182  1  0.22572188  0.16212484  0.83543333  1  -0.08088  0.000637  -0.251192  -0.400017  0.000705  3.971261  0.0
C  C183  1  0.29081130  0.26849622  0.85423805  1  -0.075371  -0.00102  -0.243539  -0.396878  -0.001327  3.889281  -0.001
C  C184  1  0.61461925  0.50416681  0.33479282  1  0.451685  -0.0015  0.034032  0.062658  -0.001897  3.963291  -0.001
C  C185  1  0.61920375  0.47032412  0.39301962  1  -0.066787  0.00499  -0.084599  -0.107628  0.003383  4.00567  0.004
C  C186  1  0.50222377  0.44744581  0.42634164  1  0.032837  -0.003878  -0.070418  -0.130722  -0.004365  3.901814  -0.002
C  C187  1  0.38357162  0.49456738  0.34152897  1  0.511425  -0.001395  0.041452  -0.009126  -0.001634  3.869917  -0.001
C  C188  1  0.00297989  0.06070467  0.67759775  1  1.601395  -0.000503  0.213504  0.587975  -0.000529  4.109243  -0.002
C  C189  1  0.97754158  0.13588705  0.69438153  1  -0.002173  0.01129  -0.023127  -0.026028  0.007334  3.846867  0.009
C  C190  1  0.11066346  0.16138694  0.66600127  1  -0.04728  0.000645  -0.248131  -0.395985  0.000734  3.97069  0.0
C  C191  1  0.94053402  0.14249892  0.76847183  1  -0.078389  -0.000982  -0.244471  -0.399401  -0.001298  3.889256  -0.001
C  C192  1  0.56974308  0.67272753  0.43201558  1  1.589301  -0.000355  0.213257  0.58686  -0.000391  4.110238  -0.001
C  C193  1  0.61824408  0.69136444  0.35988279  1  0.04615  0.011102  -0.021082  -0.023439  0.007192  3.843848  0.009
C  C194  1  0.53037345  0.66513423  0.32104152  1  1.538632  -0.003018  0.218497  0.579744  -0.003138  4.058616  -0.005
C  C195  1  0.15236890  0.86107903  0.05901307  1  0.53354  -0.000591  0.05256  0.108786  -0.000637  3.922675  0.0
C  C196  1  0.05302227  0.89569483  0.02512796  1  0.016028  0.000412  -0.078587  -0.146336  0.000259  3.925269  0.0
C  C197  1  0.09761706  0.90379530  0.95852102  1  -0.159347  -0.000617  0.003397  0.014676  -0.000685  3.967348  0.0
C  C198  1  0.00284190  0.94106223  0.91639608  1  1.398014  9.8e-05  0.24276  0.472627  7.2e-05  4.117377  0.0
C  C199  1  0.75925465  0.95909812  0.90014653  1  0.392657  0.004956  0.107795  0.217049  0.003307  3.995588  0.004
C  C200  1  0.24032681  0.87743746  0.92907982  1  0.047636  0.000286  -0.081173  -0.158181  0.000187  3.969678  0.0
C  C201  1  0.33131489  0.84285248  0.96669520  1  0.52734  -0.000565  0.043028  0.087257  -0.000625  3.977976  0.0
C  C202  1  0.62077337  0.33480685  0.98974716  1  0.451366  -0.001614  0.035496  0.063844  -0.001988  3.959709  -0.001
C  C203  1  0.59014388  0.39196761  0.02711240  1  -0.004945  0.005006  -0.085039  -0.109796  0.003376  4.011736  0.004
C  C204  1  0.44971889  0.42443957  0.05162225  1  -0.015248  -0.00399  -0.070674  -0.130907  -0.004485  3.90434  -0.002
C  C205  1  0.34161211  0.39862227  0.03778288  1  0.343605  0.005024  0.108656  0.219776  0.003324  3.99577  0.004
C  C206  1  0.38043496  0.34114918  0.99899976  1  0.520754  -0.001478  0.041314  -0.00802  -0.00167  3.869601  -0.001
C  C207  1  0.30580036  0.67571454  0.16813266  1  1.550796  -0.003186  0.220615  0.583464  -0.003412  4.055684  -0.005
C  C208  1  0.78860910  0.55479425  0.14409251  1  0.508097  -0.000539  0.052204  0.108608  -0.000582  3.926571  0.0
C  C209  1  0.92015850  0.52273366  0.10706204  1  -0.033436  0.000384  -0.076297  -0.142085  0.000257  3.926171  0.0
C  C210  1  0.94562741  0.45419842  0.09534759  1  -0.019784  -0.000577  0.003849  0.014942  -0.00064  3.968764  0.0
C  C211  1  0.08194467  0.41411521  0.05561685  1  1.37256  0.000102  0.244268  0.477027  7.2e-05  4.114283  0.0
C  C212  1  0.83725305  0.42107489  0.12056528  1  -0.08551  0.000281  -0.081027  -0.156548  0.000184  3.971308  0.0
C  C213  1  0.70982542  0.45710334  0.15760161  1  0.53586  -0.000549  0.044098  0.085488  -0.000606  3.982134  0.0
C  C214  1  0.77686100  0.66205924  0.33543359  1  -0.070554  0.000628  -0.250104  -0.397997  0.000704  3.969646  0.0
C  C215  1  0.58655944  0.76843619  0.35421606  1  -0.086801  -0.001013  -0.243262  -0.396191  -0.001327  3.889576  -0.001
C  C216  1  0.54639205  0.00421437  0.83477840  1  0.41434  -0.001447  0.033848  0.062086  -0.001894  3.962114  -0.001
C  C217  1  0.51743015  0.97035007  0.89300144  1  0.023063  0.004923  -0.085872  -0.108613  0.003379  4.006036  0.004
C  C218  1  0.62395875  0.94749701  0.92635551  1  -0.015071  -0.003878  -0.069599  -0.128559  -0.004359  3.900695  -0.002
C  C219  1  0.78032549  0.99456362  0.84153718  1  0.521836  -0.001417  0.043491  -0.005684  -0.001636  3.867848  -0.001
C  C220  1  0.25867535  0.56068024  0.17770152  1  1.581973  -0.000523  0.213345  0.586547  -0.000523  4.111349  -0.002
C  C221  1  0.19216297  0.63587764  0.19443281  1  0.004148  0.011319  -0.021179  -0.024087  0.007344  3.847201  0.009
C  C222  1  0.06186808  0.66137906  0.16605361  1  -0.037325  0.000639  -0.249641  -0.399241  0.000733  3.970616  0.0
C  C223  1  0.14851362  0.64252537  0.26852255  1  -0.089699  -0.000974  -0.243565  -0.396361  -0.001296  3.886077  -0.001
C  C224  1  0.67428936  0.82725848  0.06801042  1  1.581992  -0.000338  0.211209  0.582015  -0.000383  4.113261  -0.001
C  C225  1  0.66938724  0.80857674  0.14012763  1  0.040496  0.011116  -0.020601  -0.021461  0.007209  3.846184  0.009
C  C226  1  0.51648359  0.83477883  0.17900249  1  1.557082  -0.002998  0.21951  0.579783  -0.003141  4.059047  -0.005
C  C227  1  0.07219411  0.63893766  0.44101752  1  0.518558  -0.000585  0.052751  0.111124  -0.000628  3.926515  0.0
C  C228  1  0.97367663  0.60429673  0.47490299  1  -0.035986  0.000412  -0.077394  -0.146363  0.00026  3.928296  0.0
C  C229  1  0.95976204  0.59619768  0.54151030  1  -0.090736  -0.000612  0.003182  0.013079  -0.000678  3.969782  0.0
C  C230  1  0.86014473  0.55895495  0.58365292  1  1.418225  9.9e-05  0.24115  0.470902  7.3e-05  4.125174  0.0
C  C231  1  0.61844849  0.54091381  0.59987567  1  0.37866  0.004969  0.108418  0.219018  0.003309  3.996461  0.004
C  C232  1  0.04662630  0.62256335  0.57095037  1  -0.017807  0.000282  -0.080731  -0.156007  0.000186  3.970835  0.0
C  C233  1  0.14071223  0.65709992  0.53333443  1  0.537992  -0.000559  0.042707  0.086009  -0.00062  3.982037  0.0
C  C234  1  0.94516726  0.16521060  0.51022258  1  0.459336  -0.001656  0.034064  0.062177  -0.00199  3.959834  -0.001
C  C235  1  0.00906759  0.10804122  0.47287014  1  -0.020138  0.005008  -0.085309  -0.110159  0.003373  4.011942  0.004
C  C236  1  0.92568206  0.07557023  0.44834488  1  -0.066439  -0.003991  -0.069855  -0.12851  -0.004479  3.904223  -0.002
C  C237  1  0.77791694  0.10139865  0.46215365  1  0.379412  0.005004  0.107571  0.217327  0.003324  3.997151  0.004
C  C238  1  0.72045494  0.15886357  0.50094296  1  0.556917  -0.001487  0.041015  -0.009312  -0.001656  3.869755  -0.001
C  C239  1  0.14967640  0.82422689  0.33184487  1  1.538357  -0.003143  0.220591  0.582464  -0.003397  4.054305  -0.005
C  C240  1  0.48758836  0.94513637  0.35590283  1  0.472854  -0.000544  0.053144  0.109301  -0.000583  3.924996  0.0
C  C241  1  0.54992389  0.97719228  0.39299384  1  -0.044677  0.000386  -0.076292  -0.141451  0.000256  3.924733  0.0
C  C242  1  0.49512737  0.04573810  0.40466173  1  -0.048235  -0.000577  0.00375  0.015174  -0.000641  3.970961  0.0
C  C243  1  0.55161515  0.08587424  0.44433317  1  1.408843  0.0001  0.242391  0.475124  7.3e-05  4.116183  0.0
C  C244  1  0.37891053  0.07885649  0.37939095  1  -0.024459  0.000282  -0.08012  -0.157759  0.000184  3.974065  0.0
C  C245  1  0.32457965  0.04282518  0.34235129  1  0.490164  -0.000552  0.04361  0.087821  -0.000608  3.980441  0.0
C  C246  1  0.77427880  0.83787456  0.16456634  1  -0.080874  0.000637  -0.251115  -0.399891  0.000705  3.971194  0.0
C  C247  1  0.70918913  0.73150369  0.14576162  1  -0.075311  -0.00102  -0.243546  -0.396884  -0.001328  3.889303  -0.001
C  C248  1  0.38538212  0.49583309  0.66520591  1  0.451696  -0.0015  0.033998  0.062656  -0.001897  3.963396  -0.001
C  C249  1  0.38079434  0.52967679  0.60697982  1  -0.066818  0.00499  -0.084592  -0.107647  0.003383  4.005752  0.004
C  C250  1  0.49777339  0.55255510  0.57365874  1  0.032856  -0.003878  -0.070389  -0.130673  -0.004365  3.901718  -0.002
C  C251  1  0.61642676  0.50543202  0.65847095  1  0.511396  -0.001394  0.04141  -0.009193  -0.001633  3.869614  -0.001
C  C252  1  0.99702406  0.93929373  0.32240122  1  1.60134  -0.000503  0.21365  0.588253  -0.000529  4.109194  -0.002
C  C253  1  0.02246097  0.86411135  0.30561884  1  -0.002214  0.011289  -0.023159  -0.026127  0.007334  3.846774  0.009
C  C254  1  0.88933626  0.83861347  0.33399887  1  -0.047309  0.000645  -0.248143  -0.395976  0.000733  3.970761  0.0
C  C255  1  0.05946594  0.85750098  0.23152831  1  -0.078256  -0.000982  -0.244509  -0.399481  -0.001299  3.889268  -0.001
N  N256  1  0.13388548  0.06615434  0.06663432  1  -1.291096  0.001066  -0.387245  -0.371803  0.000583  3.557497  0.001
N  N257  1  0.32490156  0.98354261  0.18950334  1  -1.233854  0.075475  -0.348531  -0.224582  0.050056  3.674109  0.066
N  N258  1  0.71175794  0.16545553  0.96928457  1  -1.241166  -0.001351  -0.331667  -0.262378  -0.001006  3.522225  0.0
N  N259  1  0.48292291  0.68929323  0.02402878  1  -1.218649  0.075738  -0.346771  -0.222453  0.050169  3.673736  0.066
N  N260  1  0.79885707  0.56931742  0.93555463  1  -1.240157  0.001107  -0.389463  -0.377053  0.000622  3.557242  0.001
N  N261  1  0.31430521  0.47704972  0.83059561  1  -1.229024  -0.001421  -0.332155  -0.262526  -0.00103  3.526974  0.0
N  N262  1  0.26676202  0.43384779  0.43334969  1  -1.299164  0.001067  -0.388417  -0.373277  0.000585  3.559828  0.001
N  N263  1  0.49795626  0.51643496  0.31049657  1  -1.222607  0.075573  -0.347211  -0.222548  0.050093  3.675517  0.066
N  N264  1  0.84668736  0.33457174  0.53068439  1  -1.224075  -0.001364  -0.331857  -0.264395  -0.001014  3.523703  0.0
N  N265  1  0.19640401  0.81068747  0.47600736  1  -1.25012  0.075793  -0.34517  -0.219981  0.050191  3.672833  0.066
N  N266  1  0.30378786  0.93066925  0.56450642  1  -1.285609  0.001121  -0.387849  -0.374486  0.000622  3.557601  0.001
N  N267  1  0.62186476  0.02302411  0.66943333  1  -1.220821  -0.001425  -0.332475  -0.264025  -0.001031  3.52673  0.0
N  N268  1  0.86611680  0.93384556  0.93336453  1  -1.291068  0.001066  -0.387299  -0.371929  0.000582  3.557389  0.001
N  N269  1  0.67510033  0.01645629  0.81049434  1  -1.233954  0.075475  -0.348496  -0.224556  0.050055  3.674093  0.066
N  N270  1  0.28824316  0.83454487  0.03071522  1  -1.241192  -0.001352  -0.331622  -0.262267  -0.001006  3.522171  0.0
N  N271  1  0.51707661  0.31070668  0.97597078  1  -1.218669  0.075739  -0.346789  -0.222522  0.05017  3.673735  0.066
N  N272  1  0.20114381  0.43068248  0.06444562  1  -1.239955  0.001107  -0.38944  -0.377006  0.000621  3.557227  0.001
N  N273  1  0.68569587  0.52295068  0.16940522  1  -1.228966  -0.001421  -0.332119  -0.262553  -0.00103  3.526965  0.0
N  N274  1  0.73323747  0.56615212  0.56665092  1  -1.299135  0.001067  -0.388471  -0.373299  0.000584  3.559962  0.001
N  N275  1  0.50204068  0.48356545  0.68950428  1  -1.22259  0.075568  -0.347121  -0.222461  0.05009  3.675283  0.066
N  N276  1  0.15331365  0.66543067  0.46931550  1  -1.224116  -0.001363  -0.331848  -0.264276  -0.001013  3.52373  0.0
N  N277  1  0.80359653  0.18930942  0.52399268  1  -1.250036  0.075794  -0.34519  -0.220027  0.050192  3.672878  0.066
N  N278  1  0.69621212  0.06932965  0.43549525  1  -1.285286  0.001121  -0.38785  -0.374507  0.000622  3.557639  0.001
N  N279  1  0.37813659  0.97697579  0.33056645  1  -1.220828  -0.001425  -0.332428  -0.26395  -0.001031  3.526646  0.0
O  O280  1  0.56026211  0.30363936  0.53865261  1  -1.119486  0.108835  -0.333227  -0.556494  0.06938  2.340499  0.098
O  O281  1  0.60405125  0.32381106  0.65989435  1  -1.11089  0.088325  -0.315834  -0.52458  0.056207  2.396786  0.082
O  O282  1  0.94918968  0.02567349  0.13020931  1  -1.133404  0.000378  -0.2938  -0.477479  0.000251  2.086448  0.0
O  O283  1  0.72851311  0.27160851  0.86473592  1  -1.121171  0.107652  -0.299435  -0.494468  0.069163  2.348185  0.097
O  O284  1  0.56982015  0.34440528  0.82170287  1  -1.121485  0.088666  -0.318408  -0.528723  0.056392  2.39653  0.082
O  O285  1  0.40318179  0.36868456  0.72959209  1  -1.119663  0.105479  -0.299983  -0.496853  0.067859  2.351254  0.095
O  O286  1  0.79817328  0.46793727  0.85549486  1  -1.185083  0.026875  -0.314538  -0.537923  0.016954  2.195091  0.023
O  O287  1  0.33992172  0.36332382  0.54062844  1  -1.198919  0.026452  -0.311957  -0.53601  0.016702  2.197593  0.023
O  O288  1  0.91917781  0.63052226  0.98069443  1  -1.12435  0.000382  -0.293901  -0.478856  0.000253  2.085277  0.0
O  O289  1  0.63271462  0.46979329  0.80019996  1  -1.11918  0.110543  -0.334087  -0.554437  0.070234  2.337075  0.1
O  O290  1  0.40277859  0.19635073  0.96131721  1  -1.123917  0.108777  -0.331234  -0.552174  0.069308  2.342957  0.098
O  O291  1  0.58784355  0.17627629  0.84005052  1  -1.127406  0.088325  -0.316257  -0.524646  0.056139  2.397148  0.082
O  O292  1  0.10521841  0.47425978  0.36971022  1  -1.131824  0.000379  -0.292661  -0.476585  0.000252  2.089504  0.0
O  O293  1  0.86481758  0.22843140  0.63526271  1  -1.116848  0.107574  -0.300631  -0.495927  0.069059  2.347999  0.097
O  O294  1  0.73588321  0.15568453  0.67837588  1  -1.113578  0.088739  -0.317212  -0.526728  0.056411  2.395263  0.082
O  O295  1  0.50149853  0.13139707  0.77037780  1  -1.117621  0.105594  -0.300771  -0.496988  0.067932  2.35154  0.095
O  O296  1  0.12162577  0.03210272  0.64436889  1  -1.197086  0.026811  -0.314377  -0.538421  0.016927  2.195887  0.023
O  O297  1  0.24416251  0.13666268  0.95932795  1  -1.187192  0.026473  -0.312418  -0.535791  0.016721  2.196819  0.023
O  O298  1  0.53045014  0.86947028  0.51936434  1  -1.129132  0.000381  -0.293852  -0.479061  0.000253  2.085978  0.0
O  O299  1  0.90278323  0.03022689  0.69971875  1  -1.126429  0.110467  -0.334385  -0.555418  0.070249  2.335904  0.1
O  O300  1  0.43972613  0.69636205  0.46134407  1  -1.119546  0.108824  -0.333262  -0.556479  0.069374  2.340605  0.098
O  O301  1  0.39593752  0.67619085  0.34010980  1  -1.110973  0.08833  -0.315809  -0.524612  0.05621  2.397062  0.082
O  O302  1  0.05081260  0.97432641  0.86978954  1  -1.133628  0.000378  -0.293845  -0.477572  0.000251  2.086437  0.0
O  O303  1  0.27148710  0.72839089  0.13526422  1  -1.12118  0.107644  -0.299414  -0.494438  0.069158  2.348232  0.097
O  O304  1  0.43017838  0.65559562  0.17829821  1  -1.121475  0.088667  -0.318497  -0.528891  0.056392  2.39645  0.082
O  O305  1  0.59680980  0.63131634  0.27041076  1  -1.119522  0.105482  -0.299971  -0.496797  0.067862  2.351239  0.095
O  O306  1  0.20182597  0.53206314  0.14450575  1  -1.185086  0.026872  -0.314561  -0.537925  0.016952  2.195112  0.023
O  O307  1  0.66006989  0.63667909  0.45936926  1  -1.199304  0.026449  -0.312044  -0.536078  0.0167  2.197606  0.023
O  O308  1  0.08082168  0.36947865  0.01930466  1  -1.124348  0.000382  -0.293888  -0.478848  0.000253  2.085309  0.0
O  O309  1  0.36728304  0.53020661  0.19980042  1  -1.11926  0.11054  -0.334074  -0.554455  0.070229  2.3372  0.1
O  O310  1  0.59722490  0.80364766  0.03868223  1  -1.123812  0.108777  -0.331173  -0.552083  0.069309  2.34298  0.098
O  O311  1  0.41215824  0.82372461  0.15994833  1  -1.127337  0.088329  -0.316228  -0.52453  0.056142  2.397144  0.082
O  O312  1  0.89478158  0.52573912  0.63029039  1  -1.131881  0.000379  -0.292681  -0.47662  0.000252  2.089497  0.0
O  O313  1  0.13519438  0.77156650  0.36473985  1  -1.116713  0.107563  -0.30071  -0.495858  0.069053  2.348085  0.097
O  O314  1  0.26412093  0.84431337  0.32162624  1  -1.113632  0.088743  -0.317244  -0.526804  0.056414  2.395214  0.082
O  O315  1  0.49850450  0.86860234  0.22961953  1  -1.117505  0.105595  -0.300758  -0.496968  0.067933  2.351519  0.095
O  O316  1  0.87837748  0.96789618  0.35562949  1  -1.197002  0.026813  -0.314499  -0.53862  0.016928  2.195919  0.023
O  O317  1  0.75583907  0.86333671  0.04067289  1  -1.186882  0.026475  -0.312406  -0.535798  0.016722  2.196786  0.023
O  O318  1  0.46955002  0.13053013  0.48063638  1  -1.129167  0.000382  -0.293891  -0.479125  0.000253  2.085969  0.0
O  O319  1  0.09721772  0.96977201  0.30027988  1  -1.12639  0.110467  -0.334407  -0.555471  0.070248  2.335963  0.1
