# generated using pymatgen
data_Ag2H22C11S2(N2O3)2
_symmetry_space_group_name_H-M   'P 1'
_cell_length_a   6.77403344
_cell_length_b   16.22992728
_cell_length_c   16.22974802
_cell_angle_alpha   87.49479239
_cell_angle_beta   77.96422242
_cell_angle_gamma   77.95778600
_symmetry_Int_Tables_number   1
_chemical_formula_structural   Ag2H22C11S2(N2O3)2
_chemical_formula_sum   'Ag8 H88 C44 S8 N16 O24'
_cell_volume   1706.70553585
_cell_formula_units_Z   4
loop_
 _symmetry_equiv_pos_site_id
 _symmetry_equiv_pos_as_xyz
  1  'x, y, z'
loop_
 _atom_site_type_symbol
 _atom_site_label
 _atom_site_symmetry_multiplicity
 _atom_site_fract_x
 _atom_site_fract_y
 _atom_site_fract_z
 _atom_site_occupancy
 _atom_site_pbe_bader_charge
 _atom_site_pbe_bader_spin_density
 _atom_site_pbe_cm5_charge
 _atom_site_pbe_ddec_charge
 _atom_site_pbe_ddec_spin_density
 _atom_site_pbe_ddec_sum_bond_order
 _atom_site_pbe_magmom
Ag  Ag0  1  0.29363739  0.89252256  0.61760781  1  0.573797  0  0.464575  0.392802  0  1.741996  0
Ag  Ag1  1  0.18651753  0.11770963  0.10749216  1  0.572927  0  0.464457  0.393194  0  1.742769  0
Ag  Ag2  1  0.91162564  0.38235817  0.39249971  1  0.573085  0  0.464425  0.393368  0  1.742097  0
Ag  Ag3  1  0.69615762  0.39255601  0.11765254  1  0.574159  0  0.464119  0.392334  0  1.743305  0
Ag  Ag4  1  0.08838168  0.61764355  0.60749999  1  0.573005  0  0.46445  0.393394  0  1.742108  0
Ag  Ag5  1  0.70636780  0.10747601  0.38238954  1  0.573747  0  0.46457  0.392773  0  1.742022  0
Ag  Ag6  1  0.81347951  0.88229209  0.89250727  1  0.572909  0  0.464454  0.393216  0  1.742798  0
Ag  Ag7  1  0.30383855  0.60744571  0.88235085  1  0.574193  0  0.464141  0.392342  0  1.743232  0
H  H8  1  0.35503765  0.77752019  0.34983383  1  0.04511  0  0.113436  0.142599  0  0.962449  0
H  H9  1  0.13245361  0.84998413  0.22260902  1  0.050272  0  0.113483  0.143208  0  0.96272  0
H  H10  1  0.70480922  0.65011625  0.27742535  1  0.088457  0  0.113032  0.143372  0  0.961926  0
H  H11  1  0.01723712  0.27728696  0.84998489  1  0.045912  0  0.113132  0.142883  0  0.962348  0
H  H12  1  0.29518196  0.34988547  0.72257085  1  0.08857  0  0.11307  0.143419  0  0.96201  0
H  H13  1  0.64497040  0.22248216  0.65016328  1  0.045118  0  0.113389  0.14248  0  0.962525  0
H  H14  1  0.86754489  0.15001382  0.77739240  1  0.050064  0  0.113482  0.143215  0  0.962789  0
H  H15  1  0.98275745  0.72271728  0.15001577  1  0.045816  0  0.113118  0.142843  0  0.962376  0
H  H16  1  0.19627197  0.87618884  0.38451593  1  0.10428  0  0.110976  0.144714  0  0.987369  0
H  H17  1  0.07239613  0.88468897  0.12391078  1  0.099184  0  0.11059  0.143955  0  0.987689  0
H  H18  1  0.58072546  0.61545793  0.37612350  1  0.099885  0  0.111076  0.144826  0  0.988445  0
H  H19  1  0.04289329  0.37599857  0.88449852  1  0.094876  0  0.111352  0.145039  0  0.988284  0
H  H20  1  0.41926648  0.38454380  0.62387345  1  0.09967  0  0.111102  0.144853  0  0.988409  0
H  H21  1  0.80373907  0.12381288  0.61548614  1  0.104331  0  0.110969  0.144674  0  0.987397  0
H  H22  1  0.92760605  0.11530834  0.87609027  1  0.099196  0  0.110584  0.143919  0  0.987691  0
H  H23  1  0.95709888  0.62400441  0.11550523  1  0.092478  0  0.111319  0.144974  0  0.988354  0
H  H24  1  0.58921530  0.86609872  0.35651430  1  0.087886  0  0.104548  0.102702  0  0.986887  0
H  H25  1  0.45525618  0.85661617  0.13406229  1  0.083853  0  0.104398  0.102228  0  0.986308  0
H  H26  1  0.94565019  0.64349659  0.36602698  1  0.088998  0  0.105029  0.103774  0  0.985334  0
H  H27  1  0.68800279  0.36604410  0.85652516  1  0.085947  0  0.104638  0.102501  0  0.986719  0
H  H28  1  0.05434295  0.35650829  0.63397022  1  0.089007  0  0.105036  0.103795  0  0.985321  0
H  H29  1  0.41079680  0.13390174  0.64348579  1  0.087925  0  0.104581  0.102717  0  0.986917  0
H  H30  1  0.54474583  0.14338114  0.86593740  1  0.083905  0  0.104432  0.102275  0  0.986293  0
H  H31  1  0.31198647  0.63395762  0.14347759  1  0.085925  0  0.104681  0.10254  0  0.986652  0
H  H32  1  0.60091696  0.79415024  0.44177845  1  0.090208  0  0.108337  0.099493  0  0.97849  0
H  H33  1  0.39505149  0.94191449  0.20593599  1  0.090121  0  0.108068  0.097577  0  0.979002  0
H  H34  1  0.04257259  0.55823764  0.29410665  1  0.05471  0  0.10856  0.09907  0  0.978443  0
H  H35  1  0.66277375  0.29413743  0.94181904  1  0.083153  0  0.107929  0.098434  0  0.978736  0
H  H36  1  0.95742055  0.44176723  0.70589055  1  0.054772  0  0.108538  0.099024  0  0.978508  0
H  H37  1  0.39909347  0.20584959  0.55822213  1  0.090501  0  0.108396  0.099544  0  0.978422  0
H  H38  1  0.60495025  0.05808094  0.79406493  1  0.090044  0  0.108023  0.097523  0  0.978987  0
H  H39  1  0.33722198  0.70586240  0.05818423  1  0.08322  0  0.107955  0.098476  0  0.978671  0
H  H40  1  0.19427075  0.99045808  0.44624518  1  0.084154  0  0.110999  0.109861  0  0.970377  0
H  H41  1  0.18482743  0.94618605  0.00961444  1  0.050996  0  0.110927  0.109363  0  0.970403  0
H  H42  1  0.64057510  0.55376425  0.49042557  1  0.08156  0  0.110547  0.109377  0  0.970083  0
H  H43  1  0.86888955  0.49044560  0.94610990  1  0.029259  0  0.110588  0.110033  0  0.969791  0
H  H44  1  0.35941910  0.44624125  0.50957175  1  0.081667  0  0.110586  0.109427  0  0.970067  0
H  H45  1  0.80573980  0.00954239  0.55375342  1  0.084018  0  0.110961  0.109782  0  0.970407  0
H  H46  1  0.81517075  0.05381252  0.99038698  1  0.050998  0  0.110942  0.109372  0  0.970416  0
H  H47  1  0.13109755  0.50955612  0.05389198  1  0.029152  0  0.110534  0.109934  0  0.969949  0
H  H48  1  0.42768605  0.01573565  0.38754985  1  0.038098  0  0.091204  0.064152  0  1.031701  0
H  H49  1  0.44356436  0.88751604  0.98443659  1  0.068231  0  0.091246  0.064192  0  1.031081  0
H  H50  1  0.81536686  0.61244928  0.51568493  1  0.032268  0  0.091405  0.063547  0  1.031737  0
H  H51  1  0.66864225  0.51567702  0.88750493  1  0.032022  0  0.090559  0.063202  0  1.032894  0
H  H52  1  0.18463091  0.38755307  0.48431190  1  0.03231  0  0.091435  0.063632  0  1.031703  0
H  H53  1  0.57232576  0.98426418  0.61245086  1  0.038068  0  0.09117  0.064161  0  1.031662  0
H  H54  1  0.55643624  0.11248443  0.01556446  1  0.068209  0  0.091252  0.064184  0  1.031093  0
H  H55  1  0.33134577  0.48432407  0.11249633  1  0.032205  0  0.090546  0.063221  0  1.032935  0
H  H56  1  0.75670500  0.94993832  0.42389500  1  0.048407  0  0.092385  0.07102  0  1.033212  0
H  H57  1  0.70662471  0.92396512  0.05009720  1  0.016161  0  0.092234  0.070875  0  1.033025  0
H  H58  1  0.18060849  0.57612509  0.44993218  1  0.043868  0  0.092142  0.070059  0  1.033384  0
H  H59  1  0.36924591  0.44995909  0.92397318  1  0.049671  0  0.092626  0.070843  0  1.03226  0
H  H60  1  0.81938819  0.42387789  0.55006392  1  0.043811  0  0.092151  0.07006  0  1.033382  0
H  H61  1  0.24330375  0.05006088  0.57610607  1  0.048373  0  0.092374  0.071051  0  1.03327  0
H  H62  1  0.29337330  0.07603535  0.94990496  1  0.016144  0  0.09222  0.070896  0  1.032986  0
H  H63  1  0.63074271  0.55004201  0.07602747  1  0.049619  0  0.092591  0.070786  0  1.03225  0
H  H64  1  0.76230998  0.87411179  0.50547908  1  0.095693  0  0.105728  0.097691  0  1.041502  0
H  H65  1  0.63650616  0.00559677  0.12586083  1  0.084406  0  0.105198  0.096261  0  1.042963  0
H  H66  1  0.26776317  0.49453635  0.37412946  1  0.090282  0  0.105588  0.096794  0  1.042352  0
H  H67  1  0.35796078  0.37413400  0.00557420  1  0.086196  0  0.10562  0.096859  0  1.042589  0
H  H68  1  0.73223273  0.50546663  0.62586589  1  0.090437  0  0.105603  0.096859  0  1.042328  0
H  H69  1  0.23769846  0.12588804  0.49452199  1  0.095681  0  0.105739  0.097715  0  1.041416  0
H  H70  1  0.36349280  0.99440181  0.87414133  1  0.084397  0  0.105206  0.096278  0  1.042991  0
H  H71  1  0.64202911  0.62586646  0.99442856  1  0.086231  0  0.105618  0.096826  0  1.042596  0
H  H72  1  0.61858366  0.71783834  0.60149051  1  0.076437  0  0.123119  0.102996  0  0.979474  0
H  H73  1  0.33662852  0.10157459  0.28218770  1  0.084996  0  0.12384  0.103698  0  0.978935  0
H  H74  1  0.22030768  0.39848800  0.21781637  1  0.101943  0  0.12362  0.104886  0  0.978698  0
H  H75  1  0.56218450  0.21788006  0.10156973  1  0.099886  0  0.123709  0.104  0  0.978848  0
H  H76  1  0.77968839  0.60150994  0.78218751  1  0.10179  0  0.123637  0.104926  0  0.978676  0
H  H77  1  0.38142221  0.28215835  0.39851018  1  0.076444  0  0.123113  0.102992  0  0.979415  0
H  H78  1  0.66338881  0.89842147  0.71780930  1  0.084978  0  0.123849  0.10376  0  0.978912  0
H  H79  1  0.43781312  0.78212292  0.89842847  1  0.099845  0  0.123728  0.10388  0  0.978947  0
H  H80  1  0.76770058  0.79671718  0.60541613  1  0.128403  0  0.120582  0.097876  0  1.035571  0
H  H81  1  0.56462853  0.10545021  0.20333050  1  0.143374  0  0.120693  0.097726  0  1.034306  0
H  H82  1  0.37328330  0.39464547  0.29671468  1  0.120974  0  0.120717  0.098268  0  1.035224  0
H  H83  1  0.33032025  0.29675668  0.10539662  1  0.132955  0  0.120423  0.097246  0  1.034753  0
H  H84  1  0.62671278  0.60535247  0.70328920  1  0.121006  0  0.120708  0.098255  0  1.035223  0
H  H85  1  0.23231297  0.20327762  0.39458383  1  0.127799  0  0.120565  0.097843  0  1.03566  0
H  H86  1  0.43537875  0.89455215  0.79666586  1  0.143192  0  0.120697  0.097739  0  1.034225  0
H  H87  1  0.66967206  0.70324567  0.89460578  1  0.133016  0  0.120402  0.097235  0  1.034723  0
H  H88  1  0.32308155  0.71184428  0.70740380  1  0.106014  0  0.120073  0.091914  0  1.005601  0
H  H89  1  0.03522968  0.20753073  0.28805066  1  0.10717  0  0.119996  0.09085  0  1.006169  0
H  H90  1  0.03082081  0.29254357  0.21190261  1  0.105378  0  0.120288  0.091715  0  1.005179  0
H  H91  1  0.75759303  0.21200721  0.20759267  1  0.105288  0  0.120036  0.090899  0  1.006291  0
H  H92  1  0.96917419  0.70745374  0.78810114  1  0.105349  0  0.120318  0.091696  0  1.005178  0
H  H93  1  0.67691967  0.28815618  0.29259663  1  0.106015  0  0.120028  0.091817  0  1.005541  0
H  H94  1  0.96477791  0.79246406  0.71195077  1  0.107266  0  0.120001  0.090889  0  1.006079  0
H  H95  1  0.24241104  0.78799514  0.79240542  1  0.105588  0  0.120038  0.090918  0  1.006252  0
C  C96  1  0.30934978  0.82295848  0.40206607  1  -0.148013  0  -0.152908  -0.345491  0  3.869062  0
C  C97  1  0.13225251  0.90221242  0.17714917  1  -0.13158  0  -0.153442  -0.34742  0  3.871454  0
C  C98  1  0.71132966  0.59790944  0.32291773  1  -0.185282  0  -0.153961  -0.349664  0  3.872194  0
C  C99  1  0.96536112  0.32282671  0.90213943  1  -0.100995  0  -0.153427  -0.348041  0  3.871986  0
C  C100  1  0.28866445  0.40209228  0.67708009  1  -0.185074  0  -0.153944  -0.349659  0  3.872351  0
C  C101  1  0.69066293  0.17704198  0.59793340  1  -0.148216  0  -0.152887  -0.345342  0  3.869037  0
C  C102  1  0.86774351  0.09778615  0.82285137  1  -0.131316  0  -0.153419  -0.347365  0  3.871473  0
C  C103  1  0.03462858  0.67717690  0.09786346  1  -0.098634  0  -0.153385  -0.347922  0  3.872016  0
C  C104  1  0.50209877  0.84851732  0.41787840  1  0.239303  0  -0.072259  -0.046278  0  3.883749  0
C  C105  1  0.35061490  0.91797968  0.15157799  1  0.241855  0  -0.07098  -0.040566  0  3.880107  0
C  C106  1  0.91990842  0.58212475  0.34848585  1  0.269025  0  -0.071801  -0.044356  0  3.882251  0
C  C107  1  0.73126459  0.34846600  0.91790057  1  0.228771  0  -0.071294  -0.04247  0  3.881602  0
C  C108  1  0.08008564  0.41787950  0.65151073  1  0.269059  0  -0.071824  -0.044333  0  3.882268  0
C  C109  1  0.49791013  0.15148125  0.58212130  1  0.239206  0  -0.072348  -0.046447  0  3.883905  0
C  C110  1  0.64938590  0.08201764  0.84842293  1  0.241859  0  -0.071013  -0.040567  0  3.879959  0
C  C111  1  0.26872636  0.65153509  0.08210231  1  0.22873  0  -0.07135  -0.042626  0  3.88166  0
C  C112  1  0.34874222  0.99806164  0.45088048  1  0.244864  0  -0.078169  -0.088098  0  3.90105  0
C  C113  1  0.34686350  0.95085886  0.00200714  1  0.25238  0  -0.076407  -0.085401  0  3.898811  0
C  C114  1  0.79966306  0.54912956  0.49804455  1  0.251732  0  -0.077454  -0.08579  0  3.89665  0
C  C115  1  0.70220404  0.49801860  0.95080619  1  0.303946  0  -0.076147  -0.086491  0  3.89881  0
C  C116  1  0.20033379  0.45087342  0.50195291  1  0.251945  0  -0.077503  -0.085976  0  3.896627  0
C  C117  1  0.65126483  0.00193819  0.54912046  1  0.245693  0  -0.078114  -0.088094  0  3.901031  0
C  C118  1  0.65313362  0.04914097  0.99799625  1  0.252354  0  -0.07648  -0.085471  0  3.898922  0
C  C119  1  0.29778276  0.50198249  0.04919631  1  0.303893  0  -0.076094  -0.086419  0  3.899019  0
C  C120  1  0.67148943  0.93283943  0.48621297  1  0.228305  0  -0.08355  -0.113838  0  3.923334  0
C  C121  1  0.60436222  0.98627686  0.06717750  1  0.271746  0  -0.083145  -0.111596  0  3.923776  0
C  C122  1  0.15765710  0.51380192  0.43283483  1  0.251203  0  -0.082602  -0.110667  0  3.922104  0
C  C123  1  0.40935671  0.43284706  0.98627368  1  0.26937  0  -0.082914  -0.110377  0  3.919744  0
C  C124  1  0.84233744  0.48620170  0.56716311  1  0.251076  0  -0.082614  -0.110701  0  3.921923  0
C  C125  1  0.32852071  0.06715977  0.51378823  1  0.228419  0  -0.083568  -0.113947  0  3.923145  0
C  C126  1  0.39563780  0.01372234  0.93282479  1  0.271713  0  -0.083171  -0.111681  0  3.923831  0
C  C127  1  0.59063315  0.56715466  0.01372846  1  0.269512  0  -0.082864  -0.110168  0  3.919574  0
C  C128  1  0.67444196  0.75548620  0.64281873  1  0.516434  0  0.011332  -0.020682  0  3.844705  0
C  C129  1  0.43016502  0.14289316  0.24451596  1  0.496681  0  0.01063  -0.021475  0  3.843645  0
C  C130  1  0.31749706  0.35720298  0.25551082  1  0.505214  0  0.010604  -0.025154  0  3.845343  0
C  C131  1  0.42731649  0.25555926  0.14285800  1  0.496703  0  0.010185  -0.023648  0  3.848025  0
C  C132  1  0.68249991  0.64279559  0.74449182  1  0.505024  0  0.010537  -0.025286  0  3.845545  0
C  C133  1  0.32556344  0.24450985  0.35718121  1  0.517082  0  0.011368  -0.02059  0  3.84481  0
C  C134  1  0.56984460  0.85710604  0.75548115  1  0.496922  0  0.010613  -0.021616  0  3.843574  0
C  C135  1  0.57268011  0.74444247  0.85714342  1  0.496622  0  0.010153  -0.023499  0  3.847951  0
C  C136  1  0.37423600  0.74993361  0.74992627  1  0.499233  0  0.011852  -0.01855  0  3.854847  0
C  C137  1  0.12458631  0.25003688  0.24998503  1  0.500868  0  0.012125  -0.016782  0  3.857366  0
C  C138  1  0.62576349  0.25006685  0.25007131  1  0.499572  0  0.011876  -0.018412  0  3.854833  0
C  C139  1  0.87541327  0.74996043  0.75001712  1  0.500771  0  0.012103  -0.016795  0  3.857261  0
S  S140  1  0.16891728  0.76930841  0.48668418  1  3.118545  0  0.477134  1.17098  0  6.161958  0
S  S141  1  0.93830765  0.98685224  0.23077302  1  3.122224  0  0.474846  1.165716  0  6.167574  0
S  S142  1  0.65561170  0.51322921  0.26933912  1  3.127676  0  0.478001  1.174889  0  6.159575  0
S  S143  1  0.07480775  0.26927690  0.98681297  1  3.125256  0  0.477068  1.172279  0  6.16198  0
S  S144  1  0.34438951  0.48676937  0.73065921  1  3.127632  0  0.478011  1.174765  0  6.159679  0
S  S145  1  0.83108839  0.23068764  0.51331243  1  3.11852  0  0.477308  1.171265  0  6.16183  0
S  S146  1  0.06169264  0.01314696  0.76922592  1  3.122265  0  0.474937  1.165832  0  6.167424  0
S  S147  1  0.92518230  0.73072167  0.01318904  1  3.124948  0  0.477274  1.172565  0  6.161876  0
N  N148  1  0.46784539  0.91858402  0.47809011  1  -0.97064  0  -0.348353  -0.100241  0  3.473663  0
N  N149  1  0.38644344  0.97816037  0.08145802  1  -0.987191  0  -0.349397  -0.104158  0  3.475797  0
N  N150  1  0.94592465  0.52192015  0.41857215  1  -0.980528  0  -0.349001  -0.102668  0  3.474847  0
N  N151  1  0.63539862  0.41856290  0.97809358  1  -1.01986  0  -0.349828  -0.103811  0  3.474221  0
N  N152  1  0.05407217  0.47808410  0.58142469  1  -0.981021  0  -0.348963  -0.102606  0  3.474623  0
N  N153  1  0.53216489  0.08141456  0.52190972  1  -0.971595  0  -0.348248  -0.099917  0  3.473411  0
N  N154  1  0.61355581  0.02183883  0.91854351  1  -0.987149  0  -0.349336  -0.104131  0  3.475751  0
N  N155  1  0.36458926  0.58143882  0.02190905  1  -1.019799  0  -0.349861  -0.103761  0  3.474378  0
N  N156  1  0.49477910  0.80723855  0.69869832  1  -0.974624  0  -0.355746  -0.145432  0  3.494066  0
N  N157  1  0.30236931  0.19879055  0.19272521  1  -0.983928  0  -0.356478  -0.146815  0  3.497557  0
N  N158  1  0.19379363  0.30129280  0.30728511  1  -0.978987  0  -0.356879  -0.147334  0  3.495284  0
N  N159  1  0.49923207  0.30733511  0.19877527  1  -0.979467  0  -0.356306  -0.144392  0  3.495545  0
N  N160  1  0.80620829  0.69870262  0.69271717  1  -0.978863  0  -0.356853  -0.147326  0  3.495477  0
N  N161  1  0.50522533  0.19276065  0.30130101  1  -0.974689  0  -0.355795  -0.145615  0  3.494272  0
N  N162  1  0.69763513  0.80120865  0.80727411  1  -0.98387  0  -0.35652  -0.146898  0  3.497621  0
N  N163  1  0.50077024  0.69266472  0.80122590  1  -0.979228  0  -0.356298  -0.144349  0  3.4955  0
O  O164  1  0.06880700  0.83262623  0.55409062  1  -1.324931  0  -0.358119  -0.595306  0  2.311699  0
O  O165  1  0.90151298  0.05429918  0.16746396  1  -1.324975  0  -0.357468  -0.594188  0  2.311449  0
O  O166  1  0.62290788  0.44586267  0.33273538  1  -1.325891  0  -0.358397  -0.597102  0  2.310951  0
O  O167  1  0.04435564  0.33269035  0.05412275  1  -1.325647  0  -0.357846  -0.596259  0  2.310987  0
O  O168  1  0.37709377  0.55413780  0.66726308  1  -1.325922  0  -0.358389  -0.597062  0  2.310912  0
O  O169  1  0.93119682  0.16736416  0.44591228  1  -1.325019  0  -0.358082  -0.595283  0  2.311608  0
O  O170  1  0.09849192  0.94569877  0.83253400  1  -1.324917  0  -0.357546  -0.59429  0  2.311516  0
O  O171  1  0.95563735  0.66730823  0.94588088  1  -1.325558  0  -0.357846  -0.596285  0  2.310978  0
O  O172  1  0.01572831  0.73886060  0.45098529  1  -1.33413  0  -0.353364  -0.613092  0  2.188066  0
O  O173  1  0.75466877  0.95117897  0.26121579  1  -1.34096  0  -0.352133  -0.610342  0  2.188802  0
O  O174  1  0.46671655  0.54886381  0.23884624  1  -1.339748  0  -0.353189  -0.613049  0  2.187248  0
O  O175  1  0.29410542  0.23875562  0.95112375  1  -1.342034  0  -0.353178  -0.612665  0  2.187623  0
O  O176  1  0.53328281  0.45113414  0.76115121  1  -1.339731  0  -0.353216  -0.613  0  2.187317  0
O  O177  1  0.98428030  0.26114049  0.54900575  1  -1.334089  0  -0.353389  -0.613214  0  2.188023  0
O  O178  1  0.24533149  0.04882149  0.73878253  1  -1.340951  0  -0.352104  -0.610337  0  2.188778  0
O  O179  1  0.70587944  0.76124106  0.04887837  1  -1.341863  0  -0.353285  -0.612803  0  2.187499  0
O  O180  1  0.32339883  0.70086325  0.51467936  1  -1.32298  0  -0.357197  -0.609489  0  2.217059  0
O  O181  1  0.02451454  0.01478330  0.29918984  1  -1.322919  0  -0.356874  -0.607832  0  2.218623  0
O  O182  1  0.83816019  0.48524288  0.20095549  1  -1.324923  0  -0.357775  -0.610806  0  2.21679  0
O  O183  1  0.96063994  0.20089543  0.01490695  1  -1.322364  0  -0.357983  -0.610274  0  2.217514  0
O  O184  1  0.16184224  0.51475758  0.79904370  1  -1.324933  0  -0.357827  -0.610841  0  2.216735  0
O  O185  1  0.67660502  0.29912903  0.48531488  1  -1.322845  0  -0.357416  -0.60972  0  2.217237  0
O  O186  1  0.97548866  0.98521527  0.70080800  1  -1.32296  0  -0.356908  -0.607853  0  2.218461  0
O  O187  1  0.03933748  0.79910629  0.98509405  1  -1.322223  0  -0.358084  -0.610402  0  2.21755  0
