# generated using pymatgen
data_CuH4C5O4
_symmetry_space_group_name_H-M   'P 1'
_cell_length_a   6.85823686
_cell_length_b   6.85837548
_cell_length_c   11.85570552
_cell_angle_alpha   89.97834595
_cell_angle_beta   90.02011173
_cell_angle_gamma   89.97610831
_symmetry_Int_Tables_number   1
_chemical_formula_structural   CuH4C5O4
_chemical_formula_sum   'Cu4 H16 C20 O16'
_cell_volume   557.64915179
_cell_formula_units_Z   4
loop_
 _symmetry_equiv_pos_site_id
 _symmetry_equiv_pos_as_xyz
  1  'x, y, z'
loop_
 _atom_site_type_symbol
 _atom_site_label
 _atom_site_symmetry_multiplicity
 _atom_site_fract_x
 _atom_site_fract_y
 _atom_site_fract_z
 _atom_site_occupancy
 _atom_site_hle17_ddec_charge
 _atom_site_hle17_ddec_spin_density
 _atom_site_hle17_ddec_sum_bond_order
 _atom_site_hle17_magmom
 _atom_site_hse06_10hf_ddec_charge
 _atom_site_hse06_10hf_ddec_spin_density
 _atom_site_hse06_10hf_ddec_sum_bond_order
 _atom_site_hse06_10hf_magmom
 _atom_site_hse06_ddec_charge
 _atom_site_hse06_ddec_spin_density
 _atom_site_hse06_ddec_sum_bond_order
 _atom_site_hse06_magmom
 _atom_site_pbe_cm5_charge
 _atom_site_pbe_ddec_charge
 _atom_site_pbe_ddec_spin_density
 _atom_site_pbe_ddec_sum_bond_order
 _atom_site_pbe_magmom
Cu  Cu0  1  0.27330276  0.72658538  0.24993123  1  1.004045  -0.69652  1.639027  -0.516  1.008271  -0.795052  2.017407  -0.642  1.096175  -0.864898  1.954828  -0.729  0.731175  0.943224  -0.737608  2.074587  -0.58
Cu  Cu1  1  0.72658354  0.27330502  0.75007406  1  1.004106  -0.696534  1.639068  -0.516  1.008383  -0.795051  2.017385  -0.642  1.096217  -0.864892  1.954865  -0.729  0.731206  0.943342  -0.737614  2.074559  -0.58
Cu  Cu2  1  0.77305482  0.77305135  0.49999715  1  1.001053  -0.692261  1.639191  -0.512  1.005819  -0.793735  2.018016  -0.64  1.094955  -0.864072  1.954412  -0.727  0.729339  0.940264  -0.733121  2.075302  -0.576
Cu  Cu3  1  0.22710433  0.22710849  0.00000245  1  1.001908  0.727439  1.637826  0.506  1.006556  0.82842  2.016548  0.638  1.095949  0.920891  1.95306  0.728  0.728117  0.938505  0.736744  2.075068  0.56
H  H4  1  0.82252699  0.26465903  0.12308547  1  0.117475  -0.000123  0.964188  0.0  0.127506  -5.5e-05  1.031342  0.0  0.129504  -6.2e-05  1.030662  0.0  0.10368  0.126147  -6.4e-05  1.031655  0.0
H  H5  1  0.17729183  0.73557154  0.62295429  1  0.117614  -0.000291  0.964403  0.0  0.127722  -0.000241  1.031382  0.0  0.129719  -0.000118  1.030692  0.0  0.10371  0.126272  -0.000355  1.031833  0.0
H  H6  1  0.23505127  0.32153785  0.37292721  1  0.117464  -0.000197  0.963944  0.0  0.127416  -0.000165  1.031286  0.0  0.129458  -4.3e-05  1.030527  0.0  0.103734  0.125926  -0.000282  1.031806  0.0
H  H7  1  0.76476004  0.67838391  0.87294788  1  0.11739  0.000204  0.964004  0.0  0.127628  0.000134  1.031066  0.0  0.129652  0.000128  1.030379  0.0  0.10376  0.126117  0.000128  1.031528  0.0
H  H8  1  0.67839124  0.76476251  0.12705312  1  0.117354  0.000208  0.964057  0.0  0.127568  0.000134  1.031148  0.0  0.129589  0.000128  1.030477  0.0  0.103732  0.126055  0.000128  1.031609  0.0
H  H9  1  0.32153799  0.23504259  0.62706550  1  0.117454  -0.000196  0.96406  0.0  0.127419  -0.000164  1.031376  0.0  0.129462  -4.3e-05  1.030614  0.0  0.103683  0.125928  -0.000282  1.0319  0.0
H  H10  1  0.26465365  0.82252394  0.87691408  1  0.117507  -0.000123  0.96425  0.0  0.127538  -5.5e-05  1.031395  0.0  0.129536  -6.2e-05  1.030715  0.0  0.103719  0.126177  -6.3e-05  1.031711  0.0
H  H11  1  0.73556692  0.17729161  0.37704578  1  0.117594  -0.000291  0.96449  0.0  0.127695  -0.000242  1.031481  0.0  0.129688  -0.000118  1.030789  0.0  0.103732  0.126245  -0.000355  1.03193  0.0
H  H12  1  0.94250911  0.38071233  0.24549945  1  0.13073  1e-06  0.944361  0.0  0.142573  2.1e-05  1.005725  0.0  0.144619  3.8e-05  1.005054  0.0  0.109053  0.141066  -5e-06  1.00627  0.0
H  H13  1  0.05747940  0.61934868  0.74536677  1  0.131192  0.000201  0.94425  0.0  0.142737  0.000201  1.005909  0.0  0.144801  0.000171  1.005226  0.0  0.109163  0.141211  0.000204  1.006496  0.0
H  H14  1  0.11851826  0.44189375  0.49506169  1  0.130431  7.4e-05  0.945446  0.0  0.142531  8.3e-05  1.006448  0.0  0.14463  0.0001  1.0057  0.0  0.108888  0.140948  4.5e-05  1.007105  0.0
H  H15  1  0.88130363  0.55794467  0.99513207  1  0.1305  -0.000119  0.945201  0.0  0.142408  -0.000128  1.006488  0.0  0.144496  -0.000101  1.005729  0.0  0.108906  0.140861  -0.000142  1.007123  0.0
H  H16  1  0.55794513  0.88130514  0.00487234  1  0.130437  -0.000115  0.945298  0.0  0.142475  -0.000128  1.006435  0.0  0.14457  -0.000101  1.005668  0.0  0.10893  0.140927  -0.000142  1.007067  0.0
H  H17  1  0.44188896  0.11849437  0.50493099  1  0.130518  7.5e-05  0.945338  0.0  0.142603  8.2e-05  1.006346  0.0  0.144701  0.0001  1.0056  0.0  0.108928  0.141021  4.5e-05  1.007001  0.0
H  H18  1  0.38071215  0.94250212  0.75449911  1  0.130754  1e-06  0.944367  0.0  0.142583  2.1e-05  1.005737  0.0  0.14463  3.8e-05  1.005062  0.0  0.109075  0.141076  -5e-06  1.00628  0.0
H  H19  1  0.61934456  0.05748736  0.25463766  1  0.131205  0.0002  0.944268  0.0  0.142743  0.000201  1.005932  0.0  0.144804  0.00017  1.005247  0.0  0.109196  0.141217  0.000204  1.006516  0.0
C  C20  1  0.45669843  0.37414393  0.16577471  1  0.670492  -0.001844  3.834849  -0.003  0.627738  -0.002003  4.129358  -0.003  0.669371  -0.001877  4.122519  -0.003  0.221188  0.598908  -0.002129  4.132332  -0.003
C  C21  1  0.54338229  0.62585045  0.66576824  1  0.670038  0.008385  3.833259  0.013  0.626961  0.000334  4.128657  0.004  0.668562  0.000937  4.121922  0.004  0.221227  0.598297  -0.000373  4.131515  0.004
C  C22  1  0.12555824  0.95599884  0.41582770  1  0.66964  0.006849  3.834265  0.012  0.626482  -0.000949  4.129449  0.003  0.667995  4.1e-05  4.12268  0.003  0.220992  0.597996  -0.001863  4.132345  0.002
C  C23  1  0.87447417  0.04396952  0.91582721  1  0.669151  0.000871  3.833532  0.002  0.62543  0.001007  4.129104  0.002  0.666989  0.001328  4.122271  0.002  0.220783  0.596755  0.000728  4.13207  0.002
C  C24  1  0.04397378  0.87446521  0.08417281  1  0.669098  0.000873  3.833956  0.002  0.62537  0.001006  4.129488  0.002  0.666925  0.001327  4.122661  0.002  0.220728  0.596695  0.000727  4.132451  0.002
C  C25  1  0.95598217  0.12555570  0.58416515  1  0.669683  0.006854  3.833934  0.012  0.626547  -0.000949  4.12908  0.003  0.668061  4e-05  4.122301  0.003  0.221011  0.598065  -0.001863  4.131979  0.002
C  C26  1  0.37413592  0.45670814  0.83423358  1  0.670566  -0.00185  3.834876  -0.003  0.62787  -0.002003  4.129295  -0.003  0.669494  -0.001876  4.122465  -0.003  0.221259  0.599041  -0.002129  4.132271  -0.003
C  C27  1  0.62585335  0.54338295  0.33423152  1  0.670164  0.008397  3.833126  0.013  0.626955  0.000335  4.128685  0.004  0.668556  0.000938  4.121951  0.004  0.221205  0.598287  -0.000372  4.131546  0.004
C  C28  1  0.81738987  0.30279491  0.21203959  1  -0.146568  0.000386  3.584039  0.001  -0.197388  2.5e-05  3.837216  0.0  -0.196151  4e-05  3.84786  0.0  -0.159428  -0.198002  -3.4e-05  3.829984  0.0
C  C29  1  0.18256982  0.69730232  0.71190358  1  -0.146726  9.4e-05  3.584749  0.0  -0.197179  -0.000303  3.837839  0.0  -0.195927  -0.000128  3.848462  0.0  -0.159347  -0.197863  -0.000483  3.830788  0.0
C  C30  1  0.19663321  0.31666320  0.46185398  1  -0.146645  0.000901  3.583234  0.001  -0.197541  -8.2e-05  3.836796  0.0  -0.196253  0.000115  3.847322  0.0  -0.15963  -0.198249  -0.000295  3.829814  0.0
C  C31  1  0.80325185  0.68326230  0.96188738  1  -0.147105  0.0005  3.584119  0.001  -0.197809  0.000239  3.837245  0.0  -0.196552  0.000248  3.847804  0.0  -0.159679  -0.198539  0.000232  3.83029  0.0
C  C32  1  0.68327181  0.80324250  0.03811666  1  -0.147109  0.000473  3.584095  0.001  -0.197938  0.000239  3.837255  0.0  -0.196672  0.000249  3.847774  0.0  -0.159746  -0.198663  0.000231  3.830293  0.0
C  C33  1  0.31666240  0.19662738  0.53814413  1  -0.146757  0.000898  3.583241  0.001  -0.197663  -8.2e-05  3.836834  0.0  -0.196374  0.000114  3.847357  0.0  -0.159608  -0.198369  -0.000294  3.829845  0.0
C  C34  1  0.30279237  0.81739191  0.78796224  1  -0.146524  0.000384  3.584004  0.001  -0.197329  2.5e-05  3.837195  0.0  -0.19609  4e-05  3.847844  0.0  -0.159475  -0.197945  -3.4e-05  3.829967  0.0
C  C35  1  0.69729899  0.18257010  0.28810096  1  -0.146694  9.5e-05  3.584724  0.0  -0.19714  -0.000304  3.837833  0.0  -0.195875  -0.000127  3.84844  0.0  -0.159416  -0.197824  -0.000483  3.830777  0.0
C  C36  1  0.61755779  0.38242477  0.25007801  1  -0.189046  -0.000372  3.654956  -0.001  -0.149532  -3e-05  3.880852  -0.001  -0.168031  0.00023  3.899304  0.0  -0.024764  -0.137592  -0.000401  3.869019  -0.001
C  C37  1  0.38242472  0.61755893  0.74992138  1  -0.189068  -0.000363  3.655087  -0.001  -0.149585  -2.8e-05  3.880909  -0.001  -0.168088  0.000233  3.899379  0.0  -0.024747  -0.137641  -0.000399  3.86907  -0.001
C  C38  1  0.11691069  0.11691465  0.49999466  1  -0.187551  -0.011704  3.650334  -0.014  -0.148261  -0.007539  3.876829  -0.009  -0.166794  -0.005202  3.895521  -0.007  -0.024777  -0.136255  -0.009126  3.864633  -0.011
C  C39  1  0.88297440  0.88295364  0.99999820  1  -0.186248  -0.011035  3.650689  -0.011  -0.146489  -0.007405  3.877031  -0.008  -0.164879  -0.005491  3.895548  -0.006  -0.024563  -0.134675  -0.008665  3.86507  -0.009
O  O40  1  0.47358279  0.25318595  0.08504219  1  -0.543713  0.063562  2.031688  0.081  -0.508782  0.044304  2.293999  0.062  -0.551493  0.037422  2.286436  0.055  -0.297373  -0.478112  0.044192  2.298545  0.06
O  O41  1  0.52649905  0.74694227  0.58500972  1  -0.543601  -0.088167  2.031001  -0.119  -0.508609  -0.059173  2.29332  -0.086  -0.551098  -0.045465  2.285714  -0.07  -0.297761  -0.478705  -0.066237  2.298083  -0.093
O  O42  1  0.24692620  0.97287382  0.33527709  1  -0.546194  -0.092006  2.032327  -0.124  -0.510384  -0.060579  2.294195  -0.088  -0.552062  -0.046192  2.286277  -0.071  -0.299657  -0.481804  -0.069283  2.299522  -0.097
O  O43  1  0.75348793  0.02714662  0.83498467  1  -0.546175  -0.062622  2.033074  -0.086  -0.509602  -0.043317  2.295103  -0.064  -0.551734  -0.035448  2.287367  -0.056  -0.298765  -0.479763  -0.046273  2.29979  -0.066
O  O44  1  0.02714573  0.75349412  0.16501051  1  -0.54619  -0.062613  2.033378  -0.086  -0.50954  -0.043309  2.295337  -0.064  -0.551679  -0.035442  2.287605  -0.056  -0.298767  -0.479701  -0.046267  2.300024  -0.066
O  O45  1  0.97286146  0.24691641  0.66471891  1  -0.546296  -0.09201  2.032281  -0.124  -0.510426  -0.06058  2.294069  -0.088  -0.552091  -0.046194  2.286144  -0.071  -0.299645  -0.481847  -0.069283  2.299397  -0.097
O  O46  1  0.25317216  0.47358883  0.91496101  1  -0.543815  0.063561  2.031896  0.081  -0.508884  0.044304  2.294158  0.062  -0.551586  0.037422  2.286595  0.055  -0.297409  -0.478218  0.044194  2.298708  0.06
O  O47  1  0.74695594  0.52649671  0.41498586  1  -0.543727  -0.088181  2.030991  -0.119  -0.508618  -0.05918  2.293291  -0.086  -0.551108  -0.045468  2.285682  -0.07  -0.297763  -0.478712  -0.066245  2.298059  -0.093
O  O48  1  0.30095483  0.47663921  0.17554098  1  -0.634669  -0.073549  2.122862  -0.099  -0.620373  -0.048491  2.430764  -0.07  -0.660024  -0.037626  2.41238  -0.057  -0.328684  -0.590551  -0.055661  2.441831  -0.078
O  O49  1  0.69919012  0.52345085  0.67573929  1  -0.632722  -0.075317  2.121843  -0.104  -0.619061  -0.048324  2.430007  -0.073  -0.658992  -0.036159  2.411996  -0.058  -0.32804  -0.589095  -0.056636  2.440822  -0.081
O  O50  1  0.02309208  0.80024983  0.42559255  1  -0.63328  -0.074017  2.121776  -0.103  -0.619038  -0.047998  2.429886  -0.072  -0.658756  -0.036065  2.411591  -0.058  -0.328528  -0.589657  -0.055705  2.440975  -0.08
O  O51  1  0.97672897  0.19975740  0.92576930  1  -0.634178  0.076908  2.122232  0.097  -0.618862  0.050671  2.429959  0.07  -0.658432  0.040316  2.411606  0.057  -0.328642  -0.589673  0.055384  2.441454  0.075
O  O52  1  0.19975338  0.97672839  0.07423799  1  -0.634187  0.076913  2.122345  0.097  -0.618876  0.050674  2.430061  0.07  -0.65847  0.040317  2.411749  0.057  -0.328609  -0.589682  0.055389  2.441546  0.075
O  O53  1  0.80023462  0.02309183  0.57439808  1  -0.633341  -0.07401  2.121797  -0.103  -0.619128  -0.047997  2.429902  -0.072  -0.658835  -0.036063  2.411589  -0.058  -0.328546  -0.589733  -0.055704  2.44095  -0.08
O  O54  1  0.47664371  0.30096500  0.82447531  1  -0.634725  -0.073554  2.122792  -0.099  -0.620499  -0.048495  2.430725  -0.07  -0.660122  -0.037631  2.412319  -0.057  -0.328772  -0.59068  -0.055666  2.441805  -0.078
O  O55  1  0.52345483  0.69918640  0.32426090  1  -0.632707  -0.075323  2.12188  -0.104  -0.618991  -0.048325  2.430084  -0.073  -0.65894  -0.036159  2.412077  -0.058  -0.32798  -0.589026  -0.056636  2.440911  -0.081
