# generated using pymatgen
data_Dy2NiH14C12(NO9)2
_symmetry_space_group_name_H-M   'P 1'
_cell_length_a   6.98069157
_cell_length_b   8.20309662
_cell_length_c   9.17400509
_cell_angle_alpha   95.14206159
_cell_angle_beta   90.95287049
_cell_angle_gamma   83.99825758
_symmetry_Int_Tables_number   1
_chemical_formula_structural   Dy2NiH14C12(NO9)2
_chemical_formula_sum   'Dy2 Ni1 H14 C12 N2 O18'
_cell_volume   520.33761777
_cell_formula_units_Z   1
loop_
 _symmetry_equiv_pos_site_id
 _symmetry_equiv_pos_as_xyz
  1  'x, y, z'
loop_
 _atom_site_type_symbol
 _atom_site_label
 _atom_site_symmetry_multiplicity
 _atom_site_fract_x
 _atom_site_fract_y
 _atom_site_fract_z
 _atom_site_occupancy
 _atom_site_hle17_ddec_charge
 _atom_site_hle17_ddec_spin_density
 _atom_site_hle17_ddec_sum_bond_order
 _atom_site_hle17_magmom
 _atom_site_hse06_10hf_ddec_charge
 _atom_site_hse06_10hf_ddec_spin_density
 _atom_site_hse06_10hf_ddec_sum_bond_order
 _atom_site_hse06_10hf_magmom
 _atom_site_hse06_ddec_charge
 _atom_site_hse06_ddec_spin_density
 _atom_site_hse06_ddec_sum_bond_order
 _atom_site_hse06_magmom
 _atom_site_pbe_cm5_charge
 _atom_site_pbe_ddec_charge
 _atom_site_pbe_ddec_spin_density
 _atom_site_pbe_ddec_sum_bond_order
 _atom_site_pbe_magmom
Dy  Dy0  1  0.29864826  0.38412162  0.75338957  1  2.124789  0.000234  1.801812  0.0  2.060051  0.00032  2.122798  0.0  2.189306  0.000235  1.929297  0.0  1.525622  2.024812  0.000308  2.153442  0.0
Dy  Dy1  1  0.70134183  0.61587976  0.24661297  1  2.124802  0.000235  1.801694  0.0  2.060147  0.000319  2.12257  0.0  2.189318  0.000236  1.929206  0.0  1.525604  2.024874  0.000308  2.153238  0.0
Ni  Ni2  1  0.00000050  0.99999392  0.00000368  1  0.655473  0.013952  2.12745  0.015  0.639417  0.011936  2.563951  0.016  0.761014  0.011291  2.467735  0.017  0.593159  0.556491  0.010141  2.63089  0.013
H  H3  1  0.00944113  0.89142589  0.58038602  1  0.120615  -0.000804  0.930605  -0.001  0.132911  -0.000819  0.989071  0.0  0.134442  -0.000793  0.988099  0.0  0.123032  0.132134  -0.000624  0.989765  0.0
H  H4  1  0.99055766  0.10854550  0.41961267  1  0.12059  -0.000804  0.930464  -0.001  0.132756  -0.000819  0.989078  0.0  0.134285  -0.000793  0.988112  0.0  0.123002  0.131979  -0.000624  0.989782  0.0
H  H5  1  0.19996589  0.84352951  0.70282704  1  0.129346  4.3e-05  0.907236  0.0  0.143552  5.8e-05  0.962958  0.0  0.145864  6.3e-05  0.96172  0.0  0.132305  0.142124  4e-05  0.96345  0.0
H  H6  1  0.80003954  0.15643436  0.29719800  1  0.129404  4.4e-05  0.90726  0.0  0.143655  5.8e-05  0.962929  0.0  0.145969  6.4e-05  0.96169  0.0  0.132286  0.142224  4e-05  0.963421  0.0
H  H7  1  0.93302391  0.77952162  0.80765038  1  0.273339  0.000238  0.923204  0.001  0.263245  -0.000164  0.980062  0.0  0.270563  -9.9e-05  0.976756  0.0  0.305116  0.25829  -0.000149  0.982055  0.0
H  H8  1  0.06693982  0.22047839  0.19235911  1  0.273345  0.000238  0.923306  0.001  0.263291  -0.000164  0.980081  0.0  0.270606  -0.0001  0.976781  0.0  0.305165  0.258334  -0.000149  0.982066  0.0
H  H9  1  0.63255743  0.87509790  0.76438143  1  0.12967  -0.000174  0.897152  0.0  0.147257  -0.000122  0.945952  0.0  0.149578  -0.000106  0.944562  0.0  0.13125  0.145507  -0.000106  0.946932  0.0
H  H10  1  0.36742206  0.12494014  0.23560168  1  0.129647  -0.000173  0.89698  0.0  0.147217  -0.000123  0.945885  0.0  0.149545  -0.000105  0.944486  0.0  0.131186  0.145458  -0.000106  0.946878  0.0
H  H11  1  0.71986882  0.02159505  0.66038582  1  0.138585  -0.000534  0.903319  0.0  0.150759  -0.000545  0.961012  0.0  0.153697  -0.000491  0.958515  0.0  0.132417  0.148933  -0.000394  0.962253  0.0
H  H12  1  0.28016978  0.97844272  0.33962503  1  0.138578  -0.000533  0.903278  0.0  0.15073  -0.000545  0.961046  0.0  0.153671  -0.000491  0.958547  0.0  0.132397  0.1489  -0.000394  0.962287  0.0
H  H13  1  0.56822864  0.61486730  0.87729857  1  0.444295  -2e-06  0.854844  0.0  0.412454  1e-06  0.920007  0.0  0.424525  1e-06  0.902558  0.0  0.301352  0.403875  2e-06  0.932725  0.0
H  H14  1  0.43174753  0.38513196  0.12270588  1  0.444357  -2e-06  0.854821  0.0  0.412475  1e-06  0.920056  0.0  0.424553  1e-06  0.9026  0.0  0.301314  0.403894  2e-06  0.932776  0.0
H  H15  1  0.36146565  0.71433453  0.89245440  1  0.426597  0.000172  0.879964  0.0  0.394421  0.000186  0.946982  0.0  0.406799  0.000157  0.929309  0.0  0.298647  0.385797  0.000186  0.959472  0.0
H  H16  1  0.63851767  0.28566888  0.10755393  1  0.426453  0.000172  0.880163  0.0  0.394239  0.000186  0.947267  0.0  0.406625  0.000158  0.929578  0.0  0.298543  0.385608  0.000186  0.959764  0.0
C  C17  1  0.06898045  0.92725198  0.68881045  1  -0.131603  -0.000239  3.578592  0.001  -0.181803  -0.000633  3.828109  0.001  -0.181082  -0.00046  3.83693  0.001  -0.061706  -0.181962  -0.000722  3.821115  0.0
C  C18  1  0.93104312  0.07272202  0.31118133  1  -0.131792  -0.000243  3.578937  0.001  -0.181938  -0.000633  3.828478  0.001  -0.181224  -0.000462  3.837296  0.001  -0.061732  -0.182103  -0.000721  3.821484  0.0
C  C19  1  0.12534948  0.10064255  0.69551783  1  0.67205  -0.000717  3.891409  -0.001  0.625874  -0.001158  4.204402  -0.001  0.657422  -0.001097  4.206495  -0.001  0.190792  0.603248  -0.001024  4.209491  -0.001
C  C20  1  0.87467310  0.89934426  0.30447798  1  0.672162  -0.000716  3.891182  -0.001  0.626025  -0.001158  4.204155  -0.001  0.657578  -0.001096  4.206224  -0.001  0.19081  0.603397  -0.001024  4.209247  -0.001
C  C21  1  0.72950720  0.97305370  0.76830464  1  -0.147344  0.000583  3.566124  0.001  -0.199267  0.000109  3.814848  0.001  -0.200467  0.00028  3.82286  0.001  -0.05616  -0.198072  -4.4e-05  3.808079  0.0
C  C22  1  0.27050092  0.02696452  0.23169637  1  -0.147098  0.000581  3.565799  0.001  -0.199142  0.000109  3.814746  0.001  -0.200349  0.000279  3.822764  0.001  -0.056081  -0.197947  -4.4e-05  3.807971  0.0
C  C23  1  0.65595033  0.10644517  0.88288621  1  0.738906  -0.001896  3.749855  -0.002  0.691834  -0.000748  4.05053  -0.001  0.731941  -0.000737  4.0424  -0.001  0.246336  0.663505  -0.000778  4.056818  -0.001
C  C24  1  0.34406504  0.89357311  0.11711551  1  0.73865  -0.001894  3.74966  -0.002  0.691736  -0.000748  4.05025  -0.001  0.731841  -0.000736  4.042117  -0.001  0.246357  0.663402  -0.000778  4.056534  -0.001
C  C25  1  0.06698465  0.46189240  0.05841894  1  0.588623  4.8e-05  3.875226  0.0  0.537358  2.3e-05  4.183364  0.0  0.566769  1e-05  4.181246  0.0  0.231458  0.51722  3.9e-05  4.189456  0.0
C  C26  1  0.93298037  0.53808468  0.94156592  1  0.588619  5.1e-05  3.87534  0.0  0.537609  2.3e-05  4.183108  0.0  0.567037  1.3e-05  4.18097  0.0  0.231621  0.517469  3.9e-05  4.189207  0.0
C  C27  1  0.40357557  0.54925086  0.47833935  1  0.570238  -6e-06  3.916547  0.0  0.527242  -1.1e-05  4.220908  0.0  0.55695  -7e-06  4.220503  0.0  0.217099  0.506639  -1e-05  4.226922  0.0
C  C28  1  0.59641988  0.45075562  0.52166493  1  0.570294  -4e-06  3.916469  0.0  0.52732  -1.1e-05  4.220797  0.0  0.557028  -7e-06  4.220391  0.0  0.217074  0.506718  -1e-05  4.226812  0.0
N  N29  1  0.92938437  0.90535003  0.80346266  1  -0.288984  -0.01907  3.234278  -0.018  -0.254129  -0.015844  3.515649  -0.014  -0.292055  -0.016236  3.533195  -0.014  -0.47113  -0.226469  -0.013312  3.501646  -0.012
N  N30  1  0.07061727  0.09464710  0.19653611  1  -0.289047  -0.019067  3.234844  -0.018  -0.254121  -0.015844  3.516198  -0.014  -0.292039  -0.016236  3.533741  -0.014  -0.471176  -0.226459  -0.013313  3.502188  -0.012
O  O31  1  0.07124230  0.20179113  0.80456100  1  -0.700758  0.000846  2.043912  0.001  -0.665842  0.000976  2.298066  0.002  -0.702562  0.000813  2.284681  0.002  -0.383108  -0.647535  0.000545  2.308375  0.001
O  O32  1  0.92876339  0.79817782  0.19541978  1  -0.700716  0.000846  2.043593  0.001  -0.665929  0.000976  2.297845  0.002  -0.702641  0.000813  2.284447  0.002  -0.383108  -0.647621  0.000545  2.308159  0.001
O  O33  1  0.23181744  0.14088903  0.59589347  1  -0.683898  -0.000947  1.911698  -0.001  -0.6474  -0.001154  2.138365  -0.001  -0.679845  -0.001011  2.127532  -0.001  -0.373899  -0.631775  -0.000928  2.144662  -0.001
O  O34  1  0.76822965  0.85911847  0.40411136  1  -0.683881  -0.000947  1.911754  -0.001  -0.647393  -0.001154  2.138431  -0.001  -0.679824  -0.001011  2.127599  -0.001  -0.373831  -0.631773  -0.000928  2.144729  -0.001
O  O35  1  0.49945346  0.19259678  0.86699665  1  -0.684315  0.000525  2.062162  0.001  -0.647557  0.000555  2.314946  0.001  -0.688049  0.000459  2.299976  0.0  -0.387393  -0.627126  0.000594  2.321413  0.001
O  O36  1  0.50057240  0.80742429  0.13299891  1  -0.684429  0.000525  2.061992  0.001  -0.647639  0.000555  2.314648  0.001  -0.688133  0.000458  2.299718  0.0  -0.38755  -0.627206  0.000595  2.321111  0.001
O  O37  1  0.75875420  0.12476789  0.00116465  1  -0.55625  0.014431  2.145586  0.015  -0.511334  0.012842  2.420029  0.013  -0.560647  0.013228  2.406197  0.013  -0.29001  -0.476696  0.011075  2.428488  0.011
O  O38  1  0.24126216  0.87524610  0.99884157  1  -0.555934  0.014432  2.145435  0.015  -0.511221  0.012844  2.419978  0.013  -0.560524  0.013229  2.406145  0.013  -0.289943  -0.47659  0.011076  2.428442  0.011
O  O39  1  0.23956800  0.42025567  0.01969374  1  -0.649273  -2.4e-05  2.125169  0.0  -0.601127  -8.9e-05  2.364726  0.0  -0.634147  -9.9e-05  2.353262  0.0  -0.333066  -0.584378  -6.4e-05  2.371769  0.0
O  O40  1  0.76040990  0.57973345  0.98029003  1  -0.649273  -2.5e-05  2.125503  0.0  -0.601188  -8.9e-05  2.364891  0.0  -0.63419  -0.000101  2.353415  0.0  -0.33311  -0.584439  -6.4e-05  2.371946  0.0
O  O41  1  0.99432909  0.44376707  0.18091805  1  -0.627222  7.7e-05  2.0209  0.0  -0.586233  6.9e-05  2.252103  0.0  -0.618159  7.7e-05  2.239207  0.0  -0.350417  -0.571274  6.2e-05  2.258981  0.0
O  O42  1  0.00565959  0.55621732  0.81906751  1  -0.627304  7.7e-05  2.020548  0.0  -0.586358  6.9e-05  2.251619  0.0  -0.618303  7.7e-05  2.238715  0.0  -0.350495  -0.571397  6.2e-05  2.258503  0.0
O  O43  1  0.25492870  0.52983422  0.54965195  1  -0.643137  -5e-06  2.013983  0.0  -0.611171  -1.4e-05  2.251222  0.0  -0.64485  -8e-06  2.236252  0.0  -0.386975  -0.59549  -6e-06  2.258405  0.0
O  O44  1  0.74506875  0.47017955  0.45035198  1  -0.643227  -6e-06  2.013913  0.0  -0.611297  -1.4e-05  2.251167  0.0  -0.644958  -1e-05  2.236182  0.0  -0.386966  -0.595609  -6e-06  2.258348  0.0
O  O45  1  0.41154378  0.64143712  0.37557554  1  -0.643495  -3.3e-05  2.018778  0.0  -0.607393  -7.4e-05  2.251977  0.0  -0.640893  -6e-05  2.239864  0.0  -0.382411  -0.590993  -3.4e-05  2.257617  0.0
O  O46  1  0.58846218  0.35858353  0.62443432  1  -0.643428  -3.3e-05  2.018815  0.0  -0.607331  -7.4e-05  2.252052  0.0  -0.640843  -5.8e-05  2.239938  0.0  -0.382337  -0.590934  -3.4e-05  2.257693  0.0
O  O47  1  0.43901463  0.62888824  0.82819876  1  -0.928547  0.000276  1.879385  0.0  -0.893421  0.000268  2.073231  0.0  -0.925613  0.000235  2.032391  0.0  -0.655738  -0.878536  0.000274  2.097209  0.0
O  O48  1  0.56095851  0.37111365  0.17180686  1  -0.92847  0.000276  1.879512  0.0  -0.89334  0.000268  2.073355  0.0  -0.925527  0.000235  2.0325  0.0  -0.655601  -0.878449  0.000274  2.097345  0.0
