# generated using pymatgen
data_ZnH12C11S(NO)4
_symmetry_space_group_name_H-M   'P 1'
_cell_length_a   9.39812177
_cell_length_b   12.75193538
_cell_length_c   13.23518941
_cell_angle_alpha   89.99967628
_cell_angle_beta   90.00041985
_cell_angle_gamma   107.79792934
_symmetry_Int_Tables_number   1
_chemical_formula_structural   ZnH12C11S(NO)4
_chemical_formula_sum   'Zn4 H48 C44 S4 N16 O16'
_cell_volume   1510.24825572
_cell_formula_units_Z   4
loop_
 _symmetry_equiv_pos_site_id
 _symmetry_equiv_pos_as_xyz
  1  'x, y, z'
loop_
 _atom_site_type_symbol
 _atom_site_label
 _atom_site_symmetry_multiplicity
 _atom_site_fract_x
 _atom_site_fract_y
 _atom_site_fract_z
 _atom_site_occupancy
 _atom_site_hle17_bader_spin_density
 _atom_site_hle17_ddec_charge
 _atom_site_hle17_ddec_spin_density
 _atom_site_hle17_ddec_sum_bond_order
 _atom_site_hle17_magmom
 _atom_site_hse06_10hf_bader_spin_density
 _atom_site_hse06_10hf_ddec_charge
 _atom_site_hse06_10hf_ddec_spin_density
 _atom_site_hse06_10hf_ddec_sum_bond_order
 _atom_site_hse06_10hf_magmom
 _atom_site_hse06_bader_spin_density
 _atom_site_hse06_ddec_charge
 _atom_site_hse06_ddec_spin_density
 _atom_site_hse06_ddec_sum_bond_order
 _atom_site_hse06_magmom
 _atom_site_pbe_bader_spin_density
 _atom_site_pbe_cm5_charge
 _atom_site_pbe_ddec_charge
 _atom_site_pbe_ddec_spin_density
 _atom_site_pbe_ddec_sum_bond_order
 _atom_site_pbe_magmom
Zn  Zn0  1  0.73794735  0.33924398  0.30234726  1  0  0.929175  0  1.935747  0  0  0.751762  0  2.407044  0  0  0.797875  0  2.354449  0  0  0.619123  0.719394  0  2.443095  0
Zn  Zn1  1  0.26204954  0.16075158  0.80234615  1  0  0.929188  0  1.935706  0  0  0.751817  0  2.407006  0  0  0.797924  0  2.354405  0  0  0.619144  0.719443  0  2.44305  0
Zn  Zn2  1  0.26205306  0.66075812  0.69765343  1  0  0.929191  0  1.935728  0  0  0.751793  0  2.407033  0  0  0.79791  0  2.354434  0  0  0.619129  0.719414  0  2.443075  0
Zn  Zn3  1  0.73795096  0.83924558  0.19765454  1  0  0.929164  0  1.935715  0  0  0.751776  0  2.407017  0  0  0.797882  0  2.354421  0  0  0.619134  0.719401  0  2.443066  0
H  H4  1  0.13322290  0.87958820  0.61388339  1  0  0.345783  0  0.907813  0  0  0.318473  0  0.9854  0  0  0.328333  0  0.976157  0  0  0.300873  0.311537  0  0.991814  0
H  H5  1  0.86677986  0.62040677  0.11388712  1  0  0.345711  0  0.907863  0  0  0.318372  0  0.985507  0  0  0.328233  0  0.976257  0  0  0.300815  0.311432  0  0.991934  0
H  H6  1  0.86678293  0.12040896  0.38611579  1  0  0.345884  0  0.907681  0  0  0.318497  0  0.985352  0  0  0.328353  0  0.976116  0  0  0.300888  0.311562  0  0.991763  0
H  H7  1  0.13322200  0.37959369  0.88611508  1  0  0.34578  0  0.907795  0  0  0.318434  0  0.985444  0  0  0.328295  0  0.976194  0  0  0.300857  0.31149  0  0.991877  0
H  H8  1  0.25495633  0.00919661  0.65280203  1  0  0.344575  0  0.941647  0  0  0.321511  0  1.011011  0  0  0.331367  0  1.002238  0  0  0.290997  0.314645  0  1.017123  0
H  H9  1  0.74504493  0.49080037  0.15280764  1  0  0.344668  0  0.941601  0  0  0.321571  0  1.011016  0  0  0.331429  0  1.002237  0  0  0.291034  0.314707  0  1.017126  0
H  H10  1  0.74504771  0.99080138  0.34719715  1  0  0.344577  0  0.941671  0  0  0.321501  0  1.011047  0  0  0.331359  0  1.002271  0  0  0.29099  0.314636  0  1.017158  0
H  H11  1  0.25495795  0.50920255  0.84719456  1  0  0.34469  0  0.941597  0  0  0.321591  0  1.010998  0  0  0.331449  0  1.002218  0  0  0.291065  0.314726  0  1.01711  0
H  H12  1  0.79984327  0.95175892  0.63776597  1  0  0.289347  0  0.85584  0  0  0.279287  0  0.904419  0  0  0.286481  0  0.899734  0  0  0.336375  0.2738  0  0.908427  0
H  H13  1  0.20015936  0.54823513  0.13776963  1  0  0.289381  0  0.855799  0  0  0.279308  0  0.904396  0  0  0.286491  0  0.899715  0  0  0.336391  0.273824  0  0.90841  0
H  H14  1  0.20016358  0.04824072  0.36223321  1  0  0.289307  0  0.855871  0  0  0.279292  0  0.904399  0  0  0.28647  0  0.899713  0  0  0.336373  0.273807  0  0.908411  0
H  H15  1  0.79984255  0.45176285  0.86223333  1  0  0.289344  0  0.855917  0  0  0.279282  0  0.904489  0  0  0.286471  0  0.899805  0  0  0.336374  0.273797  0  0.9085  0
H  H16  1  0.65166643  0.79075290  0.54980657  1  0  0.109583  0  0.930621  0  0  0.116903  0  0.994466  0  0  0.121129  0  0.990172  0  0  0.123669  0.113311  0  0.998307  0
H  H17  1  0.34833045  0.70924232  0.04980560  1  0  0.109537  0  0.93063  0  0  0.116849  0  0.994513  0  0  0.121074  0  0.99022  0  0  0.123653  0.113261  0  0.998356  0
H  H18  1  0.34833326  0.20925002  0.45019639  1  0  0.109532  0  0.930649  0  0  0.116859  0  0.994465  0  0  0.121091  0  0.990172  0  0  0.123612  0.113267  0  0.99831  0
H  H19  1  0.65167010  0.29075237  0.95019056  1  0  0.109575  0  0.93061  0  0  0.116903  0  0.994459  0  0  0.12113  0  0.990164  0  0  0.123657  0.113313  0  0.998301  0
H  H20  1  0.52538204  0.63834330  0.43736550  1  0  0.136677  0  0.973559  0  0  0.144207  0  1.033268  0  0  0.148396  0  1.031362  0  0  0.113187  0.14066  0  1.035473  0
H  H21  1  0.47461070  0.86165285  0.93736667  1  0  0.136529  0  0.973596  0  0  0.1441  0  1.033259  0  0  0.148283  0  1.03137  0  0  0.113143  0.1406  0  1.035394  0
H  H22  1  0.47461378  0.36165797  0.56263142  1  0  0.136565  0  0.973573  0  0  0.144119  0  1.033261  0  0  0.148306  0  1.031359  0  0  0.11315  0.140621  0  1.035401  0
H  H23  1  0.52539508  0.13834678  0.06263403  1  0  0.136552  0  0.973483  0  0  0.144118  0  1.033168  0  0  0.148304  0  1.031268  0  0  0.113161  0.140623  0  1.035304  0
H  H24  1  0.52655165  0.46952835  0.34115729  1  0  0.079136  0  0.938645  0  0  0.090519  0  0.995986  0  0  0.092187  0  0.994785  0  0  0.120211  0.089301  0  0.99693  0
H  H25  1  0.47343885  0.03046622  0.84115648  1  0  0.079118  0  0.938788  0  0  0.090519  0  0.996108  0  0  0.092186  0  0.994908  0  0  0.120225  0.089297  0  0.997051  0
H  H26  1  0.47344383  0.53047209  0.65883963  1  0  0.07916  0  0.938696  0  0  0.090537  0  0.996027  0  0  0.092207  0  0.994827  0  0  0.120198  0.089315  0  0.996969  0
H  H27  1  0.52656093  0.96953176  0.15884119  1  0  0.079117  0  0.938753  0  0  0.09051  0  0.996078  0  0  0.092177  0  0.994879  0  0  0.120231  0.089289  0  0.997024  0
H  H28  1  0.97172804  0.51614958  0.40819401  1  0  0.069362  0  0.955823  0  0  0.076416  0  1.023419  0  0  0.078608  0  1.02235  0  0  0.109055  0.074604  0  1.02472  0
H  H29  1  0.02826159  0.98384751  0.90819671  1  0  0.06933  0  0.955805  0  0  0.076391  0  1.023393  0  0  0.078585  0  1.022323  0  0  0.109023  0.074592  0  1.024679  0
H  H30  1  0.02826667  0.48385416  0.59180442  1  0  0.069314  0  0.955789  0  0  0.076371  0  1.023392  0  0  0.078565  0  1.022322  0  0  0.109015  0.074553  0  1.024698  0
H  H31  1  0.97173857  0.01614882  0.09180398  1  0  0.069303  0  0.95585  0  0  0.076363  0  1.023438  0  0  0.078557  0  1.022368  0  0  0.109004  0.074562  0  1.024729  0
H  H32  1  0.98651548  0.68171350  0.51498013  1  0  0.115396  0  0.987839  0  0  0.117782  0  1.060354  0  0  0.121589  0  1.058726  0  0  0.105616  0.114353  0  1.062738  0
H  H33  1  0.01347901  0.81827938  0.01498361  1  0  0.115396  0  0.987767  0  0  0.117829  0  1.060227  0  0  0.121638  0  1.058603  0  0  0.105642  0.114401  0  1.062611  0
H  H34  1  0.01347718  0.31828530  0.48501981  1  0  0.11543  0  0.987727  0  0  0.117845  0  1.060212  0  0  0.121656  0  1.058585  0  0  0.105636  0.114417  0  1.062598  0
H  H35  1  0.98652541  0.18171696  0.98501708  1  0  0.115436  0  0.987648  0  0  0.117884  0  1.060097  0  0  0.121696  0  1.058467  0  0  0.105642  0.114456  0  1.062483  0
H  H36  1  0.27479388  0.20954201  0.18001419  1  0  0.097078  0  0.922989  0  0  0.113104  0  0.978943  0  0  0.115761  0  0.977689  0  0  0.094192  0.111355  0  0.979515  0
H  H37  1  0.72520186  0.29045896  0.68001857  1  0  0.097021  0  0.923014  0  0  0.113059  0  0.978983  0  0  0.115728  0  0.977716  0  0  0.094167  0.111308  0  0.979555  0
H  H38  1  0.72520895  0.79046338  0.81998499  1  0  0.097007  0  0.92297  0  0  0.113051  0  0.978925  0  0  0.115716  0  0.977666  0  0  0.094156  0.111299  0  0.979496  0
H  H39  1  0.27479749  0.70954313  0.31998061  1  0  0.097072  0  0.923021  0  0  0.113114  0  0.978969  0  0  0.115773  0  0.977718  0  0  0.094195  0.111365  0  0.979541  0
H  H40  1  0.26932954  0.33529832  0.23271425  1  0  0.092694  0  0.933197  0  0  0.106738  0  0.997091  0  0  0.108766  0  0.996875  0  0  0.092128  0.104776  0  0.998165  0
H  H41  1  0.73067339  0.16470328  0.73272010  1  0  0.092684  0  0.933058  0  0  0.10674  0  0.996983  0  0  0.108767  0  0.996771  0  0  0.092166  0.104775  0  0.998055  0
H  H42  1  0.73066662  0.66470377  0.76728493  1  0  0.092671  0  0.933176  0  0  0.106717  0  0.997084  0  0  0.108747  0  0.996871  0  0  0.09214  0.104753  0  0.998158  0
H  H43  1  0.26933298  0.83530294  0.26727983  1  0  0.092706  0  0.933059  0  0  0.106754  0  0.996976  0  0  0.108784  0  0.996762  0  0  0.092163  0.104792  0  0.99805  0
H  H44  1  0.15253117  0.33189215  0.07050396  1  0  0.089354  0  0.978684  0  0  0.096338  0  1.057481  0  0  0.098862  0  1.056749  0  0  0.084166  0.094813  0  1.057773  0
H  H45  1  0.84746861  0.16810844  0.57050889  1  0  0.089394  0  0.978643  0  0  0.096352  0  1.057455  0  0  0.098877  0  1.056719  0  0  0.084172  0.094829  0  1.057743  0
H  H46  1  0.84746464  0.66810912  0.92949522  1  0  0.089391  0  0.978656  0  0  0.09637  0  1.057482  0  0  0.098895  0  1.056749  0  0  0.084181  0.094847  0  1.057769  0
H  H47  1  0.15253538  0.83189202  0.42949180  1  0  0.089392  0  0.978631  0  0  0.096376  0  1.057443  0  0  0.0989  0  1.056708  0  0  0.084189  0.094851  0  1.057734  0
H  H48  1  0.33715577  0.42239732  0.05543604  1  0  0.115295  0  0.916938  0  0  0.130623  0  0.974305  0  0  0.134128  0  0.971273  0  0  0.103285  0.127979  0  0.976949  0
H  H49  1  0.66284388  0.07760332  0.55544049  1  0  0.115253  0  0.917021  0  0  0.130606  0  0.974322  0  0  0.13411  0  0.971289  0  0  0.103291  0.127964  0  0.976967  0
H  H50  1  0.66284396  0.57760313  0.94456239  1  0  0.115257  0  0.916973  0  0  0.13062  0  0.974307  0  0  0.134126  0  0.971274  0  0  0.103291  0.127977  0  0.976956  0
H  H51  1  0.33715760  0.92239877  0.44456095  1  0  0.115233  0  0.916956  0  0  0.130594  0  0.974295  0  0  0.134098  0  0.971264  0  0  0.103283  0.12795  0  0.976942  0
C  C52  1  0.02965691  0.99295897  0.65579758  1  0  0.49477  0  3.851781  0  0  0.44398  0  4.160563  0  0  0.471693  0  4.167425  0  0  0.24798  0.425707  0  4.154488  0
C  C53  1  0.97034302  0.50703583  0.15580550  1  0  0.494671  0  3.851815  0  0  0.443922  0  4.160527  0  0  0.471618  0  4.167394  0  0  0.247944  0.425653  0  4.154456  0
C  C54  1  0.97034713  0.00703902  0.34419933  1  0  0.495068  0  3.851476  0  0  0.444207  0  4.160345  0  0  0.471897  0  4.167204  0  0  0.248032  0.425933  0  4.154279  0
C  C55  1  0.02965952  0.49296627  0.84419897  1  0  0.494778  0  3.851668  0  0  0.443984  0  4.160412  0  0  0.471687  0  4.16728  0  0  0.247975  0.425707  0  4.154343  0
C  C56  1  0.75773438  0.77219972  0.54028757  1  0  0.038493  0  3.633335  0  0  0.002045  0  3.901941  0  0  0.007981  0  3.91169  0  0  0.065311  -0.001716  0  3.895671  0
C  C57  1  0.24226038  0.72779059  0.04028444  1  0  0.038625  0  3.633301  0  0  0.002084  0  3.902007  0  0  0.008023  0  3.911755  0  0  0.065289  -0.001674  0  3.895741  0
C  C58  1  0.24226322  0.22780073  0.45971161  1  0  0.038567  0  3.6334  0  0  0.002137  0  3.901928  0  0  0.008065  0  3.911687  0  0  0.065405  -0.001618  0  3.89566  0
C  C59  1  0.75774017  0.27220410  0.95971248  1  0  0.038577  0  3.633324  0  0  0.002081  0  3.901966  0  0  0.008015  0  3.911714  0  0  0.065387  -0.001679  0  3.8957  0
C  C60  1  0.75629155  0.67379047  0.48360032  1  0  0.108578  0  3.789922  0  0  0.122672  0  4.027526  0  0  0.126235  0  4.048884  0  0  0.012879  0.119974  0  4.013057  0
C  C61  1  0.24370023  0.82620221  0.98359897  1  0  0.108562  0  3.789671  0  0  0.122744  0  4.027189  0  0  0.126307  0  4.048544  0  0  0.01297  0.12004  0  4.01273  0
C  C62  1  0.24370005  0.32620832  0.51640037  1  0  0.108649  0  3.789915  0  0  0.122763  0  4.027458  0  0  0.126324  0  4.048817  0  0  0.012969  0.120059  0  4.013007  0
C  C63  1  0.75630240  0.17379495  0.01640021  1  0  0.108613  0  3.789801  0  0  0.122741  0  4.027375  0  0  0.126304  0  4.048732  0  0  0.012958  0.12004  0  4.012919  0
C  C64  1  0.62571549  0.61280706  0.43353513  1  0  -0.150432  0  3.663714  0  0  -0.171363  0  3.910823  0  0  -0.178713  0  3.930135  0  0  -0.076045  -0.16644  0  3.8985  0
C  C65  1  0.37427580  0.88718828  0.93353564  1  0  -0.150384  0  3.663626  0  0  -0.171332  0  3.910736  0  0  -0.178683  0  3.930046  0  0  -0.076061  -0.166435  0  3.898368  0
C  C66  1  0.37427785  0.38719338  0.56646178  1  0  -0.150429  0  3.663775  0  0  -0.171393  0  3.910879  0  0  -0.178745  0  3.930201  0  0  -0.076081  -0.166497  0  3.898511  0
C  C67  1  0.62572789  0.11280888  0.06646128  1  0  -0.150467  0  3.663629  0  0  -0.171429  0  3.910765  0  0  -0.178781  0  3.93008  0  0  -0.0761  -0.166533  0  3.898393  0
C  C68  1  0.62653021  0.51980567  0.37945531  1  0  0.156035  0  3.682401  0  0  0.123436  0  3.93415  0  0  0.132007  0  3.950313  0  0  0.055001  0.117861  0  3.923234  0
C  C69  1  0.37345960  0.98018741  0.87945682  1  0  0.156161  0  3.682619  0  0  0.123535  0  3.934412  0  0  0.132105  0  3.950574  0  0  0.055046  0.117958  0  3.923497  0
C  C70  1  0.37346808  0.48019642  0.62054009  1  0  0.156055  0  3.68258  0  0  0.123482  0  3.934302  0  0  0.132048  0  3.950466  0  0  0.055049  0.117907  0  3.92339  0
C  C71  1  0.62653848  0.01980645  0.12054009  1  0  0.156186  0  3.682645  0  0  0.123583  0  3.934398  0  0  0.132152  0  3.950559  0  0  0.055051  0.118005  0  3.923494  0
C  C72  1  0.87517287  0.54562139  0.41823736  1  0  0.114957  0  3.723242  0  0  0.087284  0  3.968216  0  0  0.093113  0  3.987458  0  0  0.036127  0.083279  0  3.955906  0
C  C73  1  0.12482077  0.95437484  0.91824299  1  0  0.115005  0  3.723337  0  0  0.087337  0  3.968332  0  0  0.093164  0  3.987578  0  0  0.036143  0.083303  0  3.956041  0
C  C74  1  0.12482687  0.45437906  0.58176183  1  0  0.115047  0  3.723198  0  0  0.087377  0  3.968185  0  0  0.093206  0  3.987427  0  0  0.036171  0.083386  0  3.955854  0
C  C75  1  0.87517867  0.04562232  0.08175997  1  0  0.115019  0  3.723433  0  0  0.087354  0  3.96841  0  0  0.09318  0  3.987657  0  0  0.036201  0.083339  0  3.956095  0
C  C76  1  0.88353000  0.63785617  0.47579580  1  0  -0.154796  0  3.699967  0  0  -0.175325  0  3.947893  0  0  -0.182071  0  3.968582  0  0  -0.083492  -0.170432  0  3.934506  0
C  C77  1  0.11646244  0.86213572  0.97579510  1  0  -0.154791  0  3.699935  0  0  -0.175348  0  3.947791  0  0  -0.182103  0  3.96849  0  0  -0.083527  -0.170455  0  3.934403  0
C  C78  1  0.11646339  0.36214180  0.52420413  1  0  -0.154917  0  3.699917  0  0  -0.175482  0  3.947834  0  0  -0.182234  0  3.968527  0  0  -0.083593  -0.170595  0  3.934452  0
C  C79  1  0.88353986  0.13786062  0.02420484  1  0  -0.154884  0  3.699881  0  0  -0.175456  0  3.947757  0  0  -0.182209  0  3.968454  0  0  -0.083584  -0.170566  0  3.934372  0
C  C80  1  0.48589524  0.33691039  0.18740908  1  0  0.689886  0  3.859357  0  0  0.641948  0  4.166579  0  0  0.675386  0  4.159635  0  0  0.204908  0.619586  0  4.169566  0
C  C81  1  0.51410167  0.16308809  0.68741229  1  0  0.689814  0  3.859464  0  0  0.641939  0  4.166642  0  0  0.675376  0  4.159702  0  0  0.204924  0.619579  0  4.16963  0
C  C82  1  0.51410300  0.66309417  0.81258783  1  0  0.689859  0  3.859233  0  0  0.641961  0  4.166424  0  0  0.675398  0  4.159482  0  0  0.204853  0.619601  0  4.16941  0
C  C83  1  0.48589559  0.83691153  0.31258915  1  0  0.689803  0  3.859587  0  0  0.641922  0  4.166753  0  0  0.675362  0  4.159811  0  0  0.204915  0.619563  0  4.169737  0
C  C84  1  0.31780997  0.29932437  0.17078186  1  0  -0.232118  0  3.706496  0  0  -0.272543  0  3.960319  0  0  -0.278091  0  3.969076  0  0  -0.168827  -0.268005  0  3.9536  0
C  C85  1  0.68219029  0.20067747  0.67078725  1  0  -0.231933  0  3.706237  0  0  -0.27247  0  3.960173  0  0  -0.278031  0  3.968929  0  0  -0.168875  -0.267937  0  3.953455  0
C  C86  1  0.68219005  0.70067937  0.82921657  1  0  -0.232021  0  3.70631  0  0  -0.272489  0  3.9602  0  0  -0.27805  0  3.968966  0  0  -0.168848  -0.267956  0  3.953484  0
C  C87  1  0.31780940  0.79932545  0.32921419  1  0  -0.232102  0  3.706322  0  0  -0.272584  0  3.960221  0  0  -0.278142  0  3.96899  0  0  -0.168921  -0.268052  0  3.953507  0
C  C88  1  0.27097243  0.33604577  0.06988319  1  0  -0.259061  0  3.71175  0  0  -0.297919  0  3.963283  0  0  -0.303546  0  3.971135  0  0  -0.174861  -0.294439  0  3.958026  0
C  C89  1  0.72902594  0.16395399  0.56988828  1  0  -0.259088  0  3.711706  0  0  -0.297897  0  3.963196  0  0  -0.303512  0  3.971036  0  0  -0.174873  -0.294423  0  3.957935  0
C  C90  1  0.72902552  0.66395550  0.93011599  1  0  -0.259027  0  3.711598  0  0  -0.297933  0  3.963176  0  0  -0.303558  0  3.971032  0  0  -0.174849  -0.294459  0  3.957919  0
C  C91  1  0.27097558  0.83604564  0.43011468  1  0  -0.258983  0  3.711631  0  0  -0.297899  0  3.96322  0  0  -0.303519  0  3.971069  0  0  -0.174889  -0.294421  0  3.957967  0
C  C92  1  0.30044500  0.26922232  0.98214920  1  0  0.695427  0  3.822812  0  0  0.652306  0  4.111685  0  0  0.684731  0  4.106376  0  0  0.205756  0.629733  0  4.114805  0
C  C93  1  0.69955438  0.23077995  0.48215448  1  0  0.69527  0  3.822999  0  0  0.652152  0  4.111842  0  0  0.684582  0  4.106528  0  0  0.205664  0.629585  0  4.11496  0
C  C94  1  0.69955193  0.73077648  0.01785149  1  0  0.695373  0  3.822887  0  0  0.652277  0  4.111744  0  0  0.684703  0  4.106434  0  0  0.205734  0.629705  0  4.114862  0
C  C95  1  0.30044710  0.76922215  0.51784697  1  0  0.695225  0  3.823198  0  0  0.652153  0  4.111996  0  0  0.684587  0  4.10668  0  0  0.205702  0.62958  0  4.115113  0
S  S96  1  0.03575051  0.11561455  0.71116452  1  0  -0.43158  0  2.032579  0  0  -0.402638  0  2.387473  0  0  -0.423217  0  2.37505  0  0  -0.158279  -0.388536  0  2.395805  0
S  S97  1  0.96424704  0.38437972  0.21117261  1  0  -0.431553  0  2.032633  0  0  -0.402649  0  2.387537  0  0  -0.423225  0  2.375119  0  0  -0.158293  -0.388543  0  2.395872  0
S  S98  1  0.96425318  0.88438261  0.28883391  1  0  -0.431678  0  2.032521  0  0  -0.402723  0  2.387454  0  0  -0.423303  0  2.375042  0  0  -0.158327  -0.388615  0  2.395792  0
S  S99  1  0.03575231  0.61562237  0.78883186  1  0  -0.431608  0  2.032579  0  0  -0.402697  0  2.387503  0  0  -0.423275  0  2.375084  0  0  -0.158311  -0.388593  0  2.395836  0
N  N100  1  0.14569799  0.95813022  0.64011101  1  0  -0.631733  0  3.165262  0  0  -0.587469  0  3.405877  0  0  -0.61016  0  3.402176  0  0  -0.546239  -0.571905  0  3.407818  0
N  N101  1  0.85430001  0.54186546  0.14011662  1  0  -0.631722  0  3.165325  0  0  -0.587382  0  3.405836  0  0  -0.610076  0  3.402147  0  0  -0.546208  -0.571821  0  3.407781  0
N  N102  1  0.85430392  0.04186776  0.35988817  1  0  -0.631938  0  3.165202  0  0  -0.587545  0  3.405868  0  0  -0.610235  0  3.402172  0  0  -0.546228  -0.571976  0  3.407809  0
N  N103  1  0.14570287  0.45813747  0.85988558  1  0  -0.631821  0  3.165263  0  0  -0.587465  0  3.405801  0  0  -0.61016  0  3.402109  0  0  -0.546269  -0.571895  0  3.407747  0
N  N104  1  0.89160372  0.92618669  0.62541209  1  0  -0.273834  0  3.423795  0  0  -0.21589  0  3.672721  0  0  -0.236112  0  3.686003  0  0  -0.279222  -0.202116  0  3.663339  0
N  N105  1  0.10839555  0.57380988  0.12541740  1  0  -0.273819  0  3.423813  0  0  -0.215914  0  3.672788  0  0  -0.236091  0  3.686035  0  0  -0.279178  -0.20214  0  3.663413  0
N  N106  1  0.10839993  0.07381295  0.37458633  1  0  -0.273879  0  3.423566  0  0  -0.215992  0  3.67257  0  0  -0.236146  0  3.685799  0  0  -0.279196  -0.202218  0  3.663196  0
N  N107  1  0.89160597  0.42618975  0.87458707  1  0  -0.273806  0  3.423897  0  0  -0.215876  0  3.672844  0  0  -0.236077  0  3.686109  0  0  -0.279162  -0.202102  0  3.663466  0
N  N108  1  0.88457645  0.83357993  0.57458192  1  0  -0.114466  0  3.131595  0  0  -0.092959  0  3.415301  0  0  -0.0967  0  3.431718  0  0  -0.191874  -0.090647  0  3.40425  0
N  N109  1  0.11542349  0.66641436  0.07458526  1  0  -0.114476  0  3.131751  0  0  -0.0929  0  3.415481  0  0  -0.096656  0  3.431892  0  0  -0.191852  -0.09059  0  3.404431  0
N  N110  1  0.11542545  0.16641805  0.42541801  1  0  -0.114456  0  3.131499  0  0  -0.092946  0  3.415215  0  0  -0.096708  0  3.431616  0  0  -0.191907  -0.090634  0  3.404166  0
N  N111  1  0.88457730  0.33358609  0.92541770  1  0  -0.114478  0  3.131739  0  0  -0.092939  0  3.415455  0  0  -0.096683  0  3.431866  0  0  -0.19193  -0.090626  0  3.404404  0
N  N112  1  0.74853506  0.48643109  0.37112566  1  0  -0.329419  0  3.34627  0  0  -0.244388  0  3.614973  0  0  -0.263132  0  3.630966  0  0  -0.333244  -0.231724  0  3.603879  0
N  N113  1  0.25145395  0.01356172  0.87112756  1  0  -0.329495  0  3.34628  0  0  -0.244519  0  3.615059  0  0  -0.263259  0  3.631047  0  0  -0.333282  -0.23185  0  3.603957  0
N  N114  1  0.25146399  0.51356772  0.62887428  1  0  -0.329421  0  3.346302  0  0  -0.244431  0  3.615031  0  0  -0.263171  0  3.63102  0  0  -0.333234  -0.231766  0  3.603926  0
N  N115  1  0.74854369  0.98643625  0.12887313  1  0  -0.329441  0  3.346435  0  0  -0.244446  0  3.615164  0  0  -0.263185  0  3.631153  0  0  -0.333282  -0.231782  0  3.604069  0
O  O116  1  0.53635942  0.27544218  0.24645954  1  0  -0.64515  0  2.03  0  0  -0.575769  0  2.305217  0  0  -0.603909  0  2.288816  0  0  -0.341852  -0.556017  0  2.315408  0
O  O117  1  0.46364018  0.22455360  0.74646593  1  0  -0.645144  0  2.030123  0  0  -0.575803  0  2.305369  0  0  -0.603937  0  2.288953  0  0  -0.341838  -0.556056  0  2.315571  0
O  O118  1  0.46363635  0.72456156  0.75354040  1  0  -0.645119  0  2.029949  0  0  -0.575755  0  2.305151  0  0  -0.603899  0  2.28876  0  0  -0.341804  -0.556009  0  2.315349  0
O  O119  1  0.53636206  0.77544521  0.25353930  1  0  -0.645178  0  2.030284  0  0  -0.57582  0  2.305494  0  0  -0.603958  0  2.289087  0  0  -0.341879  -0.556072  0  2.315699  0
O  O120  1  0.56363182  0.42623322  0.14921163  1  0  -0.620869  0  1.953511  0  0  -0.570336  0  2.172822  0  0  -0.5943  0  2.163511  0  0  -0.321668  -0.552962  0  2.178305  0
O  O121  1  0.43637004  0.07376789  0.64921417  1  0  -0.62084  0  1.953612  0  0  -0.570331  0  2.172901  0  0  -0.594295  0  2.163589  0  0  -0.3217  -0.552956  0  2.178381  0
O  O122  1  0.43636816  0.57377300  0.85078302  1  0  -0.620892  0  1.953535  0  0  -0.570366  0  2.172836  0  0  -0.594328  0  2.163521  0  0  -0.321664  -0.552995  0  2.17832  0
O  O123  1  0.56362969  0.92623256  0.35078879  1  0  -0.620772  0  1.953491  0  0  -0.570265  0  2.172775  0  0  -0.594228  0  2.163467  0  0  -0.321639  -0.552888  0  2.178251  0
O  O124  1  0.39982673  0.22339879  0.98687184  1  0  -0.608486  0  1.955941  0  0  -0.559721  0  2.179995  0  0  -0.584288  0  2.173307  0  0  -0.311186  -0.541764  0  2.184247  0
O  O125  1  0.60017268  0.27660346  0.48687636  1  0  -0.608433  0  1.956084  0  0  -0.559646  0  2.180067  0  0  -0.584209  0  2.173376  0  0  -0.311148  -0.541688  0  2.184315  0
O  O126  1  0.60016743  0.77659590  0.01313036  1  0  -0.608477  0  1.956043  0  0  -0.559716  0  2.180072  0  0  -0.584279  0  2.173382  0  0  -0.311193  -0.541761  0  2.184326  0
O  O127  1  0.39982667  0.72339863  0.51312207  1  0  -0.608413  0  1.956128  0  0  -0.559643  0  2.180101  0  0  -0.584207  0  2.173406  0  0  -0.311162  -0.541677  0  2.184346  0
O  O128  1  0.21462212  0.26220697  0.90289135  1  0  -0.659652  0  2.042415  0  0  -0.571048  0  2.294292  0  0  -0.600414  0  2.279394  0  0  -0.334059  -0.549997  0  2.304278  0
O  O129  1  0.78537410  0.23779478  0.40289477  1  0  -0.659648  0  2.042662  0  0  -0.570989  0  2.294441  0  0  -0.600383  0  2.27958  0  0  -0.334001  -0.549952  0  2.304433  0
O  O130  1  0.78537761  0.73779348  0.09710859  1  0  -0.659628  0  2.042431  0  0  -0.571028  0  2.294302  0  0  -0.600393  0  2.279399  0  0  -0.334049  -0.549978  0  2.304288  0
O  O131  1  0.21462598  0.76220649  0.59710365  1  0  -0.659636  0  2.042765  0  0  -0.570988  0  2.294499  0  0  -0.600383  0  2.279632  0  0  -0.334012  -0.549941  0  2.304478  0
