# generated using pymatgen
data_MnH4(CN)8
_symmetry_space_group_name_H-M   'P 1'
_cell_length_a   7.30900231
_cell_length_b   8.80818378
_cell_length_c   16.62385235
_cell_angle_alpha   90.00138966
_cell_angle_beta   89.99967412
_cell_angle_gamma   89.84894059
_symmetry_Int_Tables_number   1
_chemical_formula_structural   MnH4(CN)8
_chemical_formula_sum   'Mn4 H16 C32 N32'
_cell_volume   1070.22386279
_cell_formula_units_Z   4
loop_
 _symmetry_equiv_pos_site_id
 _symmetry_equiv_pos_as_xyz
  1  'x, y, z'
loop_
 _atom_site_type_symbol
 _atom_site_label
 _atom_site_symmetry_multiplicity
 _atom_site_fract_x
 _atom_site_fract_y
 _atom_site_fract_z
 _atom_site_occupancy
 _atom_site_hle17_ddec_charge
 _atom_site_hle17_ddec_spin_density
 _atom_site_hle17_ddec_sum_bond_order
 _atom_site_hle17_magmom
 _atom_site_hse06_10hf_ddec_charge
 _atom_site_hse06_10hf_ddec_spin_density
 _atom_site_hse06_10hf_ddec_sum_bond_order
 _atom_site_hse06_10hf_magmom
 _atom_site_hse06_ddec_charge
 _atom_site_hse06_ddec_spin_density
 _atom_site_hse06_ddec_sum_bond_order
 _atom_site_hse06_magmom
 _atom_site_pbe_cm5_charge
 _atom_site_pbe_ddec_charge
 _atom_site_pbe_ddec_spin_density
 _atom_site_pbe_ddec_sum_bond_order
 _atom_site_pbe_magmom
Mn  Mn0  1  0.73712126  0.87496649  0.86597846  1  1.093275  4.753065  2.083982  4.638  0.936922  4.649071  2.621829  4.463  0.986187  4.708912  2.552335  4.542  0.673203  0.900167  4.584248  2.673314  4.381
Mn  Mn1  1  0.23714164  0.37476472  0.63404528  1  1.093089  4.754697  2.081629  4.639  0.936536  4.652146  2.618911  4.465  0.985694  4.710809  2.549783  4.543  0.672757  0.900107  4.589771  2.669733  4.385
Mn  Mn2  1  0.26285953  0.12503266  0.13401695  1  1.093486  4.754619  2.080623  4.639  0.936882  4.652135  2.617851  4.465  0.986048  4.710778  2.548722  4.543  0.672698  0.900419  4.589823  2.668704  4.385
Mn  Mn3  1  0.76286263  0.62504934  0.36599645  1  1.093265  -4.767438  2.083859  -4.638  0.936905  -4.661084  2.621786  -4.463  0.986169  -4.726144  2.5522  -4.542  0.673256  0.900258  -4.590727  2.673339  -4.38
H  H4  1  0.06414743  0.68327143  0.94047283  1  0.092032  0.000458  0.951834  0.0  0.094156  0.001043  1.022246  0.001  0.096694  0.000776  1.021323  0.001  0.122831  0.092244  0.001322  1.023152  0.001
H  H5  1  0.56415303  0.18343748  0.55940331  1  0.091833  0.000372  0.951821  0.0  0.094251  0.000798  1.021994  0.001  0.096795  0.000593  1.021059  0.001  0.122911  0.092313  0.001006  1.022958  0.001
H  H6  1  0.93589369  0.31661296  0.05943596  1  0.091602  0.000469  0.951957  0.0  0.09414  0.001057  1.022008  0.001  0.096684  0.000789  1.021069  0.001  0.122793  0.092206  0.001336  1.022969  0.001
H  H7  1  0.43582754  0.81674899  0.44051691  1  0.091815  -0.000369  0.951703  0.0  0.094196  -0.000787  1.021842  -0.001  0.096743  -0.000588  1.020904  -0.001  0.122779  0.09226  -0.000986  1.022803  -0.001
H  H8  1  0.40888895  0.67940387  0.93933847  1  0.094867  0.000394  0.937431  0.0  0.097934  0.00093  1.005929  0.001  0.100486  0.000677  1.004963  0.001  0.124313  0.095976  0.001191  1.00693  0.001
H  H9  1  0.90885612  0.17965404  0.56048805  1  0.094687  0.000349  0.937671  0.0  0.098159  0.000802  1.005608  0.001  0.100626  0.000584  1.004733  0.001  0.12444  0.096211  0.001022  1.006601  0.001
H  H10  1  0.59116181  0.32043396  0.06053242  1  0.094704  0.000407  0.937784  0.0  0.098163  0.000934  1.005748  0.001  0.100628  0.000683  1.004875  0.001  0.124443  0.096221  0.001193  1.006724  0.001
H  H11  1  0.09108743  0.82059493  0.43938645  1  0.094793  -0.000351  0.937801  0.0  0.098016  -0.000759  1.006097  -0.001  0.100567  -0.000554  1.005133  -0.001  0.124331  0.09605  -0.000961  1.007117  -0.001
H  H12  1  0.41183317  0.04656850  0.78237500  1  0.098491  0.00023  0.93592  0.0  0.104096  0.000781  1.001039  0.001  0.106431  0.000488  1.000276  0.001  0.126291  0.102327  0.001088  1.001903  0.001
H  H13  1  0.91180951  0.54657500  0.71760620  1  0.098568  0.000246  0.935867  0.0  0.104343  0.00083  1.000774  0.001  0.106682  0.000529  1.000006  0.001  0.126372  0.10256  0.001146  1.001642  0.001
H  H14  1  0.58820503  0.95347485  0.21762823  1  0.09871  0.00061  0.935729  0.0  0.104288  0.001246  1.00085  0.001  0.106626  0.000959  1.000083  0.001  0.126399  0.102526  0.001532  1.001707  0.001
H  H15  1  0.08816171  0.45342076  0.28239462  1  0.098394  -0.000603  0.93601  0.0  0.104152  -0.001217  1.000927  -0.001  0.106491  -0.00094  1.000159  -0.001  0.126317  0.10238  -0.00149  1.001799  -0.001
H  H16  1  0.06589434  0.04706693  0.78086555  1  0.098388  0.000166  0.937045  0.0  0.104662  0.00069  1.000322  0.001  0.106826  0.000422  1.000188  0.001  0.126153  0.103024  0.000972  1.000744  0.001
H  H17  1  0.56590622  0.54708707  0.71911531  1  0.098631  0.000161  0.936904  0.0  0.104873  0.000672  1.000202  0.001  0.107034  0.000409  1.000075  0.001  0.126285  0.103231  0.000949  1.000614  0.001
H  H18  1  0.93414665  0.95293214  0.21912986  1  0.098605  0.000614  0.936847  0.0  0.104774  0.001144  1.000249  0.001  0.106936  0.000928  1.000121  0.001  0.126292  0.103146  0.001355  1.00065  0.001
H  H19  1  0.43410874  0.45294723  0.28087589  1  0.098452  -0.000608  0.936919  0.0  0.104704  -0.001131  1.00025  -0.001  0.106872  -0.00092  1.000116  -0.001  0.126187  0.103057  -0.001335  1.00068  -0.001
C  C20  1  0.77867701  0.24328861  0.88964457  1  0.513418  0.019737  3.984948  0.02  0.475494  0.026051  4.269974  0.025  0.501184  0.02279  4.283161  0.023  0.316455  0.457963  0.02937  4.259988  0.028
C  C21  1  0.27859226  0.74318018  0.61044836  1  0.512717  0.01972  3.985718  0.02  0.474955  0.025983  4.270699  0.025  0.50062  0.022748  4.283917  0.023  0.316217  0.457432  0.029274  4.260707  0.028
C  C22  1  0.22134756  0.75670480  0.11040979  1  0.513537  0.019811  3.984606  0.02  0.475689  0.026117  4.269521  0.025  0.501347  0.02286  4.282721  0.023  0.316746  0.458158  0.029434  4.259536  0.028
C  C23  1  0.72132159  0.25672711  0.38963908  1  0.513248  -0.019951  3.984573  -0.02  0.475351  -0.026134  4.269594  -0.025  0.501027  -0.022988  4.28279  -0.023  0.316422  0.457844  -0.029349  4.259578  -0.028
C  C24  1  0.77675237  0.50475147  0.88128778  1  0.511059  0.018841  3.983312  0.019  0.471674  0.024937  4.272318  0.024  0.499088  0.021469  4.282528  0.021  0.315286  0.452692  0.028532  4.264749  0.027
C  C25  1  0.27666327  0.00474442  0.61871248  1  0.511847  0.018946  3.982964  0.019  0.472676  0.025032  4.271792  0.024  0.500093  0.021564  4.281983  0.021  0.315636  0.453687  0.028633  4.264235  0.027
C  C26  1  0.22327498  0.49521242  0.11869320  1  0.511008  0.018947  3.982334  0.019  0.471695  0.024982  4.271314  0.024  0.499079  0.021543  4.281527  0.021  0.315383  0.45271  0.028518  4.263754  0.027
C  C27  1  0.72327099  0.99526160  0.38130038  1  0.510785  -0.018988  3.983141  -0.019  0.471409  -0.024873  4.272158  -0.024  0.498806  -0.021542  4.282371  -0.021  0.315169  0.452444  -0.028326  4.264567  -0.026
C  C28  1  0.71036893  0.75433209  0.04600593  1  0.509184  0.026441  3.979204  0.026  0.470051  0.030749  4.269054  0.029  0.496604  0.027564  4.281151  0.027  0.310905  0.451586  0.034146  4.260071  0.032
C  C29  1  0.20974326  0.25424809  0.45395752  1  0.508862  0.026944  3.978419  0.026  0.469911  0.032991  4.268257  0.03  0.496305  0.028834  4.280309  0.027  0.310651  0.451629  0.037315  4.259402  0.034
C  C30  1  0.29026981  0.24578649  0.95397203  1  0.508769  0.026758  3.979082  0.026  0.469897  0.032822  4.268914  0.03  0.496299  0.028623  4.28098  0.027  0.310653  0.451615  0.037219  4.260027  0.034
C  C31  1  0.78962198  0.74563611  0.54601383  1  0.50922  -0.026873  3.978623  -0.026  0.469984  -0.031033  4.26848  -0.029  0.496541  -0.027943  4.280577  -0.027  0.31091  0.451532  -0.034322  4.259504  -0.032
C  C32  1  0.72419745  0.63009826  0.16862110  1  0.505001  -0.016104  3.997499  -0.017  0.46778  -0.020086  4.285532  -0.021  0.493771  -0.018167  4.298316  -0.019  0.309566  0.449901  -0.022011  4.275884  -0.022
C  C33  1  0.22397452  0.12980826  0.33154765  1  0.505684  0.017143  3.996015  0.018  0.468609  0.02337  4.284106  0.023  0.494439  0.020107  4.296862  0.02  0.310027  0.450911  0.026689  4.274554  0.026
C  C34  1  0.27600468  0.37015830  0.83155658  1  0.505303  0.017122  3.995669  0.018  0.468317  0.023476  4.283762  0.023  0.494148  0.020146  4.296542  0.02  0.309985  0.450624  0.026885  4.274191  0.026
C  C35  1  0.77580407  0.86994367  0.66861438  1  0.50579  0.01593  3.997565  0.017  0.468469  0.020099  4.285568  0.021  0.494462  0.018072  4.298343  0.019  0.309924  0.450573  0.022138  4.275942  0.023
C  C36  1  0.14156882  0.76418920  0.90461514  1  0.094466  0.00143  3.651732  0.002  0.067175  0.004391  3.901003  0.004  0.069351  0.003051  3.919011  0.003  0.068491  0.065186  0.006064  3.889796  0.005
C  C37  1  0.64156580  0.26430468  0.59530816  1  0.094796  0.001407  3.652367  0.002  0.067006  0.004159  3.902022  0.003  0.069183  0.002951  3.920041  0.003  0.068483  0.065013  0.00557  3.89078  0.004
C  C38  1  0.85847500  0.23572585  0.09531470  1  0.094483  0.001478  3.651889  0.002  0.066611  0.00435  3.901587  0.004  0.068787  0.003069  3.919591  0.003  0.068324  0.064624  0.005917  3.89035  0.005
C  C39  1  0.35840937  0.73582390  0.40465597  1  0.094639  -0.001413  3.651379  -0.002  0.067104  -0.003973  3.900837  -0.003  0.069286  -0.002857  3.918841  -0.003  0.068317  0.065084  -0.005209  3.889668  -0.004
C  C40  1  0.33200534  0.76313071  0.90478273  1  0.096218  0.001325  3.648966  0.002  0.068764  0.004288  3.899547  0.004  0.070975  0.002885  3.917518  0.003  0.070101  0.066713  0.00601  3.888338  0.005
C  C41  1  0.83199951  0.26330749  0.59511242  1  0.096577  0.001399  3.64905  0.002  0.068939  0.004196  3.89986  0.003  0.071215  0.002903  3.917881  0.003  0.070064  0.0669  0.005754  3.88863  0.004
C  C42  1  0.66803579  0.23674915  0.09512004  1  0.09716  0.001245  3.648482  0.002  0.06944  0.004146  3.899284  0.003  0.071718  0.002789  3.917296  0.003  0.070291  0.067402  0.005793  3.888029  0.005
C  C43  1  0.16798381  0.73687103  0.40483246  1  0.096695  -0.001303  3.649251  -0.002  0.069083  -0.004048  3.900041  -0.003  0.0713  -0.002822  3.918003  -0.003  0.07033  0.067014  -0.005427  3.888889  -0.004
C  C44  1  0.33326807  0.96559332  0.81781682  1  0.08547  0.001325  3.662554  0.001  0.057249  0.004223  3.914409  0.003  0.058484  0.002917  3.933932  0.002  0.065492  0.05589  0.005756  3.902172  0.004
C  C45  1  0.83326267  0.46557882  0.68216153  1  0.085722  0.001393  3.662613  0.002  0.057485  0.004178  3.914254  0.003  0.058732  0.002909  3.933783  0.003  0.065701  0.056144  0.005664  3.902009  0.004
C  C46  1  0.66677566  0.03440802  0.18216235  1  0.085545  0.00143  3.66235  0.002  0.057366  0.004274  3.913982  0.003  0.05861  0.003  3.933497  0.002  0.065503  0.056001  0.005778  3.901759  0.004
C  C47  1  0.16671814  0.53439876  0.31784351  1  0.085267  -0.001403  3.662456  -0.002  0.057042  -0.004166  3.914239  -0.003  0.058283  -0.002963  3.933753  -0.003  0.065304  0.055662  -0.005513  3.902075  -0.004
C  C48  1  0.14272846  0.96588446  0.81711385  1  0.080637  0.001451  3.663382  0.002  0.053014  0.004347  3.912251  0.003  0.053971  0.002992  3.932661  0.003  0.063572  0.051837  0.006042  3.89939  0.005
C  C49  1  0.64272306  0.46586660  0.68287159  1  0.080308  0.001409  3.663602  0.002  0.052645  0.004225  3.912296  0.004  0.053598  0.002908  3.932729  0.003  0.063438  0.05148  0.00585  3.899406  0.005
C  C50  1  0.85731528  0.03410211  0.18287074  1  0.080638  0.001577  3.66355  0.002  0.053043  0.004411  3.912289  0.004  0.053996  0.003117  3.932712  0.003  0.063609  0.051876  0.006043  3.899416  0.005
C  C51  1  0.35725363  0.53412234  0.31712863  1  0.080985  -0.001564  3.663267  -0.002  0.053294  -0.004238  3.912177  -0.004  0.054257  -0.002994  3.93258  -0.003  0.063545  0.052092  -0.005757  3.899376  -0.005
N  N52  1  0.74011849  0.11589314  0.87644530  1  -0.596989  0.023338  2.866332  0.004  -0.554506  0.031513  3.166173  0.006  -0.577755  0.026489  3.166947  0.002  -0.374897  -0.537504  0.036463  3.165336  0.01
N  N53  1  0.24020185  0.61578281  0.62374957  1  -0.596029  0.023378  2.867531  0.004  -0.553467  0.031515  3.167007  0.005  -0.576715  0.026517  3.167886  0.002  -0.374255  -0.53652  0.036448  3.166077  0.01
N  N54  1  0.25978841  0.88411406  0.12367223  1  -0.596946  0.023317  2.866544  0.004  -0.55438  0.031477  3.166248  0.005  -0.577634  0.026451  3.167081  0.002  -0.374839  -0.537419  0.036441  3.165347  0.01
N  N55  1  0.75988440  0.38412424  0.37641789  1  -0.59691  -0.023416  2.866041  -0.004  -0.554422  -0.031612  3.165882  -0.005  -0.577683  -0.026585  3.166654  -0.001  -0.374861  -0.537411  -0.036439  3.165043  -0.009
N  N56  1  0.83247634  0.37711284  0.91036800  1  -0.46167  0.009162  3.312307  0.009  -0.408274  0.014579  3.574878  0.013  -0.433482  0.011649  3.579584  0.01  -0.304364  -0.390371  0.017638  3.570867  0.015
N  N57  1  0.33226732  0.87702974  0.58969945  1  -0.461574  0.009246  3.311793  0.009  -0.408578  0.014597  3.574704  0.013  -0.433722  0.011688  3.579307  0.01  -0.304385  -0.39067  0.017631  3.570698  0.015
N  N58  1  0.16765495  0.62289064  0.08963584  1  -0.461659  0.009209  3.31202  0.009  -0.408375  0.014563  3.574647  0.012  -0.433495  0.011651  3.579279  0.01  -0.304574  -0.390479  0.017595  3.570635  0.015
N  N59  1  0.66754251  0.12291175  0.41036875  1  -0.461572  -0.009271  3.312093  -0.009  -0.408219  -0.014461  3.57473  -0.012  -0.433388  -0.011681  3.5794  -0.01  -0.304352  -0.390316  -0.017439  3.570705  -0.015
N  N60  1  0.73788669  0.62799483  0.85892316  1  -0.618484  0.021706  2.863538  0.004  -0.577228  0.030663  3.162022  0.007  -0.600679  0.025903  3.163423  0.003  -0.375984  -0.560175  0.035579  3.161036  0.011
N  N61  1  0.23792993  0.12805447  0.64100297  1  -0.618954  0.021661  2.864909  0.004  -0.577626  0.03054  3.163502  0.007  -0.601094  0.02577  3.164858  0.003  -0.3763  -0.560624  0.035475  3.162561  0.011
N  N62  1  0.26205999  0.37192717  0.14102473  1  -0.618205  0.021707  2.862973  0.004  -0.576911  0.030551  3.161448  0.007  -0.600364  0.025849  3.162881  0.003  -0.375844  -0.559894  0.035405  3.160414  0.011
N  N63  1  0.76212056  0.87200816  0.35894371  1  -0.618217  -0.021668  2.863567  -0.004  -0.576886  -0.030533  3.161901  -0.007  -0.600372  -0.025824  3.163365  -0.003  -0.375824  -0.559823  -0.035265  3.160913  -0.011
N  N64  1  0.73815120  0.84397750  0.99448819  1  -0.601314  0.011822  2.818706  -0.007  -0.561529  0.020096  3.110911  -0.005  -0.584423  0.015897  3.11305  -0.008  -0.380405  -0.544853  0.02392  3.109455  -0.002
N  N65  1  0.23758856  0.34421341  0.50529093  1  -0.601166  0.017312  2.817076  -0.002  -0.561609  0.027933  3.108979  0.002  -0.58433  0.022405  3.111088  -0.002  -0.380126  -0.545172  0.033459  3.107538  0.007
N  N66  1  0.26245374  0.15580053  0.00530209  1  -0.601235  0.016964  2.817228  -0.002  -0.561638  0.027554  3.109122  0.002  -0.584385  0.021979  3.111252  -0.002  -0.380135  -0.545192  0.033159  3.10767  0.007
N  N67  1  0.76180094  0.65598864  0.49449635  1  -0.601021  -0.012113  2.81811  0.007  -0.56129  -0.02056  3.110501  0.005  -0.584148  -0.016387  3.112537  0.008  -0.38026  -0.544616  -0.024248  3.109068  0.002
N  N68  1  0.66661192  0.64837308  0.09596725  1  -0.461941  0.001339  3.31594  0.001  -0.409693  0.002258  3.579016  0.002  -0.435271  0.001753  3.58455  0.001  -0.30565  -0.391371  0.002752  3.574432  0.002
N  N69  1  0.16584771  0.14798612  0.40414894  1  -0.462294  0.009644  3.311156  0.009  -0.410126  0.014925  3.574009  0.012  -0.435477  0.011961  3.579564  0.01  -0.3061  -0.392124  0.018048  3.569471  0.015
N  N70  1  0.33414827  0.35202122  0.90416411  1  -0.461768  0.009675  3.311214  0.009  -0.409772  0.015242  3.574144  0.013  -0.43512  0.012148  3.579691  0.01  -0.305877  -0.39176  0.018522  3.569571  0.015
N  N71  1  0.83341389  0.85160305  0.59596617  1  -0.462585  -0.001324  3.316046  -0.001  -0.410151  -0.001955  3.579006  -0.001  -0.435732  -0.001628  3.584529  -0.001  -0.305931  -0.391834  -0.002305  3.574451  -0.002
N  N72  1  0.76691085  0.60132301  0.23545255  1  -0.607362  -0.017991  2.841095  -0.001  -0.567748  -0.024792  3.13631  -0.002  -0.590698  -0.021342  3.137977  0.0  -0.375838  -0.550913  -0.027794  3.13487  -0.005
N  N73  1  0.26720992  0.10117113  0.26477288  1  -0.608312  0.024049  2.839124  0.007  -0.568753  0.033044  3.133997  0.01  -0.591601  0.028079  3.13575  0.006  -0.376048  -0.552091  0.038113  3.132476  0.015
N  N74  1  0.23279208  0.39877190  0.76477927  1  -0.608175  0.023983  2.839361  0.007  -0.568645  0.033055  3.13431  0.01  -0.591485  0.028049  3.136063  0.006  -0.376172  -0.551997  0.038165  3.132794  0.015
N  N75  1  0.73305827  0.89875610  0.73543427  1  -0.607777  0.017922  2.841386  0.001  -0.568168  0.024701  3.136626  0.002  -0.591119  0.021243  3.138301  0.0  -0.376067  -0.55132  0.027792  3.135167  0.005
N  N76  1  0.04718233  0.86539656  0.86079213  1  -0.264656  0.028892  3.230447  0.018  -0.196621  0.035849  3.492693  0.021  -0.21071  0.031733  3.508661  0.017  -0.287888  -0.186621  0.040394  3.482511  0.025
N  N77  1  0.54714176  0.36552773  0.63911466  1  -0.264881  0.02894  3.231402  0.018  -0.196552  0.035769  3.493517  0.02  -0.210674  0.031755  3.509579  0.017  -0.287797  -0.186525  0.040078  3.483205  0.024
N  N78  1  0.95286283  0.13454459  0.13916057  1  -0.264771  0.028819  3.230866  0.018  -0.196476  0.035665  3.493032  0.021  -0.210588  0.031595  3.509085  0.017  -0.287667  -0.186467  0.040087  3.482738  0.024
N  N79  1  0.45277593  0.63461341  0.36081398  1  -0.264985  -0.028933  3.230005  -0.018  -0.196957  -0.035659  3.49238  -0.02  -0.211059  -0.031763  3.508349  -0.017  -0.287822  -0.186969  -0.039646  3.482234  -0.024
N  N80  1  0.42744822  0.86417280  0.86164043  1  -0.260135  0.029848  3.223201  0.019  -0.193502  0.037533  3.487915  0.023  -0.207193  0.033047  3.503136  0.019  -0.287752  -0.18376  0.042516  3.47821  0.027
N  N81  1  0.92747192  0.36434244  0.63824134  1  -0.260133  0.029796  3.223284  0.019  -0.193594  0.037331  3.488097  0.022  -0.207315  0.032967  3.503383  0.019  -0.287795  -0.183859  0.042001  3.478299  0.027
N  N82  1  0.57259968  0.13577290  0.13829964  1  -0.260677  0.029786  3.222546  0.019  -0.193928  0.037355  3.487161  0.023  -0.207626  0.032927  3.502406  0.019  -0.287894  -0.184191  0.042193  3.477368  0.027
N  N83  1  0.07256203  0.63582580  0.36167707  1  -0.260328  -0.029902  3.222854  -0.019  -0.193752  -0.037285  3.487706  -0.022  -0.207442  -0.033027  3.502914  -0.019  -0.287847  -0.184061  -0.041676  3.478076  -0.026
