# generated using pymatgen
data_ZnH17C24N5O4
_symmetry_space_group_name_H-M   'P 1'
_cell_length_a   21.54978899
_cell_length_b   21.56200525
_cell_length_c   21.96145582
_cell_angle_alpha   60.65584671
_cell_angle_beta   63.37062545
_cell_angle_gamma   89.99141055
_symmetry_Int_Tables_number   1
_chemical_formula_structural   ZnH17C24N5O4
_chemical_formula_sum   'Zn4 H68 C96 N20 O16'
_cell_volume   7629.64833648
_cell_formula_units_Z   4
loop_
 _symmetry_equiv_pos_site_id
 _symmetry_equiv_pos_as_xyz
  1  'x, y, z'
loop_
 _atom_site_type_symbol
 _atom_site_label
 _atom_site_symmetry_multiplicity
 _atom_site_fract_x
 _atom_site_fract_y
 _atom_site_fract_z
 _atom_site_occupancy
 _atom_site_pbe_bader_charge
 _atom_site_pbe_bader_spin_density
 _atom_site_pbe_cm5_charge
 _atom_site_pbe_ddec_charge
 _atom_site_pbe_ddec_spin_density
 _atom_site_pbe_ddec_sum_bond_order
 _atom_site_pbe_magmom
Zn  Zn0  1  0.54058019  0.04394452  0.91093778  1  1.282608  0  0.674212  0.85065  0  2.344958  0
Zn  Zn1  1  0.45836898  0.95411268  0.09085486  1  1.301692  0  0.67883  0.852906  0  2.348109  0
Zn  Zn2  1  0.95945471  0.45654024  0.08690242  1  1.290565  0  0.6679  0.834882  0  2.395258  0
Zn  Zn3  1  0.04100589  0.54410634  0.91164955  1  1.299314  0  0.671168  0.834171  0  2.402069  0
H  H4  1  0.80992665  0.38716666  0.21716192  1  0.08575  0  0.120487  0.10121  0  0.985359  0
H  H5  1  0.73550233  0.31730531  0.36816469  1  0.080789  0  0.102761  0.111581  0  1.013549  0
H  H6  1  0.57206544  0.19346766  0.62414698  1  0.029813  0  0.097319  0.115892  0  1.01849  0
H  H7  1  0.77204993  0.18813800  0.62607083  1  0.034616  0  0.092651  0.109554  0  1.037922  0
H  H8  1  0.82035283  0.24853686  0.50218604  1  0.034843  0  0.096923  0.082114  0  1.037608  0
H  H9  1  0.68077467  0.26018601  0.49757637  1  0.035927  0  0.10094  0.098438  0  1.002396  0
H  H10  1  0.19026313  0.60516653  0.78244117  1  0.096244  0  0.121108  0.101495  0  0.984268  0
H  H11  1  0.26461997  0.68678602  0.63153935  1  0.078398  0  0.103369  0.112047  0  1.012321  0
H  H12  1  0.42799383  0.81568255  0.37649906  1  0.048127  0  0.098022  0.115673  0  1.017159  0
H  H13  1  0.22789059  0.81545817  0.37487649  1  0.034731  0  0.092918  0.108757  0  1.038626  0
H  H14  1  0.17996831  0.75150702  0.49754344  1  0.02488  0  0.097271  0.082536  0  1.037789  0
H  H15  1  0.31912924  0.75722501  0.50318399  1  0.061178  0  0.101979  0.099974  0  1.001701  0
H  H16  1  0.57666096  0.07437726  0.12994324  1  0.11457  0  0.100091  0.109423  0  1.013082  0
H  H17  1  0.61211679  0.10499899  0.20670121  1  0.02008  0  0.096344  0.109924  0  1.005463  0
H  H18  1  0.69529652  0.20350237  0.86995410  1  0.072208  0  0.096438  0.094038  0  1.042915  0
H  H19  1  0.91817891  0.42677655  0.87158129  1  0.086861  0  0.098935  0.107722  0  1.016048  0
H  H20  1  0.88411618  0.39491033  0.79466808  1  0.054789  0  0.094675  0.107931  0  1.009076  0
H  H21  1  0.79949882  0.29746534  0.13154173  1  0.064266  0  0.099403  0.098758  0  1.039102  0
H  H22  1  0.30389717  0.79374618  0.13024408  1  0.100894  0  0.099743  0.108542  0  1.013403  0
H  H23  1  0.19847543  0.68623142  0.20561653  1  0.041113  0  0.096063  0.109557  0  1.006698  0
H  H24  1  0.42347276  0.92619136  0.87026549  1  0.081501  0  0.09701  0.095021  0  1.042677  0
H  H25  1  0.20150485  0.70399630  0.86691560  1  0.093219  0  0.101094  0.108975  0  1.008464  0
H  H26  1  0.30522112  0.81255329  0.79170509  1  0.045469  0  0.096546  0.109925  0  1.005601  0
H  H27  1  0.08067882  0.57236024  0.12672029  1  0.083426  0  0.09504  0.094325  0  1.047083  0
H  H28  1  0.29891484  0.07141894  0.13220421  1  0.064343  0  0.098224  0.104091  0  1.01347  0
H  H29  1  0.19490273  0.10527653  0.20675538  1  0.030999  0  0.094327  0.107429  0  1.009019  0
H  H30  1  0.42068270  0.19825974  0.87220866  1  0.0722  0  0.097562  0.097949  0  1.046607  0
H  H31  1  0.19976858  0.42506407  0.86613634  1  0.067342  0  0.101209  0.108747  0  1.008743  0
H  H32  1  0.30501550  0.39260254  0.79185085  1  0.012852  0  0.096523  0.109857  0  1.005343  0
H  H33  1  0.07805249  0.29849014  0.12600396  1  0.051818  0  0.098195  0.099354  0  1.040554  0
H  H34  1  0.57893204  0.79616895  0.13173742  1  0.077217  0  0.099033  0.105364  0  1.01362  0
H  H35  1  0.61319108  0.68760730  0.20768457  1  0.02957  0  0.09441  0.107238  0  1.009034  0
H  H36  1  0.69685511  0.92805546  0.87165174  1  0.072582  0  0.097598  0.098185  0  1.044877  0
H  H37  1  0.92201252  0.70508435  0.87108585  1  0.068466  0  0.097812  0.105562  0  1.015219  0
H  H38  1  0.88536713  0.81188469  0.79474680  1  0.046973  0  0.09458  0.107943  0  1.009284  0
H  H39  1  0.80318657  0.57299807  0.13074940  1  0.066404  0  0.099052  0.099118  0  1.037444  0
H  H40  1  0.04152220  0.40749323  0.15153181  1  0.514464  0  0.302465  0.323733  0  0.97297  0
H  H41  1  0.04427949  0.40750892  0.22844009  1  0.428187  0  0.311123  0.305479  0  0.935098  0
H  H42  1  0.92148002  0.28042128  0.43726915  1  0.430796  0  0.301103  0.29018  0  0.966071  0
H  H43  1  0.99397498  0.30708264  0.34596289  1  0.439267  0  0.302169  0.287165  0  0.968528  0
H  H44  1  0.67959988  0.09133856  0.84423671  1  0.499621  0  0.302073  0.323388  0  0.990366  0
H  H45  1  0.76083487  0.12562419  0.75421795  1  0.408514  0  0.313078  0.306733  0  0.933361  0
H  H46  1  0.46326353  0.06293769  0.84342947  1  0.522889  0  0.303236  0.324536  0  0.986648  0
H  H47  1  0.46431508  0.12164420  0.75340846  1  0.435515  0  0.317154  0.311841  0  0.928294  0
H  H48  1  0.95809384  0.56027481  0.84785238  1  0.486568  0  0.303815  0.324964  0  0.975062  0
H  H49  1  0.95625181  0.63670140  0.76931026  1  0.42637  0  0.312094  0.3055  0  0.933614  0
H  H50  1  0.07904045  0.71806699  0.56220752  1  0.440458  0  0.299733  0.288428  0  0.966262  0
H  H51  1  0.00732000  0.65173644  0.65268497  1  0.441725  0  0.302075  0.286559  0  0.966937  0
H  H52  1  0.31966118  0.93702615  0.15732658  1  0.524215  0  0.300893  0.320927  0  0.993703  0
H  H53  1  0.23883754  0.88319130  0.24766327  1  0.414515  0  0.313237  0.306473  0  0.930946  0
H  H54  1  0.53621133  0.90349224  0.15760710  1  0.528707  0  0.302477  0.323646  0  0.992917  0
H  H55  1  0.53485295  0.86970672  0.24792614  1  0.424443  0  0.317096  0.311927  0  0.92598  0
H  H56  1  0.73166634  0.20064246  0.22628534  1  0.424869  0  0.300766  0.29173  0  0.967846  0
H  H57  1  0.65599518  0.13233733  0.27580603  1  0.429647  0  0.304377  0.29629  0  0.946673  0
H  H58  1  0.78576288  0.27803036  0.77438735  1  0.423526  0  0.296276  0.2857  0  0.981698  0
H  H59  1  0.85389175  0.35431200  0.72519745  1  0.43988  0  0.303676  0.295639  0  0.948386  0
H  H60  1  0.06032141  0.57550796  0.22283928  1  0.415357  0  0.298545  0.289388  0  0.967167  0
H  H61  1  0.09249755  0.59046235  0.27301141  1  0.423255  0  0.302032  0.293261  0  0.949076  0
H  H62  1  0.42053223  0.94860052  0.77422012  1  0.435782  0  0.296353  0.285169  0  0.982783  0
H  H63  1  0.39840800  0.92211937  0.72395290  1  0.422013  0  0.304617  0.296356  0  0.946324  0
H  H64  1  0.08129757  0.22567349  0.22257925  1  0.429872  0  0.295158  0.284822  0  0.986306  0
H  H65  1  0.10240288  0.14833879  0.27353263  1  0.426198  0  0.302936  0.294743  0  0.949154  0
H  H66  1  0.44109631  0.29542320  0.77619702  1  0.427996  0  0.300047  0.292164  0  0.966884  0
H  H67  1  0.41172470  0.36390536  0.72533146  1  0.427402  0  0.303845  0.294993  0  0.946788  0
H  H68  1  0.71118683  0.55047090  0.22621779  1  0.432072  0  0.30036  0.290966  0  0.97146  0
H  H69  1  0.64338383  0.57746232  0.27602769  1  0.423169  0  0.304425  0.296097  0  0.946444  0
H  H70  1  0.76430304  0.92527063  0.77655786  1  0.425832  0  0.300206  0.292332  0  0.966299  0
H  H71  1  0.83970967  0.90647606  0.72669694  1  0.440677  0  0.302613  0.29405  0  0.948242  0
C  C72  1  0.41501760  0.91395920  0.00027585  1  1.569308  0  0.217674  0.600713  0  4.149699  0
C  C73  1  0.41350015  0.08319565  0.00140680  1  1.561151  0  0.219921  0.606835  0  4.14693  0
C  C74  1  0.58461972  0.08519101  0.99971800  1  1.551394  0  0.218054  0.603177  0  4.153221  0
C  C75  1  0.58525309  0.91482053  0.00059424  1  1.563136  0  0.218619  0.604641  0  4.14953  0
C  C76  1  0.08776491  0.41616968  0.99487014  1  1.543655  0  0.217813  0.601671  0  4.154942  0
C  C77  1  0.08782975  0.58567714  0.99687228  1  1.567805  0  0.213863  0.596276  0  4.165242  0
C  C78  1  0.91400474  0.58475571  0.00190911  1  1.586263  0  0.2133  0.595801  0  4.160531  0
C  C79  1  0.91093470  0.41323240  0.00398591  1  1.547464  0  0.2172  0.599231  0  4.155668  0
C  C80  1  0.83470995  0.37019976  0.25444535  1  0.485006  0  0.023538  0.062981  0  4.029768  0
C  C81  1  0.79424818  0.33199629  0.33802889  1  -0.06209  0  -0.10797  -0.208612  0  4.050356  0
C  C82  1  0.82860577  0.31075150  0.38432516  1  0.037719  0  -0.015909  0.03663  0  4.056827  0
C  C83  1  0.90489418  0.33145249  0.34078338  1  0.386805  0  0.094064  0.11565  0  4.01637  0
C  C84  1  0.94307800  0.37083339  0.25388041  1  0.984382  0  0.224845  0.351951  0  4.031989  0
C  C85  1  0.78838163  0.26652175  0.47284178  1  -0.034951  0  -0.090235  -0.10932  0  3.995598  0
C  C86  1  0.71573781  0.24384816  0.52322482  1  0.004109  0  -0.084943  -0.118914  0  3.951012  0
C  C87  1  0.60204853  0.17621896  0.65582097  1  0.05044  0  -0.129798  -0.359593  0  3.953759  0
C  C88  1  0.67776004  0.19753091  0.61210128  1  -0.041287  0  -0.010402  0.180257  0  4.140013  0
C  C89  1  0.71328408  0.17298482  0.65616743  1  -0.008017  0  -0.137994  -0.370436  0  3.973422  0
C  C90  1  0.67274937  0.12920605  0.74155617  1  0.956064  0  0.220834  0.471997  0  4.106607  0
C  C91  1  0.56389849  0.13049447  0.74153262  1  0.914004  0  0.224811  0.47568  0  4.101042  0
C  C92  1  0.16547853  0.62539329  0.74517485  1  0.479263  0  0.025842  0.067601  0  4.029157  0
C  C93  1  0.20589004  0.67095059  0.66171275  1  -0.062759  0  -0.107976  -0.209575  0  4.049155  0
C  C94  1  0.17140945  0.69569379  0.61554363  1  0.017517  0  -0.015368  0.038046  0  4.062243  0
C  C95  1  0.09523699  0.67270692  0.65884813  1  0.381767  0  0.093335  0.114117  0  4.01376  0
C  C96  1  0.05704349  0.62541734  0.74569128  1  1.033394  0  0.227083  0.355762  0  4.03916  0
C  C97  1  0.21169962  0.73984391  0.52717593  1  -0.010874  0  -0.09087  -0.110209  0  3.999402  0
C  C98  1  0.28436728  0.76698112  0.47726932  1  -0.10384  0  -0.084607  -0.119366  0  3.951184  0
C  C99  1  0.39798864  0.83072571  0.34484407  1  0.040819  0  -0.128607  -0.356625  0  3.954845  0
C  C100  1  0.32234645  0.80937355  0.38852089  1  0.097549  0  -0.009659  0.179881  0  4.141467  0
C  C101  1  0.28664499  0.82969189  0.34465991  1  -0.031184  0  -0.136884  -0.367437  0  3.975005  0
C  C102  1  0.32694816  0.87121353  0.25937897  1  0.948676  0  0.221975  0.473702  0  4.105196  0
C  C103  1  0.43599835  0.87067877  0.25919359  1  0.86455  0  0.226717  0.478812  0  4.098076  0
C  C104  1  0.62160524  0.12103648  0.07341392  1  -0.012186  0  -0.08829  -0.149911  0  3.933257  0
C  C105  1  0.66693637  0.16618329  0.07510741  1  -0.015417  0  -0.009281  0.099004  0  4.080726  0
C  C106  1  0.65662629  0.15223723  0.14998487  1  0.001157  0  -0.121691  -0.291098  0  3.997688  0
C  C107  1  0.68998519  0.19450899  0.92561445  1  -0.054757  0  -0.098301  -0.156348  0  3.976631  0
C  C108  1  0.73628785  0.24149495  0.92416988  1  -0.017334  0  -0.012439  -0.008733  0  3.99487  0
C  C109  1  0.79551890  0.30404408  0.84876039  1  0.369012  0  0.089702  0.255395  0  4.114335  0
C  C110  1  0.87362884  0.37981206  0.92823743  1  -0.070668  0  -0.090256  -0.154113  0  3.935588  0
C  C111  1  0.82866396  0.33447841  0.92629295  1  0.023485  0  -0.011027  0.09793  0  4.08114  0
C  C112  1  0.83941779  0.34787575  0.85143307  1  -0.021304  0  -0.122497  -0.292082  0  4.000733  0
C  C113  1  0.80583821  0.30529788  0.07595764  1  -0.016786  0  -0.095546  -0.153298  0  3.972624  0
C  C114  1  0.75952017  0.25870472  0.07712031  1  0.007839  0  -0.012309  -0.009263  0  3.996688  0
C  C115  1  0.70061521  0.19601420  0.15258663  1  0.368331  0  0.091843  0.257997  0  4.117994  0
C  C116  1  0.63327556  0.13475467  0.99954293  1  -0.026347  0  -0.025299  -0.031643  0  4.029436  0
C  C117  1  0.72510982  0.22731777  0.99969099  1  0.012474  0  -0.00462  -0.005304  0  3.946184  0
C  C118  1  0.86241735  0.36522585  0.00230263  1  -0.004836  0  -0.024783  -0.029823  0  4.025917  0
C  C119  1  0.77070400  0.27305631  0.00155868  1  -0.042715  0  -0.003186  -0.001932  0  3.943265  0
C  C120  1  0.31100302  0.80406880  0.07334569  1  -0.073536  0  -0.087991  -0.148957  0  3.93035  0
C  C121  1  0.26461163  0.75758011  0.07410813  1  0.027324  0  -0.009605  0.097836  0  4.076579  0
C  C122  1  0.20629091  0.69636962  0.14842559  1  0.02353  0  -0.122142  -0.29037  0  4.00057  0
C  C123  1  0.37801268  0.87930891  0.92554711  1  -0.073912  0  -0.098711  -0.156508  0  3.98  0
C  C124  1  0.33354050  0.83419708  0.92318930  1  -0.006919  0  -0.012651  -0.010875  0  3.999453  0
C  C125  1  0.34374472  0.84803823  0.84719565  1  0.369867  0  0.09097  0.256882  0  4.116769  0
C  C126  1  0.19379093  0.69399234  0.92389510  1  -0.011303  0  -0.087643  -0.149092  0  3.935566  0
C  C127  1  0.24013155  0.74050628  0.92314088  1  -0.025047  0  -0.009735  0.098279  0  4.082566  0
C  C128  1  0.29783498  0.80211342  0.84883377  1  -0.001215  0  -0.121192  -0.290161  0  3.999418  0
C  C129  1  0.12558863  0.61988116  0.07154676  1  -0.063412  0  -0.099367  -0.1579  0  3.97975  0
C  C130  1  0.17060251  0.66443401  0.07394194  1  -0.002979  0  -0.014082  -0.011579  0  4.002165  0
C  C131  1  0.16013834  0.65084216  0.14991101  1  0.330538  0  0.089575  0.254438  0  4.113305  0
C  C132  1  0.36676433  0.86457487  0.99984246  1  -0.025696  0  -0.024782  -0.031277  0  4.027898  0
C  C133  1  0.27572567  0.77260490  0.99823706  1  -0.005954  0  -0.002067  -0.000315  0  3.939812  0
C  C134  1  0.13703225  0.63447444  0.99722370  1  -0.02445  0  -0.024029  -0.026975  0  4.020589  0
C  C135  1  0.22874664  0.72571847  0.99899723  1  -0.023867  0  -0.004435  -0.002793  0  3.945011  0
C  C136  1  0.30682500  0.11792871  0.07487977  1  -0.027683  0  -0.092543  -0.155012  0  3.941274  0
C  C137  1  0.26066059  0.16394107  0.07530163  1  0.023635  0  -0.010425  0.097744  0  4.082698  0
C  C138  1  0.20278860  0.15187774  0.14930205  1  -0.039549  0  -0.123109  -0.294016  0  4.003646  0
C  C139  1  0.37582985  0.19121717  0.92709571  1  -0.028233  0  -0.096386  -0.154135  0  3.97068  0
C  C140  1  0.33105655  0.23836826  0.92438699  1  0.011286  0  -0.011354  -0.005332  0  3.993387  0
C  C141  1  0.34232651  0.30086648  0.84809986  1  0.336465  0  0.089654  0.253391  0  4.116087  0
C  C142  1  0.19208104  0.37860751  0.92333227  1  0.01749  0  -0.086327  -0.147507  0  3.936818  0
C  C143  1  0.23808687  0.33252402  0.92322185  1  -0.005728  0  -0.009259  0.097085  0  4.082265  0
C  C144  1  0.29662611  0.34539269  0.84918506  1  0.060329  0  -0.121027  -0.289081  0  3.999673  0
C  C145  1  0.12375318  0.30645261  0.07105867  1  -0.018044  0  -0.098178  -0.1567  0  3.966217  0
C  C146  1  0.16804765  0.25875824  0.07406562  1  0.048582  0  -0.01261  -0.009976  0  3.996548  0
C  C147  1  0.15737737  0.19677964  0.15037356  1  0.398833  0  0.091506  0.25968  0  4.113754  0
C  C148  1  0.36392160  0.13164346  0.00162239  1  -0.060538  0  -0.025195  -0.033165  0  4.029533  0
C  C149  1  0.27267822  0.22503793  0.99915294  1  0.022879  0  -0.004213  -0.005665  0  3.94472  0
C  C150  1  0.13577927  0.36596410  0.99636103  1  0.003996  0  -0.024221  -0.030076  0  4.023867  0
C  C151  1  0.22614951  0.27164432  0.99941297  1  -0.091233  0  -0.003856  -0.001426  0  3.946074  0
C  C152  1  0.62367502  0.80649285  0.07477773  1  -0.094248  0  -0.092702  -0.157599  0  3.94508  0
C  C153  1  0.66897989  0.75961829  0.07614781  1  0.011545  0  -0.010498  0.099031  0  4.083757  0
C  C154  1  0.65822456  0.69792308  0.15073399  1  0.032535  0  -0.123041  -0.29394  0  4.004258  0
C  C155  1  0.69086050  0.88020902  0.92695284  1  -0.013477  0  -0.096481  -0.154189  0  3.96658  0
C  C156  1  0.73769326  0.83521188  0.92524303  1  -0.033125  0  -0.012475  -0.009381  0  3.996691  0
C  C157  1  0.79649550  0.84808794  0.84956505  1  0.406985  0  0.090328  0.257385  0  4.113186  0
C  C158  1  0.87670913  0.69462507  0.92780197  1  -0.0154  0  -0.092208  -0.15654  0  3.943233  0
C  C159  1  0.83111959  0.74125845  0.92634346  1  -0.006308  0  -0.010607  0.09774  0  4.080778  0
C  C160  1  0.84093749  0.80215117  0.85172496  1  -0.037127  0  -0.123447  -0.294761  0  4.005189  0
C  C161  1  0.80843904  0.62006348  0.07544232  1  -0.032525  0  -0.095325  -0.152366  0  3.968808  0
C  C162  1  0.76183818  0.66524540  0.07718267  1  0.01888  0  -0.012943  -0.011621  0  3.996905  0
C  C163  1  0.70225501  0.65155858  0.15289921  1  0.345287  0  0.092446  0.259296  0  4.117907  0
C  C164  1  0.63434797  0.86590383  0.00107954  1  -0.01447  0  -0.025614  -0.031123  0  4.028701  0
C  C165  1  0.72698036  0.77402807  0.00051276  1  0.036056  0  -0.003696  -0.003874  0  3.94255  0
C  C166  1  0.86529977  0.63445347  0.00149499  1  -0.084304  0  -0.023614  -0.025351  0  4.016077  0
C  C167  1  0.77289449  0.72672951  0.00190213  1  -0.020786  0  -0.003501  -0.000142  0  3.939075  0
N  N168  1  0.90818140  0.38998042  0.21262274  1  -1.237346  0  -0.333381  -0.297535  0  3.486647  0
N  N169  1  0.59878988  0.10785215  0.78404376  1  -1.224069  0  -0.341284  -0.423369  0  3.311724  0
N  N170  1  0.09201345  0.60323512  0.78687295  1  -1.252256  0  -0.336528  -0.301456  0  3.497172  0
N  N171  1  0.40092160  0.89143799  0.21683665  1  -1.234272  0  -0.344498  -0.426605  0  3.317698  0
N  N172  1  0.01723953  0.38492570  0.21290880  1  -1.252688  0  -0.589462  -0.642587  0  3.293124  0
N  N173  1  0.94723775  0.31688324  0.37614039  1  -1.214192  0  -0.600477  -0.597857  0  3.339432  0
N  N174  1  0.70647025  0.10498430  0.78536979  1  -1.233547  0  -0.585915  -0.636586  0  3.307945  0
N  N175  1  0.49031509  0.10833523  0.78471741  1  -1.229318  0  -0.579636  -0.631281  0  3.310602  0
N  N176  1  0.98307439  0.59904001  0.78649467  1  -1.235724  0  -0.588004  -0.638798  0  3.303148  0
N  N177  1  0.05277072  0.69293677  0.62346895  1  -1.231594  0  -0.60192  -0.600069  0  3.331162  0
N  N178  1  0.29282359  0.89144164  0.21593342  1  -1.248679  0  -0.587136  -0.637007  0  3.297556  0
N  N179  1  0.50959179  0.89092528  0.21610102  1  -1.229257  0  -0.581362  -0.634303  0  3.302859  0
N  N180  1  0.68806672  0.18337556  0.22606462  1  -1.210525  0  -0.603317  -0.622193  0  3.321562  0
N  N181  1  0.80492655  0.32042792  0.77508078  1  -1.234227  0  -0.60457  -0.622473  0  3.332145  0
N  N182  1  0.10509208  0.58969542  0.22304066  1  -1.192918  0  -0.606468  -0.626136  0  3.316075  0
N  N183  1  0.40161892  0.90572093  0.77404458  1  -1.211807  0  -0.604799  -0.621426  0  3.329607  0
N  N184  1  0.09959240  0.18218099  0.22320730  1  -1.232708  0  -0.604437  -0.622054  0  3.330492  0
N  N185  1  0.39757023  0.31270234  0.77526103  1  -1.228941  0  -0.603923  -0.622479  0  3.315979  0
N  N186  1  0.69254782  0.59359685  0.22628097  1  -1.211594  0  -0.603116  -0.620852  0  3.32463  0
N  N187  1  0.80845514  0.90864974  0.77611741  1  -1.230511  0  -0.606025  -0.625245  0  3.315099  0
O  O188  1  0.45393039  0.97718740  0.93358389  1  -1.195867  0  -0.321246  -0.572896  0  2.37709  0
O  O189  1  0.41442065  0.89046604  0.06600095  1  -1.165971  0  -0.311666  -0.536454  0  2.326875  0
O  O190  1  0.39234858  0.02049442  0.06803559  1  -1.189831  0  -0.317743  -0.567231  0  2.385747  0
O  O191  1  0.47313097  0.10720245  0.93551149  1  -1.175469  0  -0.315585  -0.544983  0  2.327101  0
O  O192  1  0.52526164  0.04289165  0.06545283  1  -1.170577  0  -0.312095  -0.538896  0  2.329892  0
O  O193  1  0.60658609  0.08885819  0.93289131  1  -1.186725  0  -0.320877  -0.572129  0  2.378346  0
O  O194  1  0.58578458  0.95649537  0.93470112  1  -1.167601  0  -0.315488  -0.543708  0  2.330749  0
O  O195  1  0.54573633  0.91135051  0.06708905  1  -1.189858  0  -0.316465  -0.56755  0  2.388011  0
O  O196  1  0.04429103  0.40904827  0.06258181  1  -1.195171  0  -0.319066  -0.567889  0  2.373388  0
O  O197  1  0.09307658  0.46214031  0.92712775  1  -1.167788  0  -0.31291  -0.537474  0  2.315298  0
O  O198  1  0.10624351  0.59462082  0.92863978  1  -1.165805  0  -0.318802  -0.546114  0  2.327945  0
O  O199  1  0.03136926  0.53885085  0.06507736  1  -1.183051  0  -0.325393  -0.56187  0  2.335558  0
O  O200  1  0.97027115  0.60555757  0.93395600  1  -1.178808  0  -0.320534  -0.555187  0  2.33605  0
O  O201  1  0.89504750  0.52525810  0.07033015  1  -1.175357  0  -0.323478  -0.553053  0  2.32116  0
O  O202  1  0.90565912  0.39090760  0.07197958  1  -1.161817  0  -0.316482  -0.541305  0  2.314089  0
O  O203  1  0.95481719  0.47344643  0.93659255  1  -1.188731  0  -0.315211  -0.562094  0  2.377378  0
