# generated using pymatgen
data_Zn4H11C26S4O13F
_symmetry_space_group_name_H-M   'P 1'
_cell_length_a   19.67228545
_cell_length_b   19.65803675
_cell_length_c   33.38040533
_cell_angle_alpha   79.25106136
_cell_angle_beta   79.20846964
_cell_angle_gamma   63.95126747
_symmetry_Int_Tables_number   1
_chemical_formula_structural   Zn4H11C26S4O13F
_chemical_formula_sum   'Zn16 H44 C104 S16 O52 F4'
_cell_volume   11312.63549695
_cell_formula_units_Z   4
loop_
 _symmetry_equiv_pos_site_id
 _symmetry_equiv_pos_as_xyz
  1  'x, y, z'
loop_
 _atom_site_type_symbol
 _atom_site_label
 _atom_site_symmetry_multiplicity
 _atom_site_fract_x
 _atom_site_fract_y
 _atom_site_fract_z
 _atom_site_occupancy
 _atom_site_pbe_bader_charge
 _atom_site_pbe_bader_spin_density
 _atom_site_pbe_cm5_charge
 _atom_site_pbe_ddec_charge
 _atom_site_pbe_ddec_spin_density
 _atom_site_pbe_ddec_sum_bond_order
 _atom_site_pbe_magmom
Zn  Zn0  1  0.05645261  0.39947831  0.47788023  1  1.318975  0  0.672093  0.973508  0  2.345087  0
Zn  Zn1  1  0.98427035  0.48362824  0.55967835  1  1.319648  0  0.668916  0.948354  0  2.395588  0
Zn  Zn2  1  0.05902295  0.56069913  0.48207766  1  1.321089  0  0.673522  0.961594  0  2.390115  0
Zn  Zn3  1  0.90097546  0.55555588  0.47931448  1  1.316151  0  0.673508  0.96042  0  2.391827  0
Zn  Zn4  1  0.69332769  0.35020037  0.27147261  1  1.321144  0  0.671849  0.970229  0  2.361735  0
Zn  Zn5  1  0.68938425  0.18947656  0.26675447  1  1.312734  0  0.671403  0.968152  0  2.359139  0
Zn  Zn6  1  0.76855796  0.26672069  0.19042606  1  1.314452  0  0.67295  0.959861  0  2.389166  0
Zn  Zn7  1  0.84779848  0.19483466  0.27204803  1  1.315923  0  0.669944  0.95364  0  2.390405  0
Zn  Zn8  1  0.26707167  0.76720992  0.68951565  1  1.308483  0  0.670635  0.960937  0  2.3773  0
Zn  Zn9  1  0.34859951  0.69588260  0.77143822  1  1.313071  0  0.670299  0.959922  0  2.372699  0
Zn  Zn10  1  0.19251939  0.84925214  0.77124527  1  1.320458  0  0.674631  0.972774  0  2.36669  0
Zn  Zn11  1  0.19082672  0.68876296  0.76689754  1  1.315795  0  0.670595  0.959232  0  2.377071  0
Zn  Zn12  1  0.56009250  0.06049854  0.98291901  1  1.317388  0  0.671152  0.965031  0  2.368583  0
Zn  Zn13  1  0.40111573  0.05565382  0.97847033  1  1.313888  0  0.67048  0.960109  0  2.373864  0
Zn  Zn14  1  0.55574146  0.90084846  0.97839517  1  1.315098  0  0.671772  0.969374  0  2.36289  0
Zn  Zn15  1  0.48287815  0.98323570  0.06029394  1  1.314406  0  0.671286  0.964894  0  2.367866  0
H  H16  1  0.95419123  0.24833990  0.35134927  1  0.097572  0  0.109829  0.118341  0  0.99295  0
H  H17  1  0.74676318  0.45476559  0.35067046  1  0.106965  0  0.119411  0.148858  0  0.977833  0
H  H18  1  0.00010940  0.29868605  0.39950343  1  0.078576  0  0.113028  0.120286  0  0.98565  0
H  H19  1  0.09734278  0.59717156  0.70005733  1  0.111782  0  0.110144  0.118672  0  0.993363  0
H  H20  1  0.20123454  0.70124274  0.59723525  1  0.152902  0  0.119141  0.147978  0  0.978573  0
H  H21  1  0.05014449  0.55005321  0.65091363  1  0.077429  0  0.110966  0.117099  0  0.990806  0
H  H22  1  0.46355097  0.23907280  0.34084361  1  0.126719  0  0.119829  0.145283  0  0.970582  0
H  H23  1  0.47908114  0.70272949  0.60133614  1  0.1125  0  0.121193  0.14719  0  0.968568  0
H  H24  1  0.20298213  0.97889070  0.60111568  1  0.107141  0  0.120447  0.146027  0  0.969802  0
H  H25  1  0.94940786  0.97053541  0.34792307  1  0.130074  0  0.119299  0.144261  0  0.971907  0
H  H26  1  0.54997882  0.04993075  0.15277028  1  0.09827  0  0.110943  0.119914  0  0.989665  0
H  H27  1  0.65275397  0.15283523  0.04877678  1  0.145493  0  0.118451  0.147874  0  0.978431  0
H  H28  1  0.59918678  0.09907689  0.19982720  1  0.124977  0  0.112988  0.120213  0  0.986266  0
H  H29  1  0.54699734  0.77151779  0.14858566  1  0.104651  0  0.12063  0.146289  0  0.968941  0
H  H30  1  0.16258283  0.14154146  0.04018540  1  0.13268  0  0.120668  0.146474  0  0.969694  0
H  H31  1  0.50150873  0.79573831  0.89863182  1  0.101263  0  0.111313  0.120539  0  0.990264  0
H  H32  1  0.29520128  0.00327915  0.89925951  1  0.10773  0  0.11887  0.148187  0  0.97864  0
H  H33  1  0.45147818  0.74961227  0.85046069  1  0.074341  0  0.111805  0.118978  0  0.987751  0
H  H34  1  0.30053922  0.27958578  0.90210294  1  0.130304  0  0.120245  0.145837  0  0.97057  0
H  H35  1  0.78653483  0.01070036  0.90914467  1  0.130422  0  0.120775  0.146211  0  0.96979  0
H  H36  1  0.23136347  0.57536699  0.39906735  1  0.100603  0  0.102908  0.149051  0  0.976438  0
H  H37  1  0.33065751  0.55109139  0.39697006  1  0.038228  0  0.090395  0.126882  0  1.000901  0
H  H38  1  0.27601721  0.53582856  0.44403110  1  0.097251  0  0.10315  0.14998  0  0.974142  0
H  H39  1  0.82106639  0.47694161  0.65344523  1  0.073904  0  0.100651  0.144755  0  0.982301  0
H  H40  1  0.75725176  0.53668588  0.69101676  1  0.027807  0  0.089917  0.126113  0  1.001294  0
H  H41  1  0.82390251  0.56421218  0.65599681  1  0.077298  0  0.101744  0.147096  0  0.976655  0
H  H42  1  0.06434069  0.32378352  0.65610711  1  0.077207  0  0.101813  0.14688  0  0.976868  0
H  H43  1  0.03652586  0.25715361  0.69094203  1  0.027876  0  0.090522  0.126869  0  1.000843  0
H  H44  1  0.97708741  0.32122454  0.65338842  1  0.07312  0  0.100038  0.143556  0  0.983489  0
H  H45  1  0.79815826  0.72201078  0.38981775  1  0.080006  0  0.104079  0.151288  0  0.972549  0
H  H46  1  0.73190133  0.81997571  0.38626804  1  0.044464  0  0.090573  0.126886  0  1.000486  0
H  H47  1  0.75863321  0.76694344  0.43475407  1  0.069906  0  0.103012  0.148952  0  0.976745  0
H  H48  1  0.77292214  0.42891510  0.09668741  1  0.079544  0  0.102917  0.149251  0  0.975924  0
H  H49  1  0.71326789  0.49272113  0.05917339  1  0.031097  0  0.090113  0.126424  0  1.000678  0
H  H50  1  0.68585115  0.42596973  0.09412903  1  0.07998  0  0.103735  0.150839  0  0.973242  0
H  H51  1  0.07232476  0.14822904  0.23988687  1  0.050523  0  0.102179  0.146859  0  0.977265  0
H  H52  1  0.15792676  0.06953124  0.22409153  1  0.021537  0  0.090559  0.126849  0  1.000655  0
H  H53  1  0.06945019  0.06101846  0.23725359  1  0.078258  0  0.102118  0.14747  0  0.977129  0
H  H54  1  0.49139551  0.48299919  0.81519190  1  0.068545  0  0.102541  0.148432  0  0.977385  0
H  H55  1  0.51787492  0.43018530  0.86375777  1  0.048263  0  0.090995  0.127861  0  0.999996  0
H  H56  1  0.45164188  0.52817304  0.86008168  1  0.067244  0  0.102472  0.148137  0  0.975671  0
H  H57  1  0.97354862  0.71408987  0.80596638  1  0.092467  0  0.101687  0.1467  0  0.977467  0
H  H58  1  0.91940384  0.69840293  0.85316068  1  0.048468  0  0.090151  0.126359  0  1.000956  0
H  H59  1  0.01868704  0.67442789  0.85080495  1  0.080665  0  0.102372  0.148564  0  0.976627  0
C  C60  1  0.06146744  0.31567555  0.56148274  1  1.56609  0  0.214507  0.611929  0  4.217408  0
C  C61  1  0.06898248  0.56912654  0.56914609  1  1.576923  0  0.227158  0.622022  0  4.169783  0
C  C62  1  0.18439480  0.43815473  0.43831513  1  1.533063  0  0.215465  0.61416  0  4.214588  0
C  C63  1  0.93852201  0.68464230  0.43846865  1  1.553636  0  0.215115  0.612152  0  4.219077  0
C  C64  1  0.93071540  0.43099480  0.43082242  1  1.579924  0  0.229058  0.622776  0  4.170894  0
C  C65  1  0.81575756  0.56183933  0.56165119  1  1.565456  0  0.214788  0.611199  0  4.219133  0
C  C66  1  0.56545870  0.31100148  0.31145917  1  1.565849  0  0.216894  0.610763  0  4.217109  0
C  C67  1  0.68103025  0.18090900  0.18091568  1  1.589151  0  0.228995  0.623086  0  4.166441  0
C  C68  1  0.68858957  0.43485514  0.18870683  1  1.516781  0  0.215116  0.612495  0  4.216761  0
C  C69  1  0.93464143  0.18882886  0.18871070  1  1.54589  0  0.214951  0.611717  0  4.216368  0
C  C70  1  0.81926676  0.31940102  0.31925629  1  1.561436  0  0.230862  0.606474  0  4.16007  0
C  C71  1  0.81213328  0.06562310  0.31146860  1  1.543719  0  0.217321  0.609966  0  4.217044  0
C  C72  1  0.43416761  0.68877798  0.68818552  1  1.560756  0  0.217095  0.609518  0  4.219414  0
C  C73  1  0.31916505  0.81899989  0.81904171  1  1.582095  0  0.228505  0.622355  0  4.166205  0
C  C74  1  0.18866852  0.93411269  0.68791129  1  1.554684  0  0.217372  0.609234  0  4.221301  0
C  C75  1  0.06523305  0.81135762  0.81130747  1  1.584667  0  0.215575  0.614312  0  4.2142  0
C  C76  1  0.18075617  0.68077271  0.68055426  1  1.560514  0  0.229945  0.603994  0  4.161004  0
C  C77  1  0.31131556  0.56565956  0.81139961  1  1.524328  0  0.214684  0.614322  0  4.213592  0
C  C78  1  0.43789887  0.18447942  0.93850400  1  1.544542  0  0.217395  0.608853  0  4.21742  0
C  C79  1  0.43056661  0.93083904  0.93068711  1  1.565057  0  0.231122  0.605007  0  4.159838  0
C  C80  1  0.68423603  0.93910649  0.93850390  1  1.5663  0  0.217558  0.6109  0  4.216256  0
C  C81  1  0.56121306  0.81597799  0.06171662  1  1.559756  0  0.217134  0.609942  0  4.219728  0
C  C82  1  0.56930221  0.06948061  0.06925708  1  1.560834  0  0.23079  0.605368  0  4.15912  0
C  C83  1  0.31531172  0.06187571  0.06124712  1  1.527406  0  0.216629  0.609042  0  4.217685  0
C  C84  1  0.90042408  0.40404192  0.40208336  1  0.051592  0  -0.019968  -0.146418  0  3.946769  0
C  C85  1  0.84784278  0.34830665  0.34795007  1  -0.025645  0  -0.008524  0.000893  0  3.977409  0
C  C86  1  0.82893958  0.44685871  0.38766125  1  0.459958  0  0.112052  0.288609  0  4.026933  0
C  C87  1  0.91942410  0.30414060  0.36174703  1  -0.000943  0  -0.086293  -0.113278  0  3.980552  0
C  C88  1  0.80248425  0.41998606  0.36107512  1  0.062677  0  -0.089439  -0.222898  0  3.96094  0
C  C89  1  0.94474469  0.33202992  0.38839145  1  -0.031626  0  -0.075883  -0.065465  0  3.972842  0
C  C90  1  0.09866792  0.59856503  0.59694810  1  0.00207  0  -0.019408  -0.144752  0  3.944807  0
C  C91  1  0.15202049  0.65212927  0.65179193  1  -0.098052  0  -0.00808  0.002281  0  3.976279  0
C  C92  1  0.14168889  0.64149725  0.58273896  1  0.462057  0  0.112076  0.287727  0  4.02976  0
C  C93  1  0.10937558  0.60938213  0.66698592  1  -0.005777  0  -0.086525  -0.11349  0  3.982716  0
C  C94  1  0.16816528  0.66815974  0.60942939  1  0.057532  0  -0.089328  -0.221631  0  3.961863  0
C  C95  1  0.08337155  0.58332524  0.63976198  1  0.026387  0  -0.077615  -0.067891  0  3.97824  0
C  C96  1  0.30374011  0.45529981  0.40127115  1  0.042517  0  -0.002903  0.144937  0  3.968907  0
C  C97  1  0.44615711  0.29596959  0.34887304  1  0.03472  0  -0.088968  -0.133488  0  3.969616  0
C  C98  1  0.25912728  0.41434012  0.41368466  1  -0.15083  0  -0.02914  -0.195773  0  3.93738  0
C  C99  1  0.49075308  0.33619858  0.33642879  1  -0.171965  0  -0.025677  -0.119643  0  3.987686  0
C  C100  1  0.37801041  0.33867469  0.37250159  1  -0.137091  0  -0.02409  -0.004878  0  4.100733  0
C  C101  1  0.37166292  0.41096590  0.37768359  1  -0.145265  0  -0.022947  -0.07983  0  4.046234  0
C  C102  1  0.72717620  0.57535917  0.62973608  1  0.048665  0  -0.004381  0.142726  0  3.974033  0
C  C103  1  0.52410921  0.67364438  0.62112915  1  -0.000823  0  -0.08826  -0.132902  0  3.966041  0
C  C104  1  0.74170438  0.58592226  0.58701381  1  -0.144675  0  -0.028551  -0.193556  0  3.936244  0
C  C105  1  0.50920041  0.66349169  0.66350617  1  -0.088547  0  -0.025672  -0.118548  0  3.985617  0
C  C106  1  0.60320381  0.64178558  0.60849779  1  -0.155382  0  -0.023299  -0.004772  0  4.097347  0
C  C107  1  0.64748456  0.60779467  0.64150460  1  -0.176805  0  -0.023731  -0.079565  0  4.046666  0
C  C108  1  0.07542403  0.22716002  0.62960670  1  0.056091  0  -0.004472  0.142651  0  3.97214  0
C  C109  1  0.17391317  0.02398550  0.62091111  1  -0.005335  0  -0.089  -0.133653  0  3.968696  0
C  C110  1  0.08585879  0.24163972  0.58686442  1  -0.147881  0  -0.028565  -0.194175  0  3.936981  0
C  C111  1  0.16369789  0.00915171  0.66328799  1  -0.088635  0  -0.025208  -0.119164  0  3.986933  0
C  C112  1  0.14198721  0.10309988  0.60831114  1  -0.169486  0  -0.023763  -0.004834  0  4.100123  0
C  C113  1  0.10796521  0.14742285  0.64135083  1  -0.181914  0  -0.023336  -0.080599  0  4.046397  0
C  C114  1  0.84328407  0.80005295  0.39741269  1  0.046958  0  -0.002499  0.145842  0  3.971459  0
C  C115  1  0.90524199  0.94982817  0.35252333  1  0.089821  0  -0.08948  -0.134133  0  3.96992  0
C  C116  1  0.91267370  0.75903317  0.41349750  1  -0.092402  0  -0.02873  -0.195761  0  3.938945  0
C  C117  1  0.83655569  0.99090182  0.33643178  1  -0.201797  0  -0.026432  -0.119883  0  3.987664  0
C  C118  1  0.90839505  0.88027002  0.37471361  1  -0.197317  0  -0.023355  -0.003976  0  4.098979  0
C  C119  1  0.84189916  0.86938080  0.37524167  1  -0.168504  0  -0.023346  -0.080497  0  4.044677  0
C  C120  1  0.65306907  0.15320802  0.15134676  1  -0.0121  0  -0.019673  -0.144929  0  3.943521  0
C  C121  1  0.59819931  0.09820108  0.09790855  1  0.017653  0  -0.007325  0.002111  0  3.975916  0
C  C122  1  0.66718427  0.16743169  0.10839173  1  0.444852  0  0.111572  0.287577  0  4.027558  0
C  C123  1  0.58305932  0.08302341  0.14059963  1  -0.012682  0  -0.085438  -0.111617  0  3.978114  0
C  C124  1  0.64054591  0.14064001  0.08183523  1  0.01842  0  -0.089824  -0.223923  0  3.962637  0
C  C125  1  0.61029738  0.11028792  0.16659951  1  -0.047114  0  -0.075768  -0.066272  0  3.975505  0
C  C126  1  0.67445866  0.52299352  0.12045372  1  -0.004604  0  -0.002828  0.145187  0  3.970006  0
C  C127  1  0.57607135  0.72635807  0.12882988  1  -0.04464  0  -0.088463  -0.132543  0  3.966209  0
C  C128  1  0.66391046  0.50878622  0.16321601  1  -0.0806  0  -0.028066  -0.194082  0  3.934444  0
C  C129  1  0.58629398  0.74101710  0.08643272  1  -0.0852  0  -0.026479  -0.121145  0  3.986886  0
C  C130  1  0.60787930  0.64729537  0.14156256  1  -0.116002  0  -0.023282  -0.003925  0  4.098397  0
C  C131  1  0.64193439  0.60272823  0.10862893  1  -0.179009  0  -0.023297  -0.080429  0  4.044757  0
C  C132  1  0.08104769  0.12409670  0.17842412  1  0.023318  0  -0.002978  0.144278  0  3.971975  0
C  C133  1  0.16974215  0.12514918  0.07259725  1  0.062494  0  -0.088771  -0.133459  0  3.967835  0
C  C134  1  0.00968527  0.16331751  0.16433597  1  -0.115804  0  -0.029053  -0.194636  0  3.935003  0
C  C135  1  0.24075190  0.08647126  0.08637765  1  -0.162367  0  -0.025199  -0.119212  0  3.986179  0
C  C136  1  0.11118155  0.13914227  0.10579831  1  -0.213753  0  -0.023414  -0.004565  0  4.098314  0
C  C137  1  0.13852163  0.11080628  0.14444963  1  -0.18708  0  -0.022564  -0.07871  0  4.045445  0
C  C138  1  0.34613864  0.84941071  0.84775869  1  0.056322  0  -0.01968  -0.145922  0  3.942254  0
C  C139  1  0.40171522  0.90219666  0.90196174  1  -0.018137  0  -0.00749  0.002312  0  3.975215  0
C  C140  1  0.30335493  0.92101754  0.86217914  1  0.459021  0  0.112924  0.289598  0  4.026459  0
C  C141  1  0.44581235  0.83049996  0.88819167  1  -0.010926  0  -0.086187  -0.113309  0  3.976673  0
C  C142  1  0.33010623  0.94753853  0.88881855  1  0.06312  0  -0.090149  -0.223904  0  3.960654  0
C  C143  1  0.41802840  0.80506414  0.86153457  1  -0.032844  0  -0.07625  -0.066755  0  3.973003  0
C  C144  1  0.40656146  0.45014490  0.85250818  1  0.048287  0  -0.002715  0.146344  0  3.971515  0
C  C145  1  0.34467495  0.30032955  0.89748013  1  0.091455  0  -0.088599  -0.133631  0  3.967424  0
C  C146  1  0.33721414  0.49118401  0.83637507  1  -0.090421  0  -0.028885  -0.196644  0  3.937216  0
C  C147  1  0.41335710  0.25929636  0.91358453  1  -0.200481  0  -0.025377  -0.118247  0  3.984281  0
C  C148  1  0.34159025  0.36981619  0.87519430  1  -0.197064  0  -0.022872  -0.00245  0  4.097194  0
C  C149  1  0.40804221  0.38076313  0.87466117  1  -0.169059  0  -0.023299  -0.080415  0  4.044165  0
C  C150  1  0.94603898  0.79435278  0.84877569  1  0.080585  0  -0.003725  0.144351  0  3.972393  0
C  C151  1  0.80379600  0.95381438  0.90113540  1  0.038628  0  -0.087839  -0.131837  0  3.965031  0
C  C152  1  0.99075052  0.83515944  0.83626945  1  -0.210697  0  -0.027956  -0.194738  0  3.93482  0
C  C153  1  0.75905213  0.91372255  0.91361320  1  -0.181293  0  -0.026054  -0.119855  0  3.984841  0
C  C154  1  0.87194691  0.91096973  0.87753133  1  -0.135349  0  -0.023289  -0.004748  0  4.09723  0
C  C155  1  0.87817406  0.83869286  0.87239197  1  -0.155604  0  -0.023486  -0.080387  0  4.046223  0
C  C156  1  0.28474100  0.53355130  0.41074495  1  -0.085925  0  -0.230932  -0.395737  0  3.961273  0
C  C157  1  0.78522809  0.53625909  0.65930095  1  -0.033915  0  -0.231658  -0.39407  0  3.966949  0
C  C158  1  0.03631264  0.28519926  0.65925560  1  -0.033901  0  -0.232278  -0.394014  0  3.966931  0
C  C159  1  0.77938767  0.77626307  0.40221094  1  -0.069186  0  -0.231355  -0.395932  0  3.960834  0
C  C160  1  0.71364173  0.46479240  0.09089212  1  -0.037196  0  -0.23159  -0.396968  0  3.960637  0
C  C161  1  0.09637544  0.09922757  0.22222513  1  -0.016146  0  -0.231951  -0.394095  0  3.964892  0
C  C162  1  0.47048808  0.47386768  0.84773308  1  -0.065045  0  -0.232555  -0.397254  0  3.964716  0
C  C163  1  0.96513497  0.71612674  0.83926379  1  -0.07915  0  -0.232291  -0.395857  0  3.965031  0
S  S164  1  0.29945887  0.32432337  0.39695837  1  0.249309  0  0.071804  0.111705  0  2.758321  0
S  S165  1  0.45016662  0.42589932  0.35329317  1  0.249235  0  0.078794  0.118863  0  2.764116  0
S  S166  1  0.65998821  0.63407661  0.56210744  1  0.248852  0  0.076565  0.117125  0  2.75454  0
S  S167  1  0.59102772  0.61532548  0.68815225  1  0.246295  0  0.074871  0.112824  0  2.764952  0
S  S168  1  0.13416601  0.15985645  0.56193953  1  0.262624  0  0.073992  0.114665  0  2.757419  0
S  S169  1  0.11547017  0.09099981  0.68798278  1  0.252892  0  0.080432  0.121385  0  2.760118  0
S  S170  1  0.97417576  0.80422681  0.40176628  1  0.263657  0  0.072838  0.112752  0  2.757084  0
S  S171  1  0.77560471  0.94533955  0.34819649  1  0.253552  0  0.078287  0.118297  0  2.762843  0
S  S172  1  0.61553912  0.59075328  0.18800996  1  0.258694  0  0.073461  0.113613  0  2.754537  0
S  S173  1  0.63453736  0.65892238  0.06191834  1  0.249472  0  0.077921  0.117798  0  2.762028  0
S  S174  1  0.01317346  0.18303917  0.11100782  1  0.300439  0  0.074882  0.11485  0  2.7529  0
S  S175  1  0.23670731  0.06686260  0.13960672  1  0.248896  0  0.077407  0.117096  0  2.762889  0
S  S176  1  0.27583778  0.44582462  0.84808720  1  0.259325  0  0.070751  0.109879  0  2.75733  0
S  S177  1  0.47433811  0.30483980  0.90174132  1  0.258166  0  0.07851  0.118147  0  2.761666  0
S  S178  1  0.95061911  0.92514091  0.85304410  1  0.25775  0  0.076343  0.117449  0  2.75169  0
S  S179  1  0.79958381  0.82393771  0.89681924  1  0.254741  0  0.077462  0.117068  0  2.763509  0
O  O180  1  0.00077167  0.49863528  0.49966631  1  -1.242092  0  -0.571796  -1.027181  0  2.537278  0
O  O181  1  0.07815167  0.31460862  0.52253256  1  -1.182691  0  -0.32161  -0.549953  0  2.331547  0
O  O182  1  0.03049082  0.53121477  0.58663855  1  -1.159293  0  -0.31617  -0.547715  0  2.325504  0
O  O183  1  0.15556566  0.50477068  0.44978229  1  -1.173503  0  -0.310684  -0.533959  0  2.347938  0
O  O184  1  0.02559984  0.37492753  0.58039809  1  -1.177834  0  -0.312829  -0.536771  0  2.348967  0
O  O185  1  0.15432045  0.39023708  0.44618817  1  -1.159316  0  -0.3235  -0.553099  0  2.331798  0
O  O186  1  0.08407421  0.58395446  0.53069660  1  -1.162234  0  -0.31181  -0.54191  0  2.375637  0
O  O187  1  0.00578440  0.65754035  0.44910369  1  -1.166664  0  -0.322471  -0.548748  0  2.33619  0
O  O188  1  0.88870036  0.49637423  0.44243625  1  -1.167214  0  -0.313568  -0.541593  0  2.377744  0
O  O189  1  0.89210613  0.65308835  0.44760501  1  -1.188037  0  -0.310192  -0.534273  0  2.348717  0
O  O190  1  0.99654969  0.38575327  0.44131367  1  -1.167985  0  -0.314504  -0.546429  0  2.32139  0
O  O191  1  0.87511628  0.52550993  0.58033968  1  -1.179591  0  -0.312257  -0.538204  0  2.346151  0
O  O192  1  0.81455039  0.57942009  0.52274077  1  -1.175466  0  -0.321242  -0.545895  0  2.336502  0
O  O193  1  0.74913379  0.25041682  0.25059263  1  -1.226576  0  -0.570839  -1.028193  0  2.532131  0
O  O194  1  0.59616012  0.35831950  0.30343831  1  -1.182531  0  -0.321032  -0.549508  0  2.336724  0
O  O195  1  0.66392262  0.16316408  0.21908518  1  -1.168509  0  -0.31466  -0.546948  0  2.321806  0
O  O196  1  0.72498340  0.37550267  0.16999943  1  -1.167605  0  -0.309621  -0.532893  0  2.34713  0
O  O197  1  0.59290887  0.24452060  0.30004097  1  -1.172528  0  -0.318118  -0.541619  0  2.312621  0
O  O198  1  0.67160716  0.43608689  0.22768256  1  -1.149316  0  -0.322992  -0.551383  0  2.332527  0
O  O199  1  0.71934720  0.21956064  0.16585686  1  -1.147702  0  -0.312849  -0.541615  0  2.374651  0
O  O200  1  0.87675911  0.22516754  0.16870956  1  -1.171246  0  -0.321573  -0.547127  0  2.335561  0
O  O201  1  0.86334159  0.25370553  0.30823888  1  -1.167794  0  -0.31372  -0.544084  0  2.33778  0
O  O202  1  0.93304531  0.17282667  0.22772799  1  -1.148811  0  -0.311509  -0.537245  0  2.346469  0
O  O203  1  0.75355892  0.36278549  0.30826850  1  -1.171608  0  -0.311519  -0.541207  0  2.33313  0
O  O204  1  0.74562675  0.09323790  0.29998541  1  -1.174424  0  -0.321319  -0.550651  0  2.335062  0
O  O205  1  0.85940429  0.09620697  0.30345319  1  -1.158709  0  -0.318767  -0.540143  0  2.31445  0
O  O206  1  0.24992686  0.75003815  0.74964040  1  -1.226958  0  -0.570537  -1.027898  0  2.530763  0
O  O207  1  0.37600357  0.72450912  0.66860549  1  -1.167511  0  -0.317652  -0.53948  0  2.314252  0
O  O208  1  0.36440716  0.75284691  0.80871610  1  -1.169054  0  -0.316033  -0.547434  0  2.323432  0
O  O209  1  0.17194312  0.93405832  0.72687464  1  -1.165739  0  -0.319435  -0.546017  0  2.336859  0
O  O210  1  0.43410532  0.67254164  0.72719122  1  -1.176125  0  -0.32194  -0.55055  0  2.337841  0
O  O211  1  0.22462187  0.87585697  0.66830122  1  -1.162883  0  -0.318426  -0.54108  0  2.316283  0
O  O212  1  0.25405002  0.86080659  0.80724998  1  -1.167668  0  -0.311351  -0.540898  0  2.371521  0
O  O213  1  0.09507364  0.85946731  0.80331017  1  -1.177121  0  -0.321213  -0.547827  0  2.333005  0
O  O214  1  0.16420461  0.66458191  0.71887358  1  -1.172048  0  -0.312175  -0.542653  0  2.335374  0
O  O215  1  0.09415402  0.74491164  0.79959722  1  -1.177478  0  -0.312006  -0.538821  0  2.346076  0
O  O216  1  0.21935899  0.71887945  0.66421297  1  -1.161145  0  -0.312719  -0.541327  0  2.334136  0
O  O217  1  0.35727212  0.59779625  0.80279798  1  -1.161757  0  -0.310883  -0.537028  0  2.34326  0
O  O218  1  0.24446554  0.59223249  0.80026559  1  -1.169766  0  -0.324147  -0.552172  0  2.334302  0
O  O219  1  0.50000763  0.00000758  0.00000544  1  -1.229085  0  -0.570347  -1.028668  0  2.524021  0
O  O220  1  0.50452349  0.15697841  0.94987196  1  -1.173544  0  -0.321056  -0.549304  0  2.335665  0
O  O221  1  0.38692289  0.99659277  0.94173366  1  -1.17199  0  -0.313025  -0.541626  0  2.334776  0
O  O222  1  0.65330746  0.89197997  0.94655922  1  -1.184088  0  -0.321095  -0.549636  0  2.335173  0
O  O223  1  0.39081462  0.15374890  0.94657436  1  -1.158145  0  -0.317384  -0.53885  0  2.313167  0
O  O224  1  0.65681567  0.00565563  0.94983623  1  -1.171487  0  -0.317609  -0.540498  0  2.313563  0
O  O225  1  0.49624747  0.88711509  0.94165724  1  -1.168879  0  -0.311616  -0.542021  0  2.331885  0
O  O226  1  0.57731650  0.81585579  0.02270363  1  -1.179143  0  -0.321572  -0.54992  0  2.336932  0
O  O227  1  0.53090956  0.03119932  0.08565229  1  -1.157958  0  -0.311795  -0.5424  0  2.332957  0
O  O228  1  0.52568841  0.87436249  0.08122895  1  -1.168852  0  -0.317353  -0.539561  0  2.313964  0
O  O229  1  0.58548948  0.08579390  0.03088786  1  -1.17534  0  -0.312835  -0.541904  0  2.332691  0
O  O230  1  0.31512932  0.07810967  0.02235113  1  -1.143863  0  -0.317529  -0.539771  0  2.314002  0
O  O231  1  0.37382636  0.02629087  0.08074674  1  -1.169764  0  -0.321173  -0.549318  0  2.336361  0
F  F232  1  0.78218350  0.51683481  0.39913940  1  -0.62375  0  -0.101118  -0.139048  0  1.346287  0
F  F233  1  0.15943730  0.65890877  0.54205919  1  -0.629442  0  -0.099501  -0.136714  0  1.347421  0
F  F234  1  0.70773239  0.20830581  0.09077545  1  -0.630346  0  -0.100603  -0.138285  0  1.34537  0
F  F235  1  0.23352787  0.96775416  0.85067455  1  -0.622527  0  -0.099593  -0.136396  0  1.346948  0
