# generated using pymatgen
data_CoH16C15(NO2)3
_symmetry_space_group_name_H-M   'P 1'
_cell_length_a   7.96602160
_cell_length_b   9.64940959
_cell_length_c   11.86820440
_cell_angle_alpha   91.24642974
_cell_angle_beta   102.12107733
_cell_angle_gamma   113.25810718
_symmetry_Int_Tables_number   1
_chemical_formula_structural   CoH16C15(NO2)3
_chemical_formula_sum   'Co2 H32 C30 N6 O12'
_cell_volume   813.87444120
_cell_formula_units_Z   2
loop_
 _symmetry_equiv_pos_site_id
 _symmetry_equiv_pos_as_xyz
  1  'x, y, z'
loop_
 _atom_site_type_symbol
 _atom_site_label
 _atom_site_symmetry_multiplicity
 _atom_site_fract_x
 _atom_site_fract_y
 _atom_site_fract_z
 _atom_site_occupancy
 _atom_site_hle17_ddec_charge
 _atom_site_hle17_ddec_spin_density
 _atom_site_hle17_ddec_sum_bond_order
 _atom_site_hle17_magmom
 _atom_site_hse06_10hf_ddec_charge
 _atom_site_hse06_10hf_ddec_spin_density
 _atom_site_hse06_10hf_ddec_sum_bond_order
 _atom_site_hse06_10hf_magmom
 _atom_site_hse06_ddec_charge
 _atom_site_hse06_ddec_spin_density
 _atom_site_hse06_ddec_sum_bond_order
 _atom_site_hse06_magmom
 _atom_site_pbe_cm5_charge
 _atom_site_pbe_ddec_charge
 _atom_site_pbe_ddec_spin_density
 _atom_site_pbe_ddec_sum_bond_order
 _atom_site_pbe_magmom
Co  Co0  1  0.49999650  0.99999875  0.99999987  1  1.034137  2.833423  1.982442  2.601  0.993612  2.846121  2.381007  2.668  1.067085  2.884485  2.31471  2.738  0.662598  0.925599  2.799671  2.440389  2.591
Co  Co1  1  0.99999581  0.49999805  0.00000168  1  1.136211  2.849048  1.798066  2.617  1.119332  2.849639  2.179704  2.676  1.189303  2.884583  2.111436  2.741  0.625711  1.065661  2.823347  2.229988  2.618
H  H2  1  0.02174479  0.81035620  0.28948154  1  0.096493  5.8e-05  0.968015  0.0  0.107932  4.4e-05  1.030046  0.0  0.110509  2.3e-05  1.029479  0.0  0.099377  0.105855  9.1e-05  1.030991  0.0
H  H3  1  0.97824986  0.18964025  0.71051849  1  0.096558  5.8e-05  0.968001  0.0  0.107983  4.4e-05  1.030042  0.0  0.110575  2.3e-05  1.029459  0.0  0.099425  0.105904  9.1e-05  1.030986  0.0
H  H4  1  0.17871231  0.97444156  0.47695039  1  0.089137  -2.7e-05  0.986823  0.0  0.092  1.7e-05  1.061933  0.0  0.095586  5e-06  1.059605  0.0  0.094906  0.089405  2.8e-05  1.06384  0.0
H  H5  1  0.82128969  0.02554915  0.52304984  1  0.089168  -2.8e-05  0.986836  0.0  0.091997  1.7e-05  1.06194  0.0  0.095581  6e-06  1.059641  0.0  0.09491  0.089402  2.8e-05  1.063846  0.0
H  H6  1  0.19924757  0.24092553  0.49229352  1  0.081627  8e-06  0.952496  0.0  0.094187  -3e-06  1.009454  0.0  0.096761  -8e-06  1.009392  0.0  0.09576  0.092356  1.5e-05  1.00958  0.0
H  H7  1  0.80075915  0.75906732  0.50771339  1  0.081575  8e-06  0.952467  0.0  0.094098  -3e-06  1.009478  0.0  0.09667  -8e-06  1.009419  0.0  0.095742  0.092271  1.5e-05  1.009607  0.0
H  H8  1  0.09344350  0.34418909  0.31370924  1  0.095115  -5.4e-05  0.966496  0.0  0.104446  -2.3e-05  1.029648  0.0  0.107093  -3.9e-05  1.028915  0.0  0.097942  0.102249  -2e-06  1.030683  0.0
H  H9  1  0.90655620  0.65580822  0.68630508  1  0.095058  -5.4e-05  0.966591  0.0  0.104401  -2.3e-05  1.029723  0.0  0.107045  -3.9e-05  1.028987  0.0  0.09795  0.102203  -2e-06  1.030759  0.0
H  H10  1  0.94016726  0.79753028  0.08304908  1  0.12433  -0.000444  0.951423  0.0  0.139635  -0.000393  1.008173  0.0  0.141641  -0.000373  1.007713  0.0  0.107589  0.137798  -0.000362  1.009054  0.0
H  H11  1  0.05982193  0.20247072  0.91695270  1  0.124284  -0.000443  0.951393  0.0  0.139593  -0.000393  1.008154  0.0  0.141598  -0.000374  1.007697  0.0  0.107565  0.137758  -0.000362  1.009034  0.0
H  H12  1  0.85956811  0.92801297  0.01033821  1  0.120278  -0.000347  0.958531  0.0  0.13108  -0.000277  1.022779  0.0  0.133594  -0.000271  1.021679  0.0  0.102308  0.129324  -0.000269  1.02345  0.0
H  H13  1  0.14042596  0.07199023  0.98966691  1  0.120201  -0.000346  0.958601  0.0  0.130994  -0.000277  1.022861  0.0  0.133507  -0.000271  1.021754  0.0  0.102281  0.129242  -0.000269  1.023535  0.0
H  H14  1  0.82659237  0.52886423  0.30771236  1  0.104329  5.8e-05  0.955414  0.0  0.114429  7.6e-05  1.018906  0.0  0.117743  3.8e-05  1.016997  0.0  0.103857  0.111881  0.000129  1.020481  0.0
H  H15  1  0.17342614  0.47114722  0.69227233  1  0.104355  6e-05  0.955578  0.0  0.114477  7.6e-05  1.019037  0.0  0.117794  3.8e-05  1.017127  0.0  0.103877  0.111929  0.000129  1.020607  0.0
H  H16  1  0.82885657  0.32384989  0.62731919  1  0.10017  5.7e-05  0.954287  0.0  0.111874  8.9e-05  1.013327  0.0  0.115068  5.4e-05  1.011477  0.0  0.10398  0.109482  0.000145  1.015006  0.0
H  H17  1  0.17116212  0.67615699  0.37266628  1  0.10016  6e-05  0.954258  0.0  0.111826  8.9e-05  1.013377  0.0  0.114999  5.4e-05  1.011549  0.0  0.103934  0.109438  0.000145  1.015051  0.0
H  H18  1  0.53543050  0.27146605  0.49420874  1  0.095644  1.4e-05  0.913097  0.0  0.112039  2.6e-05  0.97319  0.0  0.113676  1.6e-05  0.970683  0.0  0.12168  0.111035  3.1e-05  0.974265  0.0
H  H19  1  0.46459228  0.72855200  0.50578770  1  0.095816  1.4e-05  0.913097  0.0  0.112169  2.6e-05  0.973266  0.0  0.113811  1.6e-05  0.970762  0.0  0.12177  0.111166  3.1e-05  0.974343  0.0
H  H20  1  0.52042553  0.38467612  0.37895102  1  0.093545  -2.8e-05  0.90585  0.0  0.113012  1.2e-05  0.960851  0.0  0.114085  9e-06  0.959401  0.0  0.122452  0.112284  3.2e-05  0.961272  0.0
H  H21  1  0.47958279  0.61532613  0.62104031  1  0.093537  -2.6e-05  0.905841  0.0  0.113037  1.3e-05  0.960812  0.0  0.114114  8e-06  0.959366  0.0  0.122485  0.112314  3.2e-05  0.961231  0.0
H  H22  1  0.59910299  0.89294541  0.26642924  1  0.08931  -4.7e-05  0.937666  0.0  0.100943  5.9e-05  0.994581  0.0  0.10253  2e-05  0.993204  0.0  0.135019  0.099354  0.0001  0.996036  0.0
H  H23  1  0.40089231  0.10704987  0.73357171  1  0.089347  -4.6e-05  0.937693  0.0  0.100951  5.9e-05  0.99463  0.0  0.102563  2e-05  0.993225  0.0  0.135039  0.099362  0.0001  0.996085  0.0
H  H24  1  0.46700327  0.26243391  0.17366283  1  0.118644  2.9e-05  0.911086  0.0  0.131317  8.2e-05  0.966315  0.0  0.134419  3.3e-05  0.962133  0.0  0.150114  0.128556  0.000121  0.969654  0.0
H  H25  1  0.53298900  0.73756030  0.82633509  1  0.118667  2.9e-05  0.911118  0.0  0.131337  8.2e-05  0.966347  0.0  0.134422  3.3e-05  0.962188  0.0  0.150105  0.128578  0.000121  0.969683  0.0
H  H26  1  0.21942656  0.75848249  0.09485998  1  0.413542  -0.001272  0.892061  -0.001  0.378825  -0.000437  0.971366  0.0  0.390546  -0.00057  0.954372  0.0  0.290363  0.370646  -0.000316  0.98321  0.0
H  H27  1  0.78056914  0.24151618  0.90514278  1  0.413717  -0.001272  0.891822  -0.001  0.378949  -0.000437  0.971219  0.0  0.390669  -0.00057  0.954222  0.0  0.290409  0.37077  -0.000317  0.983062  0.0
H  H28  1  0.72913811  0.53314770  0.09710028  1  0.426797  8.8e-05  0.876223  0.0  0.399848  0.000384  0.934377  0.001  0.410703  0.000211  0.918856  0.001  0.289688  0.391918  0.000511  0.945667  0.001
H  H29  1  0.27084959  0.46684767  0.90289779  1  0.42675  8.8e-05  0.876293  0.0  0.399841  0.000384  0.934392  0.001  0.410683  0.000211  0.918881  0.001  0.289667  0.391929  0.000511  0.945671  0.001
H  H30  1  0.30368606  0.65052976  0.15744103  1  0.422934  -0.00117  0.825284  -0.001  0.400001  -0.000426  0.89364  0.0  0.410292  -0.000548  0.881245  0.0  0.313347  0.392609  -0.000288  0.902339  0.0
H  H31  1  0.69630365  0.34946214  0.84255898  1  0.422953  -0.00117  0.825201  -0.001  0.40002  -0.000426  0.893556  0.0  0.41031  -0.000548  0.881161  0.0  0.313354  0.392625  -0.000288  0.902263  0.0
H  H32  1  0.66020440  0.36539634  0.03152363  1  0.411775  -0.000587  0.900662  0.0  0.381214  -8.8e-05  0.966816  0.0  0.392523  -0.00031  0.950479  0.0  0.290086  0.372873  6.1e-05  0.978827  0.001
H  H33  1  0.33978450  0.63459899  0.96847631  1  0.411832  -0.000587  0.900693  0.0  0.381277  -8.8e-05  0.966755  0.0  0.392585  -0.00031  0.950419  0.0  0.290119  0.37294  6.1e-05  0.978758  0.001
C  C34  1  0.98754108  0.13336844  0.20374585  1  -0.131886  0.002424  3.735135  0.004  -0.115909  0.000959  3.972513  0.002  -0.125376  0.000279  3.994891  0.001  -0.023808  -0.109285  0.001708  3.957469  0.003
C  C35  1  0.01244616  0.86662907  0.79625977  1  -0.131739  0.002416  3.734907  0.004  -0.115784  0.00096  3.972412  0.002  -0.125247  0.000278  3.994786  0.001  -0.023771  -0.109166  0.001708  3.957358  0.003
C  C36  1  0.96081636  0.97974604  0.19693498  1  0.115297  0.000263  3.710571  0.001  0.125739  0.000728  3.951826  0.001  0.128023  0.000587  3.975858  0.001  -0.0045  0.123888  0.00126  3.935765  0.002
C  C37  1  0.03917921  0.02025258  0.80307030  1  0.115307  0.00028  3.710658  0.001  0.125723  0.000728  3.951973  0.001  0.127998  0.000587  3.976018  0.001  -0.004484  0.12387  0.001259  3.935911  0.002
C  C38  1  0.03390758  0.92681768  0.29648576  1  -0.128309  -0.000201  3.722745  0.0  -0.148866  -0.000445  3.972258  0.0  -0.153276  -0.000594  3.994329  0.0  -0.096994  -0.145925  -7.3e-05  3.95771  0.0
C  C39  1  0.96609267  0.07317751  0.70351934  1  -0.128472  -0.000227  3.722761  0.0  -0.149031  -0.000445  3.972321  0.0  -0.153452  -0.000593  3.994391  0.0  -0.097064  -0.146086  -7.2e-05  3.957764  0.0
C  C40  1  0.12174640  0.01907050  0.40175179  1  -0.049037  0.000784  3.766239  0.001  -0.066276  0.00094  4.021342  0.001  -0.065628  0.000734  4.040762  0.001  -0.090223  -0.066162  0.001038  4.007561  0.001
C  C41  1  0.87825726  0.98092127  0.59825294  1  -0.049095  0.000795  3.766279  0.001  -0.066258  0.00094  4.02134  0.001  -0.065624  0.000733  4.040769  0.001  -0.090255  -0.066142  0.001037  4.007558  0.001
C  C42  1  0.13765685  0.16885262  0.40940212  1  -0.086209  -0.000412  3.796526  0.0  -0.101028  -0.000405  4.054728  0.0  -0.104705  -0.000624  4.076388  0.0  -0.097544  -0.098332  -2.2e-05  4.039495  0.0
C  C43  1  0.86234468  0.83114024  0.59060566  1  -0.086271  -0.000432  3.796774  0.0  -0.101069  -0.000405  4.054939  0.0  -0.104745  -0.000622  4.076601  0.0  -0.097571  -0.098382  -2.3e-05  4.039711  0.0
C  C44  1  0.07608187  0.22631902  0.31034631  1  -0.072684  0.000796  3.756283  0.001  -0.099858  0.00102  4.011203  0.001  -0.098412  0.000805  4.030914  0.001  -0.091974  -0.100603  0.000837  3.997945  0.001
C  C45  1  0.92391633  0.77367496  0.68966266  1  -0.072613  0.000806  3.756595  0.001  -0.099764  0.00102  4.011497  0.001  -0.098312  0.000805  4.031202  0.001  -0.091992  -0.100504  0.000837  3.998233  0.001
C  C46  1  0.93848476  0.20790908  0.10051488  1  0.679489  -0.007924  3.830767  -0.005  0.633357  0.001496  4.126737  0.003  0.671767  0.001236  4.117549  0.003  0.221325  0.605308  0.001014  4.13249  0.002
C  C47  1  0.06150623  0.79208605  0.89949551  1  0.679522  -0.007924  3.83062  -0.005  0.633294  0.001497  4.126806  0.003  0.671717  0.001238  4.117617  0.003  0.221403  0.605247  0.001016  4.132549  0.002
C  C48  1  0.86383276  0.86915670  0.08783326  1  -0.330387  -6.3e-05  3.69024  0.001  -0.374866  -0.000261  3.930205  0.0  -0.380598  -0.000454  3.936399  0.0  -0.171114  -0.370315  0.000117  3.92605  0.001
C  C49  1  0.13615336  0.13084088  0.91216881  1  -0.330215  -6.7e-05  3.690212  0.001  -0.374697  -0.00026  3.930079  0.0  -0.380422  -0.000452  3.936264  0.0  -0.171067  -0.370167  0.000117  3.925945  0.001
C  C50  1  0.66308779  0.76354228  0.08978968  1  0.715257  -0.004493  3.810541  -0.002  0.672571  -0.000119  4.11275  0.001  0.706946  -1.2e-05  4.104294  0.001  0.216869  0.647646  -0.000459  4.118107  0.001
C  C51  1  0.33690288  0.23645878  0.91020812  1  0.715069  -0.004488  3.810632  -0.002  0.672541  -0.000119  4.112593  0.001  0.706912  -1.3e-05  4.104144  0.001  0.216838  0.647641  -0.000459  4.117925  0.001
C  C52  1  0.80503159  0.41646190  0.46349638  1  0.060704  2.7e-05  3.762548  0.0  0.078958  7.7e-05  4.007845  0.0  0.078188  4.9e-05  4.031475  0.0  -0.012397  0.080398  0.000106  3.990023  0.0
C  C53  1  0.19499016  0.58355162  0.53649897  1  0.060605  5.7e-05  3.762535  0.0  0.07911  7.7e-05  4.007515  0.0  0.078348  4.9e-05  4.031137  0.0  -0.012378  0.080553  0.000106  3.989693  0.0
C  C54  1  0.90191866  0.51639417  0.39231035  1  -0.107324  7.9e-05  3.729159  0.0  -0.127758  0.000104  3.977024  0.0  -0.130275  5.2e-05  3.998318  0.0  -0.087467  -0.126046  0.00019  3.963018  0.0
C  C55  1  0.09810505  0.48362283  0.60768116  1  -0.107348  5.3e-05  3.729207  0.0  -0.127893  0.000103  3.977043  0.0  -0.130414  5.2e-05  3.99834  0.0  -0.0875  -0.126179  0.00019  3.963028  0.0
C  C56  1  0.90406832  0.40082277  0.57123260  1  -0.102182  9e-05  3.735307  0.0  -0.12013  9.7e-05  3.9792  0.0  -0.122869  5.8e-05  4.000837  0.0  -0.084407  -0.118513  0.000145  3.965356  0.0
C  C57  1  0.09596545  0.59918622  0.42875866  1  -0.102319  6.4e-05  3.735384  0.0  -0.120338  9.6e-05  3.979235  0.0  -0.123063  5.8e-05  4.000877  0.0  -0.084493  -0.118721  0.000145  3.965391  0.0
C  C58  1  0.59673738  0.31999699  0.42212631  1  -0.051377  0.000392  3.661689  0.001  -0.1368  0.000349  3.919403  0.0  -0.124722  0.00026  3.931771  0.0  -0.037017  -0.139825  0.000451  3.913163  0.001
C  C59  1  0.40327748  0.68001547  0.57786625  1  -0.051467  0.00039  3.661943  0.001  -0.136973  0.000349  3.91967  0.0  -0.124935  0.000261  3.932057  0.0  -0.037117  -0.140002  0.000451  3.913439  0.001
C  C60  1  0.57606800  0.99613595  0.27109045  1  0.198391  -0.006493  3.717713  -0.004  0.150748  -0.001355  4.009028  0.0  0.163232  -0.001186  4.019212  0.0  0.145286  0.142723  -0.001964  4.000795  -0.001
C  C61  1  0.42392836  0.00385832  0.72890306  1  0.198294  -0.006496  3.717971  -0.004  0.150664  -0.001354  4.00932  0.0  0.163125  -0.001187  4.019503  0.0  0.145242  0.142638  -0.001964  4.001079  -0.001
C  C62  1  0.50915158  0.18219448  0.22101375  1  0.188226  -0.010919  3.602235  -0.006  0.114742  -0.002836  3.871031  -0.001  0.138035  -0.002395  3.885266  -0.001  0.169083  0.103468  -0.003958  3.865878  -0.002
C  C63  1  0.49084792  0.81780647  0.77898797  1  0.188163  -0.010915  3.602295  -0.006  0.114705  -0.002838  3.871085  -0.001  0.137992  -0.002397  3.885312  -0.001  0.169074  0.103436  -0.00396  3.865928  -0.002
N  N64  1  0.56071052  0.19335688  0.33735258  1  0.043655  0.000675  3.566451  0.002  0.165003  0.000719  3.753776  0.001  0.12852  0.000604  3.814217  0.001  -0.129123  0.170946  0.000591  3.739926  0.001
N  N65  1  0.43930113  0.80664747  0.66264774  1  0.043676  0.000673  3.566223  0.002  0.164995  0.00072  3.753575  0.001  0.128571  0.000604  3.813975  0.001  -0.129119  0.170924  0.00059  3.739756  0.001
N  N66  1  0.60454635  0.07553323  0.37108453  1  -0.262068  0.003107  2.857574  0.005  -0.259877  0.001482  3.121961  0.002  -0.260573  0.001091  3.141896  0.002  -0.215018  -0.254723  0.00192  3.113593  0.003
N  N67  1  0.39546359  0.92447005  0.62891213  1  -0.261992  0.003108  2.857616  0.005  -0.259787  0.001482  3.122014  0.002  -0.260495  0.001091  3.141931  0.002  -0.215039  -0.254643  0.00192  3.113669  0.003
N  N68  1  0.51821159  0.05789169  0.17572807  1  -0.400513  0.026621  3.248121  0.052  -0.362599  0.020848  3.56154  0.035  -0.386078  0.017375  3.568026  0.029  -0.345887  -0.344741  0.023256  3.556704  0.039
N  N69  1  0.48177542  0.94210482  0.82426991  1  -0.400464  0.026619  3.248239  0.052  -0.362544  0.020847  3.561631  0.035  -0.38602  0.017375  3.568116  0.029  -0.345818  -0.344688  0.023255  3.556794  0.039
O  O70  1  0.05662853  0.34158097  0.09587630  1  -0.623949  0.036998  2.048722  0.068  -0.58975  0.026655  2.308818  0.045  -0.623508  0.020484  2.296297  0.035  -0.315114  -0.563984  0.033266  2.316852  0.055
O  O71  1  0.94336170  0.65841993  0.90413071  1  -0.623966  0.03699  2.049014  0.068  -0.589731  0.026652  2.309168  0.045  -0.623484  0.020482  2.296636  0.035  -0.315123  -0.563961  0.033262  2.317182  0.055
O  O72  1  0.78901504  0.13661150  0.01979633  1  -0.658573  0.029274  2.157639  0.054  -0.607951  0.025009  2.420263  0.042  -0.643847  0.018797  2.410173  0.032  -0.308129  -0.578677  0.031592  2.426375  0.052
O  O73  1  0.21098073  0.86339043  0.98021494  1  -0.658492  0.029276  2.157407  0.054  -0.607863  0.025007  2.420045  0.042  -0.643796  0.018797  2.409973  0.032  -0.308164  -0.578592  0.031592  2.426155  0.052
O  O74  1  0.52869601  0.79962493  0.03827872  1  -0.685139  0.032032  2.15118  0.058  -0.633387  0.026422  2.420145  0.044  -0.669496  0.020135  2.408528  0.033  -0.320949  -0.603309  0.033605  2.426383  0.055
O  O75  1  0.47129504  0.20037163  0.96171568  1  -0.685017  0.032033  2.151191  0.058  -0.633312  0.026423  2.42008  0.044  -0.669424  0.020136  2.408474  0.033  -0.320911  -0.603241  0.033606  2.426308  0.055
O  O76  1  0.63168944  0.64490266  0.13950778  1  -0.632992  0.004453  1.887866  0.008  -0.584269  0.003482  2.098395  0.006  -0.607121  0.002266  2.086588  0.004  -0.332554  -0.567812  0.005025  2.106537  0.009
O  O77  1  0.36829901  0.35509390  0.86048706  1  -0.632946  0.004451  1.887922  0.008  -0.584303  0.003482  2.098376  0.006  -0.607151  0.002266  2.086566  0.004  -0.332546  -0.567858  0.005024  2.106521  0.009
O  O78  1  0.19089890  0.67130707  0.14280336  1  -0.800313  0.025288  1.879759  0.048  -0.766718  0.022091  2.084441  0.037  -0.790506  0.017429  2.05254  0.03  -0.567474  -0.748279  0.026781  2.106606  0.043
O  O79  1  0.80909498  0.32869049  0.85719825  1  -0.800463  0.025287  1.879397  0.048  -0.76685  0.02209  2.084096  0.037  -0.790639  0.017429  2.052206  0.03  -0.567526  -0.748399  0.02678  2.106238  0.043
O  O80  1  0.77297374  0.45490000  0.07477169  1  -0.846902  0.029651  1.95134  0.053  -0.814261  0.02592  2.156322  0.041  -0.842597  0.0202  2.121759  0.033  -0.58343  -0.79102  0.032043  2.180331  0.05
O  O81  1  0.22701388  0.54509534  0.92522806  1  -0.846927  0.029651  1.951454  0.053  -0.814326  0.02592  2.1563  0.041  -0.84265  0.0202  2.121769  0.033  -0.583468  -0.791122  0.032043  2.180257  0.05
