# generated using pymatgen
data_ZnH14(C8O3)2
_symmetry_space_group_name_H-M   'P 1'
_cell_length_a   5.54682096
_cell_length_b   7.90524288
_cell_length_c   15.53153617
_cell_angle_alpha   90.00012078
_cell_angle_beta   95.77616753
_cell_angle_gamma   90.00044900
_symmetry_Int_Tables_number   1
_chemical_formula_structural   ZnH14(C8O3)2
_chemical_formula_sum   'Zn2 H28 C32 O12'
_cell_volume   677.58393280
_cell_formula_units_Z   2
loop_
 _symmetry_equiv_pos_site_id
 _symmetry_equiv_pos_as_xyz
  1  'x, y, z'
loop_
 _atom_site_type_symbol
 _atom_site_label
 _atom_site_symmetry_multiplicity
 _atom_site_fract_x
 _atom_site_fract_y
 _atom_site_fract_z
 _atom_site_occupancy
 _atom_site_hle17_bader_spin_density
 _atom_site_hle17_ddec_charge
 _atom_site_hle17_ddec_spin_density
 _atom_site_hle17_ddec_sum_bond_order
 _atom_site_hle17_magmom
 _atom_site_hse06_10hf_bader_spin_density
 _atom_site_hse06_10hf_ddec_charge
 _atom_site_hse06_10hf_ddec_spin_density
 _atom_site_hse06_10hf_ddec_sum_bond_order
 _atom_site_hse06_10hf_magmom
 _atom_site_hse06_bader_spin_density
 _atom_site_hse06_ddec_charge
 _atom_site_hse06_ddec_spin_density
 _atom_site_hse06_ddec_sum_bond_order
 _atom_site_hse06_magmom
 _atom_site_pbe_bader_spin_density
 _atom_site_pbe_cm5_charge
 _atom_site_pbe_ddec_charge
 _atom_site_pbe_ddec_spin_density
 _atom_site_pbe_ddec_sum_bond_order
 _atom_site_pbe_magmom
Zn  Zn0  1  0.00884987  0.91428254  0.42459449  1  0  1.183376  0  1.666988  0  0  1.010981  0  2.131619  0  0  1.062725  0  2.067015  0  0  0.697014  0.974366  0  2.176341  0
Zn  Zn1  1  0.99114437  0.41428537  0.57540693  1  0  1.183396  0  1.666964  0  0  1.010992  0  2.131587  0  0  1.062737  0  2.066984  0  0  0.697002  0.974372  0  2.176313  0
H  H2  1  0.18562559  0.74313252  0.74519753  1  0  0.117675  0  0.957001  0  0  0.127141  0  1.017711  0  0  0.13054  0  1.016255  0  0  0.106682  0.124728  0  1.018835  0
H  H3  1  0.81437195  0.24313852  0.25480253  1  0  0.117668  0  0.956827  0  0  0.127144  0  1.017548  0  0  0.130543  0  1.016091  0  0  0.106626  0.124725  0  1.018678  0
H  H4  1  0.41542648  0.74447546  0.88865184  1  0  0.083406  0  0.997844  0  0  0.093858  0  1.062269  0  0  0.095598  0  1.06303  0  0  0.096062  0.092378  0  1.062382  0
H  H5  1  0.58457477  0.24448113  0.11134709  1  0  0.083442  0  0.997845  0  0  0.093897  0  1.062251  0  0  0.095638  0  1.063014  0  0  0.096085  0.092417  0  1.062367  0
H  H6  1  0.88022750  0.07937511  0.98046453  1  0  0.084579  0  0.985029  0  0  0.095419  0  1.04845  0  0  0.097471  0  1.048449  0  0  0.097769  0.094053  0  1.048387  0
H  H7  1  0.11978240  0.57937784  0.01953650  1  0  0.084575  0  0.985032  0  0  0.095394  0  1.048468  0  0  0.097446  0  1.048468  0  0  0.097757  0.094029  0  1.048403  0
H  H8  1  0.65363814  0.07569449  0.83778868  1  0  0.108962  0  0.969495  0  0  0.11959  0  1.031575  0  0  0.121726  0  1.032613  0  0  0.10252  0.117818  0  1.031549  0
H  H9  1  0.34637530  0.57570891  0.16221314  1  0  0.109  0  0.969496  0  0  0.119617  0  1.031587  0  0  0.121753  0  1.032626  0  0  0.102538  0.117842  0  1.031561  0
H  H10  1  0.60589331  0.75912840  0.99895056  1  0  0.088131  0  0.988815  0  0  0.098754  0  1.052114  0  0  0.101049  0  1.052665  0  0  0.096839  0.097143  0  1.051887  0
H  H11  1  0.39411024  0.25911761  0.00104269  1  0  0.088179  0  0.988794  0  0  0.098832  0  1.052052  0  0  0.10113  0  1.052605  0  0  0.096941  0.097218  0  1.05183  0
H  H12  1  0.83258859  0.76248991  0.14267120  1  0  0.098143  0  0.975238  0  0  0.105354  0  1.042479  0  0  0.107848  0  1.042133  0  0  0.099868  0.103266  0  1.043455  0
H  H13  1  0.16742403  0.26249214  0.85732309  1  0  0.098166  0  0.975207  0  0  0.105375  0  1.042455  0  0  0.107874  0  1.042091  0  0  0.099902  0.10328  0  1.043436  0
H  H14  1  0.28057602  0.07127908  0.23884088  1  0  0.099576  0  0.964101  0  0  0.105791  0  1.031988  0  0  0.109361  0  1.029298  0  0  0.103426  0.103197  0  1.033976  0
H  H15  1  0.71942633  0.57130991  0.76116368  1  0  0.099485  0  0.964128  0  0  0.105658  0  1.032057  0  0  0.109263  0  1.029328  0  0  0.103373  0.103065  0  1.034047  0
H  H16  1  0.04944821  0.06759086  0.09674304  1  0  0.085455  0  1.001249  0  0  0.095659  0  1.065888  0  0  0.097677  0  1.067062  0  0  0.095109  0.093878  0  1.066015  0
H  H17  1  0.95056140  0.56760430  0.90326054  1  0  0.085365  0  1.001325  0  0  0.095515  0  1.066037  0  0  0.097533  0  1.067212  0  0  0.09505  0.093734  0  1.066158  0
H  H18  1  0.74315454  0.15311019  0.69450865  1  0  0.072925  0  0.936029  0  0  0.08153  0  0.997585  0  0  0.082874  0  0.997096  0  0  0.114565  0.080547  0  0.998099  0
H  H19  1  0.25684728  0.65311578  0.30549148  1  0  0.072771  0  0.935949  0  0  0.081385  0  0.997555  0  0  0.082717  0  0.997068  0  0  0.114533  0.080402  0  0.998069  0
H  H20  1  0.35910705  0.90666344  0.60929766  1  0  0.129469  0  0.929063  0  0  0.150926  0  0.986598  0  0  0.153054  0  0.986053  0  0  0.096814  0.149386  0  0.987027  0
H  H21  1  0.64087056  0.40666017  0.39070756  1  0  0.129467  0  0.929041  0  0  0.150936  0  0.986571  0  0  0.153064  0  0.986028  0  0  0.096845  0.149396  0  0.987005  0
H  H22  1  0.34296916  0.12973089  0.59590430  1  0  0.114101  0  0.963724  0  0  0.133133  0  1.030433  0  0  0.134603  0  1.030063  0  0  0.091353  0.132045  0  1.030769  0
H  H23  1  0.65703578  0.62972738  0.40409981  1  0  0.114151  0  0.963751  0  0  0.13318  0  1.030448  0  0  0.13465  0  1.030079  0  0  0.09137  0.132091  0  1.030785  0
H  H24  1  0.32815436  0.03968951  0.70062033  1  0  0.116601  0  0.960913  0  0  0.135891  0  1.024991  0  0  0.137063  0  1.026105  0  0  0.09022  0.135071  0  1.024224  0
H  H25  1  0.67183661  0.53968068  0.29938565  1  0  0.116717  0  0.960838  0  0  0.135975  0  1.024944  0  0  0.137149  0  1.026058  0  0  0.090267  0.13515  0  1.024178  0
H  H26  1  0.40349476  0.06790086  0.39047129  1  0  0.453591  0  0.841232  0  0  0.420559  0  0.906759  0  0  0.432151  0  0.890023  0  0  0.298758  0.412358  0  0.918583  0
H  H27  1  0.59649683  0.56790024  0.60952960  1  0  0.453615  0  0.841176  0  0  0.42059  0  0.906701  0  0  0.432184  0  0.88996  0  0  0.298797  0.412386  0  0.918529  0
H  H28  1  0.22412245  0.20876396  0.42911553  1  0  0.446229  0  0.848128  0  0  0.40865  0  0.922103  0  0  0.420619  0  0.904603  0  0  0.300468  0.400152  0  0.934516  0
H  H29  1  0.77587462  0.70875524  0.57088512  1  0  0.446216  0  0.84816  0  0  0.408643  0  0.922124  0  0  0.420608  0  0.904631  0  0  0.300483  0.400152  0  0.934526  0
C  C30  1  0.90546194  0.90767451  0.78194286  1  0  0.27928  0  3.808574  0  0  0.26858  0  4.07257  0  0  0.279421  0  4.087767  0  0  0.086041  0.261056  0  4.062142  0
C  C31  1  0.09454336  0.40767939  0.21805387  1  0  0.279344  0  3.808524  0  0  0.268505  0  4.072749  0  0  0.279348  0  4.087948  0  0  0.085978  0.260985  0  4.062313  0
C  C32  1  0.12019841  0.81499614  0.79794020  1  0  -0.175326  0  3.746564  0  0  -0.195797  0  4.000487  0  0  -0.201075  0  4.019431  0  0  -0.100248  -0.19226  0  3.987761  0
C  C33  1  0.87980197  0.31500229  0.20205814  1  0  -0.175439  0  3.746164  0  0  -0.195874  0  4.00014  0  0  -0.20115  0  4.019082  0  0  -0.100229  -0.192333  0  3.987405  0
C  C34  1  0.24877221  0.81780106  0.87942535  1  0  -0.088792  0  3.752485  0  0  -0.107374  0  4.000716  0  0  -0.107391  0  4.021027  0  0  -0.08962  -0.107268  0  3.987616  0
C  C35  1  0.75122834  0.31780252  0.12057043  1  0  -0.088807  0  3.752381  0  0  -0.107389  0  4.000619  0  0  -0.107409  0  4.020933  0  0  -0.089619  -0.107278  0  3.987516  0
C  C36  1  0.16833868  0.91202072  0.94807384  1  0  0.012283  0  3.780273  0  0  0.025443  0  4.013139  0  0  0.022909  0  4.03658  0  0  -0.020197  0.027327  0  3.996883  0
C  C37  1  0.83165949  0.41201603  0.05192131  1  0  0.012402  0  3.78057  0  0  0.025538  0  4.013428  0  0  0.023007  0  4.036867  0  0  -0.020153  0.027414  0  3.997184  0
C  C38  1  0.95159564  0.00432121  0.93006648  1  0  -0.078313  0  3.736203  0  0  -0.094899  0  3.981227  0  0  -0.095096  0  4.001753  0  0  -0.085163  -0.094394  0  3.967003  0
C  C39  1  0.04839900  0.50432629  0.06992995  1  0  -0.078256  0  3.736184  0  0  -0.094806  0  3.981191  0  0  -0.095004  0  4.001713  0  0  -0.085132  -0.094308  0  3.966975  0
C  C40  1  0.82130599  0.00362123  0.84854644  1  0  -0.183192  0  3.741063  0  0  -0.203467  0  3.993964  0  0  -0.208653  0  4.013904  0  0  -0.102017  -0.200036  0  3.981248  0
C  C41  1  0.17869950  0.50362468  0.15145045  1  0  -0.183286  0  3.741235  0  0  -0.203504  0  3.994172  0  0  -0.20869  0  4.014111  0  0  -0.10203  -0.200064  0  3.981449  0
C  C42  1  0.30661683  0.91333391  0.03468599  1  0  0.067464  0  3.756411  0  0  0.082279  0  3.985925  0  0  0.085959  0  4.00759  0  0  0.000477  0.079872  0  3.971064  0
C  C43  1  0.69338106  0.41332515  0.96531494  1  0  0.067403  0  3.756589  0  0  0.082267  0  3.986035  0  0  0.085947  0  4.0077  0  0  0.000429  0.079866  0  3.971173  0
C  C44  1  0.53024526  0.82781529  0.05065397  1  0  -0.120164  0  3.71901  0  0  -0.137295  0  3.965884  0  0  -0.142586  0  3.986679  0  0  -0.091261  -0.133827  0  3.951931  0
C  C45  1  0.46976626  0.32781423  0.94934293  1  0  -0.120298  0  3.719261  0  0  -0.137469  0  3.966138  0  0  -0.142767  0  3.986937  0  0  -0.091343  -0.134001  0  3.952184  0
C  C46  1  0.66026083  0.82893398  0.13192733  1  0  -0.05917  0  3.733937  0  0  -0.081449  0  3.98057  0  0  -0.078808  0  3.999306  0  0  -0.083591  -0.082949  0  3.968518  0
C  C47  1  0.33974536  0.32893836  0.86806741  1  0  -0.0591  0  3.734155  0  0  -0.081381  0  3.9808  0  0  -0.078747  0  3.999529  0  0  -0.083686  -0.082866  0  3.968737  0
C  C48  1  0.57273290  0.91694003  0.20082693  1  0  -0.089359  0  3.787608  0  0  -0.065699  0  4.019858  0  0  -0.075735  0  4.042752  0  0  -0.026238  -0.059087  0  4.004149  0
C  C49  1  0.42726510  0.41694841  0.79917272  1  0  -0.089435  0  3.787653  0  0  -0.065797  0  4.019912  0  0  -0.075806  0  4.042769  0  0  -0.026186  -0.059192  0  4.00421  0
C  C50  1  0.35049369  0.00183918  0.18623425  1  0  -0.047643  0  3.725553  0  0  -0.072836  0  3.977477  0  0  -0.069854  0  3.99509  0  0  -0.081205  -0.074246  0  3.965136  0
C  C51  1  0.64952067  0.50185212  0.81376623  1  0  -0.047489  0  3.725298  0  0  -0.072626  0  3.977228  0  0  -0.069689  0  3.994827  0  0  -0.081154  -0.07404  0  3.964891  0
C  C52  1  0.22069524  0.99972331  0.10496043  1  0  -0.121864  0  3.724231  0  0  -0.140062  0  3.973415  0  0  -0.145131  0  3.993789  0  0  -0.092248  -0.136829  0  3.960381  0
C  C53  1  0.77930906  0.49973625  0.89504345  1  0  -0.121768  0  3.72402  0  0  -0.139931  0  3.973172  0  0  -0.145003  0  3.993558  0  0  -0.092133  -0.136691  0  3.960131  0
C  C54  1  0.79650065  0.04977743  0.57021936  1  0  0.683507  0  3.771802  0  0  0.62899  0  4.064999  0  0  0.663266  0  4.057842  0  0  0.233939  0.605628  0  4.069235  0
C  C55  1  0.20349440  0.54977304  0.42978036  1  0  0.683457  0  3.771676  0  0  0.629017  0  4.064762  0  0  0.663287  0  4.057605  0  0  0.233947  0.605651  0  4.069004  0
C  C56  1  0.68604251  0.04014698  0.65658453  1  0  0.103531  0  3.603922  0  0  0.086835  0  3.847898  0  0  0.089286  0  3.855404  0  0  0.007476  0.084967  0  3.842766  0
C  C57  1  0.31396859  0.54015044  0.34341843  1  0  0.103943  0  3.603556  0  0  0.087194  0  3.847565  0  0  0.089678  0  3.855055  0  0  0.00758  0.085327  0  3.842436  0
C  C58  1  0.41152379  0.02825038  0.63985441  1  0  -0.336669  0  3.656724  0  0  -0.423053  0  3.898722  0  0  -0.425578  0  3.9069  0  0  -0.252036  -0.421  0  3.892958  0
C  C59  1  0.58847438  0.52825271  0.36014992  1  0  -0.336913  0  3.656794  0  0  -0.423268  0  3.898787  0  0  -0.42581  0  3.906972  0  0  -0.252126  -0.421213  0  3.893011  0
C  C60  1  0.71714323  0.92506804  0.28616412  1  0  0.631406  0  3.923241  0  0  0.583868  0  4.207349  0  0  0.618187  0  4.201719  0  0  0.202671  0.560638  0  4.21023  0
C  C61  1  0.28284420  0.42507796  0.71383123  1  0  0.631326  0  3.923411  0  0  0.58382  0  4.207504  0  0  0.618133  0  4.201866  0  0  0.202628  0.560595  0  4.210383  0
O  O62  1  0.83114797  0.19124560  0.53586082  1  0  -0.638836  0  2.060589  0  0  -0.571577  0  2.332985  0  0  -0.599851  0  2.317327  0  0  -0.311766  -0.551831  0  2.343154  0
O  O63  1  0.16881452  0.69123356  0.46413705  1  0  -0.638784  0  2.060596  0  0  -0.571609  0  2.333056  0  0  -0.599874  0  2.317376  0  0  -0.311817  -0.55187  0  2.343226  0
O  O64  1  0.84198374  0.90924380  0.53400078  1  0  -0.638981  0  2.1073  0  0  -0.555512  0  2.365448  0  0  -0.586905  0  2.351221  0  0  -0.293705  -0.533817  0  2.374766  0
O  O65  1  0.15801222  0.40923840  0.46600135  1  0  -0.639032  0  2.107226  0  0  -0.555588  0  2.365385  0  0  -0.586982  0  2.351151  0  0  -0.293703  -0.533878  0  2.374696  0
O  O66  1  0.78251009  0.89060440  0.70132120  1  0  -0.317313  0  2.30775  0  0  -0.248259  0  2.537074  0  0  -0.265042  0  2.538742  0  0  -0.184166  -0.236116  0  2.535448  0
O  O67  1  0.21749666  0.39061393  0.29867815  1  0  -0.317455  0  2.307568  0  0  -0.248375  0  2.536992  0  0  -0.265171  0  2.53866  0  0  -0.184223  -0.236235  0  2.53537  0
O  O68  1  0.64740007  0.01261403  0.34840284  1  0  -0.655702  0  2.002674  0  0  -0.591498  0  2.239234  0  0  -0.617821  0  2.225938  0  0  -0.314005  -0.57317  0  2.247854  0
O  O69  1  0.35259276  0.51261994  0.65159546  1  0  -0.655699  0  2.002704  0  0  -0.591494  0  2.239242  0  0  -0.61782  0  2.225947  0  0  -0.314005  -0.573167  0  2.247865  0
O  O70  1  0.91984708  0.84526582  0.29779924  1  0  -0.648959  0  2.019896  0  0  -0.582645  0  2.282136  0  0  -0.612782  0  2.272055  0  0  -0.317138  -0.561526  0  2.288391  0
O  O71  1  0.08014801  0.34526080  0.70220343  1  0  -0.648893  0  2.020008  0  0  -0.582613  0  2.282267  0  0  -0.612756  0  2.272193  0  0  -0.317098  -0.561494  0  2.288519  0
O  O72  1  0.26622348  0.08650469  0.42696949  1  0  -0.859425  0  1.922077  0  0  -0.787777  0  2.160021  0  0  -0.811041  0  2.118091  0  0  -0.573465  -0.771491  0  2.189188  0
O  O73  1  0.73377211  0.58650209  0.57302901  1  0  -0.859415  0  1.92207  0  0  -0.787781  0  2.159985  0  0  -0.811046  0  2.118061  0  0  -0.573496  -0.771495  0  2.189146  0
