# generated using pymatgen
data_Mn3H22C22(NO4)4
_symmetry_space_group_name_H-M   'P 1'
_cell_length_a   13.69029694
_cell_length_b   15.39632746
_cell_length_c   15.39693197
_cell_angle_alpha   111.58680479
_cell_angle_beta   107.25340851
_cell_angle_gamma   107.23388679
_symmetry_Int_Tables_number   1
_chemical_formula_structural   Mn3H22C22(NO4)4
_chemical_formula_sum   'Mn9 H66 C66 N12 O48'
_cell_volume   2564.11752746
_cell_formula_units_Z   3
loop_
 _symmetry_equiv_pos_site_id
 _symmetry_equiv_pos_as_xyz
  1  'x, y, z'
loop_
 _atom_site_type_symbol
 _atom_site_label
 _atom_site_symmetry_multiplicity
 _atom_site_fract_x
 _atom_site_fract_y
 _atom_site_fract_z
 _atom_site_occupancy
 _atom_site_pbe_bader_charge
 _atom_site_pbe_bader_spin_density
 _atom_site_pbe_cm5_charge
 _atom_site_pbe_ddec_charge
 _atom_site_pbe_ddec_spin_density
 _atom_site_pbe_ddec_sum_bond_order
 _atom_site_pbe_magmom
Mn  Mn0  1  0.27619458  0.76011167  0.48684904  1  1.502053  4.558116  0.602706  0.956152  4.695779  2.341211  4.481
Mn  Mn1  1  0.78937549  0.51333419  0.27328255  1  1.502186  4.55867  0.602513  0.956484  4.696283  2.338452  4.481
Mn  Mn2  1  0.51597682  0.72667945  0.23990860  1  1.500708  4.558587  0.602571  0.957093  4.695503  2.340638  4.481
Mn  Mn3  1  0.72380610  0.23989097  0.51315472  1  1.501905  4.558159  0.602678  0.956062  4.695791  2.341263  4.481
Mn  Mn4  1  0.21063145  0.48666845  0.72671253  1  1.502175  4.558683  0.602489  0.956422  4.696271  2.338596  4.481
Mn  Mn5  1  0.48402069  0.27331691  0.76009396  1  1.50072  4.558577  0.602567  0.957137  4.695448  2.340677  4.481
Mn  Mn6  1  0.50000061  0.49999347  0.49999943  1  1.523255  4.501606  0.636903  1.043635  4.615433  2.327946  4.411
Mn  Mn7  1  0.00000181  0.50000366  0.00000099  1  1.524746  4.501545  0.637525  1.045158  4.615304  2.326835  4.41
Mn  Mn8  1  0.00000595  0.00000075  0.50000507  1  1.525594  4.500758  0.636714  1.043683  4.615059  2.330232  4.41
H  H9  1  0.92587679  0.78945194  0.71741801  1  0.067896  0.000375  0.101189  0.114233  0.000132  1.008591  0.0
H  H10  1  0.20847469  0.28208269  0.07183649  1  0.061802  0.000377  0.101173  0.113858  0.000131  1.009779  0.0
H  H11  1  0.13654418  0.92816463  0.21054184  1  0.048398  0.000378  0.100879  0.113391  0.000131  1.008654  0.0
H  H12  1  0.07412222  0.21055619  0.28257495  1  0.068093  0.000375  0.101207  0.114272  0.000132  1.008628  0.0
H  H13  1  0.79151753  0.71791366  0.92816008  1  0.061894  0.000377  0.101218  0.113921  0.000131  1.009701  0.0
H  H14  1  0.86345773  0.07184037  0.78945857  1  0.049002  0.000378  0.10087  0.113402  0.000131  1.00878  0.0
H  H15  1  0.01941379  0.54000680  0.61161092  1  0.09954  0.000704  0.112542  0.128099  0.000358  1.022268  0.0
H  H16  1  0.40775097  0.38855307  0.92842101  1  0.095196  0.000716  0.112422  0.127609  0.000356  1.022254  0.0
H  H17  1  0.47938949  0.07155835  0.46000888  1  0.08412  0.00074  0.112649  0.12854  0.000359  1.021643  0.0
H  H18  1  0.98058111  0.45999506  0.38839293  1  0.099493  0.000704  0.112564  0.128128  0.000359  1.02225  0.0
H  H19  1  0.59224707  0.61142915  0.07157982  1  0.095586  0.000715  0.11243  0.127635  0.000356  1.022132  0.0
H  H20  1  0.52061450  0.92843722  0.53999582  1  0.084051  0.00074  0.112653  0.128544  0.000359  1.021649  0.0
H  H21  1  0.11420744  0.91724872  0.75108173  1  0.030389  0.000295  0.100029  0.094317  -3.7e-05  1.000741  0.0
H  H22  1  0.36333388  0.24856258  0.16600497  1  0.063626  0.00029  0.100294  0.094873  -3.7e-05  0.999919  0.0
H  H23  1  0.19701010  0.83403030  0.08267658  1  0.044847  0.000293  0.100379  0.095177  -3.7e-05  1.000651  0.0
H  H24  1  0.88579377  0.08275627  0.24891459  1  0.030365  0.000294  0.100067  0.094362  -3.7e-05  1.000716  0.0
H  H25  1  0.63665522  0.75142906  0.83398904  1  0.063733  0.00029  0.100322  0.09489  -3.7e-05  0.999953  0.0
H  H26  1  0.80299572  0.16597784  0.91732345  1  0.044814  0.000293  0.100339  0.095094  -3.7e-05  1.000716  0.0
H  H27  1  0.25331448  0.85671404  0.71243357  1  0.080031  0.000363  0.105835  0.112612  1.4e-05  1.012154  0.0
H  H28  1  0.54126361  0.28774599  0.14436054  1  0.077839  0.000371  0.105932  0.113079  1.2e-05  1.011096  0.0
H  H29  1  0.39661484  0.85572058  0.14320213  1  0.072651  0.000373  0.105336  0.111843  1.4e-05  1.01212  0.0
H  H30  1  0.74668843  0.14328860  0.28757471  1  0.080256  0.000363  0.105855  0.11265  1.4e-05  1.012093  0.0
H  H31  1  0.45873408  0.71224016  0.85564292  1  0.07783  0.000371  0.105943  0.113124  1.2e-05  1.011166  0.0
H  H32  1  0.60339012  0.14428284  0.85679854  1  0.07269  0.000373  0.105317  0.111819  1.4e-05  1.012076  0.0
H  H33  1  0.80728657  0.61217172  0.65655289  1  0.655583  0.000116  0.310005  0.371631  -0.000321  0.950236  0.0
H  H34  1  0.15067780  0.34333876  0.95575647  1  0.652789  0.000113  0.310527  0.373386  -0.000321  0.948236  0.0
H  H35  1  0.19508820  0.04444565  0.38781372  1  0.654557  0.000117  0.310168  0.372252  -0.000322  0.949136  0.0
H  H36  1  0.19270771  0.38783170  0.34344226  1  0.656023  0.000116  0.310063  0.371744  -0.000321  0.950153  0.0
H  H37  1  0.84932710  0.65665995  0.04424184  1  0.652734  0.000113  0.310507  0.373285  -0.000321  0.948366  0.0
H  H38  1  0.80491567  0.95556013  0.61218491  1  0.655131  0.000117  0.310159  0.372201  -0.000322  0.949282  0.0
H  H39  1  0.30851192  0.75036933  0.31327426  1  0.654406  0.00204  0.296594  0.391915  0.000716  0.948785  0.002
H  H40  1  0.99545082  0.68667336  0.43704310  1  0.659852  0.00202  0.296088  0.390774  0.000724  0.950344  0.003
H  H41  1  0.55815427  0.56293355  0.24960455  1  0.65191  0.002045  0.296289  0.39158  0.000716  0.949652  0.002
H  H42  1  0.69147845  0.24963410  0.68672632  1  0.654341  0.002039  0.296585  0.391826  0.000716  0.948941  0.002
H  H43  1  0.00455215  0.31332614  0.56295756  1  0.659891  0.00202  0.296105  0.390807  0.000724  0.950303  0.003
H  H44  1  0.44184792  0.43706909  0.75040093  1  0.651891  0.002045  0.296179  0.39139  0.000717  0.949869  0.002
H  H45  1  0.07911068  0.57295559  0.30805922  1  0.651707  0.002446  0.298751  0.39329  0.000736  0.934654  0.003
H  H46  1  0.77109828  0.69211529  0.26485732  1  0.638118  0.002466  0.299539  0.394685  0.000726  0.932833  0.003
H  H47  1  0.50616800  0.73505924  0.42714309  1  0.64291  0.002486  0.299275  0.394508  0.000726  0.933662  0.003
H  H48  1  0.92089242  0.42705333  0.69194360  1  0.651688  0.002446  0.298802  0.393376  0.000736  0.934505  0.003
H  H49  1  0.22889755  0.30788814  0.73513696  1  0.638334  0.002464  0.299549  0.394652  0.000726  0.932841  0.003
H  H50  1  0.49383320  0.26495204  0.57286200  1  0.643077  0.002486  0.299316  0.394569  0.000726  0.933584  0.003
H  H51  1  0.65085805  0.66253662  0.65917343  1  0.6386  0.000419  0.31311  0.404585  0.000635  0.915665  0.0
H  H52  1  0.99154883  0.34086835  0.00349878  1  0.658458  0.000409  0.313103  0.405093  0.000635  0.91515  0.0
H  H53  1  0.98817924  0.99665785  0.33743855  1  0.653964  0.00043  0.312645  0.403877  0.000629  0.916407  0.0
H  H54  1  0.34914208  0.33746759  0.34081646  1  0.638568  0.000419  0.313157  0.40467  0.000634  0.91557  0.0
H  H55  1  0.00845861  0.65914292  0.99649893  1  0.658522  0.000408  0.313088  0.405076  0.000634  0.915209  0.0
H  H56  1  0.01181790  0.00333458  0.66255795  1  0.654042  0.00043  0.31266  0.403891  0.000629  0.91641  0.0
H  H57  1  0.16241820  0.53836750  0.36340165  1  0.62774  0.0017  0.295958  0.376431  0.00094  0.960922  0.002
H  H58  1  0.79931881  0.63693307  0.17508590  1  0.633196  0.001691  0.295296  0.375667  0.000943  0.962232  0.002
H  H59  1  0.62399453  0.82485689  0.46157961  1  0.63218  0.001707  0.29526  0.375599  0.000939  0.96232  0.002
H  H60  1  0.83758015  0.46163357  0.63660156  1  0.627818  0.0017  0.296001  0.376467  0.000939  0.960854  0.002
H  H61  1  0.20068734  0.36307271  0.82491466  1  0.633227  0.001691  0.295299  0.375653  0.000943  0.962253  0.002
H  H62  1  0.37600477  0.17515517  0.53842460  1  0.632114  0.001707  0.295305  0.375623  0.000939  0.962265  0.002
H  H63  1  0.65737746  0.59040447  0.70807388  1  0.621929  0.000328  0.331551  0.418795  -9.8e-05  0.863655  0.0
H  H64  1  0.94918908  0.29200737  0.88252343  1  0.616509  0.000331  0.330856  0.4178  -9.8e-05  0.866128  0.0
H  H65  1  0.06671585  0.11764539  0.40953742  1  0.634339  0.000316  0.331645  0.418585  -0.000101  0.864384  0.0
H  H66  1  0.34262105  0.40959660  0.29191769  1  0.621794  0.000328  0.331541  0.41888  -9.9e-05  0.86367  0.0
H  H67  1  0.05080782  0.70799370  0.11747354  1  0.616552  0.000331  0.330861  0.417833  -9.8e-05  0.866105  0.0
H  H68  1  0.93327453  0.88235175  0.59045438  1  0.634313  0.000316  0.33159  0.418559  -0.000101  0.864376  0.0
H  H69  1  0.33027950  0.86741660  0.37960849  1  0.594429  0.00299  0.293476  0.358559  0.001754  0.977519  0.003
H  H70  1  0.95073639  0.62035629  0.48777223  1  0.595543  0.003019  0.293521  0.358846  0.001763  0.977005  0.003
H  H71  1  0.46274569  0.51219207  0.13256648  1  0.594358  0.003001  0.292885  0.358012  0.00176  0.978481  0.003
H  H72  1  0.66972312  0.13259310  0.62040227  1  0.594166  0.00299  0.293521  0.35852  0.001754  0.977571  0.003
H  H73  1  0.04927012  0.37964871  0.51222879  1  0.595509  0.003018  0.293525  0.358842  0.001763  0.97699  0.003
H  H74  1  0.53725620  0.48781450  0.86743774  1  0.594276  0.003002  0.292904  0.358081  0.00176  0.978388  0.003
C  C75  1  0.22984343  0.66074226  0.63801007  1  0.967111  0.022371  0.21617  0.311726  0.017632  3.997029  0.018
C  C76  1  0.59194711  0.36212810  0.02276499  1  0.982718  0.022335  0.21668  0.313816  0.017615  3.994414  0.017
C  C77  1  0.56901971  0.97714475  0.33928262  1  1.004436  0.022226  0.217236  0.313295  0.017611  3.998249  0.017
C  C78  1  0.77015288  0.33925175  0.36199261  1  0.966981  0.022374  0.216219  0.311821  0.017632  3.996689  0.018
C  C79  1  0.40805615  0.63786590  0.97723505  1  0.982507  0.02233  0.216687  0.313864  0.017609  3.994408  0.017
C  C80  1  0.43098127  0.02285553  0.66072362  1  1.003994  0.022236  0.217348  0.313467  0.017616  3.99836  0.017
C  C81  1  0.14604052  0.69478439  0.65947989  1  -0.017376  0.000447  0.000704  0.049326  -0.000228  4.021668  -0.001
C  C82  1  0.48667746  0.34064915  0.03533435  1  0.006252  0.000448  0.000542  0.047489  -0.000219  4.021511  -0.001
C  C83  1  0.45121008  0.96460612  0.30522772  1  -0.03827  0.000466  8.3e-05  0.048205  -0.000224  4.020832  -0.001
C  C84  1  0.85396691  0.30521668  0.34053230  1  -0.017826  0.000447  0.000714  0.049291  -0.000228  4.021456  -0.001
C  C85  1  0.51332354  0.65934642  0.96466434  1  0.005945  0.000449  0.00056  0.047577  -0.000219  4.021376  -0.001
C  C86  1  0.54879284  0.03539181  0.69477365  1  -0.038708  0.000466  6.5e-05  0.04816  -0.000224  4.020936  -0.001
C  C87  1  0.44527823  0.68113873  0.55091037  1  1.517195  0.030776  0.220986  0.574694  0.030406  4.20022  0.024
C  C88  1  0.89451407  0.44912974  0.13034248  1  1.528042  0.030645  0.222642  0.577021  0.03031  4.203837  0.024
C  C89  1  0.76410524  0.86963128  0.31889916  1  1.547876  0.030656  0.223137  0.578195  0.030372  4.202547  0.024
C  C90  1  0.55471901  0.31886155  0.44908900  1  1.516559  0.030792  0.220956  0.574779  0.030421  4.19987  0.024
C  C91  1  0.10549260  0.55088782  0.86966315  1  1.527825  0.030639  0.22262  0.576944  0.030303  4.204285  0.024
C  C92  1  0.23589454  0.13036194  0.68110159  1  1.548178  0.030676  0.223247  0.578206  0.030393  4.202334  0.024
C  C93  1  0.36606451  0.65442486  0.59452707  1  0.434594  0.014914  0.071501  -0.018739  0.011538  4.039324  0.009
C  C94  1  0.77165041  0.40544037  0.05997924  1  0.453417  0.014965  0.071927  -0.018022  0.01154  4.041402  0.009
C  C95  1  0.71158692  0.93997841  0.34562746  1  0.448989  0.014863  0.071112  -0.01909  0.011526  4.037336  0.009
C  C96  1  0.63392158  0.34556207  0.40545597  1  0.439262  0.01491  0.071472  -0.018974  0.011538  4.039173  0.009
C  C97  1  0.22835105  0.59456541  0.94002718  1  0.453817  0.014961  0.071934  -0.017877  0.011536  4.041377  0.009
C  C98  1  0.28841254  0.06001873  0.65437398  1  0.448775  0.014867  0.071139  -0.019021  0.011529  4.037542  0.009
C  C99  1  0.98755063  0.76320490  0.70124423  1  -0.080117  0.003135  -0.117236  -0.247708  0.00235  4.02369  0.002
C  C100  1  0.28632504  0.29839519  0.06178804  1  -0.028274  0.003125  -0.117325  -0.247607  0.002352  4.02465  0.002
C  C101  1  0.22443574  0.93820112  0.23675448  1  -0.046314  0.003128  -0.116533  -0.24549  0.00235  4.023213  0.002
C  C102  1  0.01245396  0.23680402  0.29876224  1  -0.079156  0.003136  -0.117286  -0.2478  0.00235  4.023757  0.002
C  C103  1  0.71366522  0.70159568  0.93820406  1  -0.027828  0.003125  -0.117356  -0.247741  0.002352  4.024775  0.002
C  C104  1  0.77557511  0.06181094  0.76324770  1  -0.046862  0.003129  -0.116573  -0.245577  0.002351  4.023261  0.002
C  C105  1  0.04063928  0.62268187  0.64124712  1  -0.064121  0.003765  -0.10093  -0.258712  0.003013  3.925451  0.002
C  C106  1  0.39941593  0.35887280  0.98147962  1  -0.064189  0.003755  -0.100625  -0.256928  0.003012  3.924504  0.002
C  C107  1  0.41791184  0.01852090  0.37732055  1  -0.012432  0.00373  -0.101467  -0.25929  0.003022  3.926756  0.002
C  C108  1  0.95936220  0.37732391  0.35875801  1  -0.063727  0.003765  -0.100847  -0.258541  0.003013  3.92534  0.002
C  C109  1  0.60057612  0.64111727  0.01852112  1  -0.064738  0.003754  -0.100639  -0.257049  0.003012  3.92428  0.002
C  C110  1  0.58208669  0.98146840  0.62268233  1  -0.012651  0.00373  -0.101496  -0.259258  0.003022  3.926746  0.002
C  C111  1  0.96152310  0.65688597  0.66166180  1  0.496817  0.000561  0.081694  0.325496  0.000221  4.083451  0.0
C  C112  1  0.29984992  0.33824312  0.99523199  1  0.469921  0.000568  0.081987  0.326281  0.000223  4.081981  0.0
C  C113  1  0.30463380  0.00485555  0.34307017  1  0.456086  0.000571  0.082156  0.325301  0.000221  4.082512  0.0
C  C114  1  0.03847200  0.34312217  0.33833594  1  0.496203  0.000562  0.081658  0.325397  0.000221  4.083594  0.0
C  C115  1  0.70014375  0.66174539  0.00476018  1  0.469801  0.000568  0.08199  0.326347  0.000223  4.082125  0.0
C  C116  1  0.69536988  0.99514238  0.65693271  1  0.456497  0.000571  0.082159  0.325238  0.000221  4.082188  0.0
C  C117  1  0.09277941  0.83426387  0.71947650  1  -0.03237  0.000292  -0.095574  -0.060492  -0.000136  4.074244  0.0
C  C118  1  0.37346580  0.28030905  0.11469426  1  -0.056043  0.000295  -0.095872  -0.060942  -0.000134  4.075531  0.0
C  C119  1  0.25855323  0.88535450  0.16566763  1  0.023943  0.000276  -0.095989  -0.062296  -0.000136  4.076032  0.0
C  C120  1  0.90722588  0.16574034  0.28052845  1  -0.033365  0.000292  -0.095564  -0.060451  -0.000136  4.074343  0.0
C  C121  1  0.62652752  0.71968339  0.88530054  1  -0.056749  0.000295  -0.095854  -0.060848  -0.000134  4.075746  0.0
C  C122  1  0.74145088  0.11464579  0.83433492  1  0.023732  0.000276  -0.095921  -0.062128  -0.000136  4.075939  0.0
C  C123  1  0.17157119  0.80107439  0.69840594  1  0.019145  0.003043  -0.098421  -0.148065  0.002341  3.987562  0.002
C  C124  1  0.47342782  0.30168431  0.10273107  1  -0.042432  0.003051  -0.098466  -0.148239  0.002337  3.988103  0.002
C  C125  1  0.37049136  0.89729505  0.19889719  1  -0.054159  0.003062  -0.098165  -0.146951  0.002346  3.987475  0.002
C  C126  1  0.82843291  0.19892275  0.30159287  1  0.019197  0.003043  -0.098472  -0.14817  0.002341  3.987624  0.002
C  C127  1  0.52656423  0.69829792  0.89725968  1  -0.041742  0.003052  -0.098567  -0.148398  0.002338  3.98831  0.002
C  C128  1  0.62951151  0.10270130  0.80110619  1  -0.053768  0.003062  -0.098088  -0.146877  0.002347  3.987234  0.002
C  C129  1  0.33870661  0.58284428  0.63009489  1  0.415396  0.015272  0.072531  -0.023653  0.011621  4.049503  0.009
C  C130  1  0.70870816  0.36981249  0.95279185  1  0.368972  0.015322  0.071934  -0.025088  0.011634  4.049443  0.009
C  C131  1  0.75574175  0.04709757  0.41715953  1  0.405672  0.015271  0.072508  -0.023448  0.011609  4.048064  0.009
C  C132  1  0.66128411  0.41714266  0.36988681  1  0.410954  0.015277  0.072582  -0.023559  0.011623  4.049242  0.009
C  C133  1  0.29129623  0.63018386  0.04721260  1  0.368689  0.015321  0.071956  -0.025072  0.011633  4.049364  0.009
C  C134  1  0.24425839  0.95289800  0.58284542  1  0.405916  0.015278  0.072488  -0.023503  0.011616  4.047837  0.009
C  C135  1  0.38305859  0.51028221  0.64379663  1  1.547322  0.02204  0.22715  0.579056  0.021807  4.205011  0.018
C  C136  1  0.73938483  0.35615952  0.86656712  1  1.562106  0.022075  0.22709  0.579532  0.021834  4.204896  0.018
C  C137  1  0.87259333  0.13337255  0.48967858  1  1.543918  0.022091  0.227649  0.579198  0.021833  4.200393  0.018
C  C138  1  0.61694014  0.48971180  0.35619827  1  1.546863  0.02204  0.227313  0.579417  0.021801  4.204756  0.018
C  C139  1  0.26061404  0.64384391  0.13342994  1  1.56262  0.022078  0.227039  0.579505  0.021838  4.205019  0.018
C  C140  1  0.12740451  0.86662459  0.51032826  1  1.543715  0.022103  0.227718  0.579363  0.021842  4.199913  0.018
N  N141  1  0.29612736  0.70235445  0.59938921  1  -1.228682  0.056318  -0.345958  -0.399352  0.038964  3.437354  0.015
N  N142  1  0.69683614  0.40068651  0.10299469  1  -1.222849  0.056296  -0.346336  -0.399935  0.038951  3.437772  0.015
N  N143  1  0.59373416  0.89693668  0.29773110  1  -1.248236  0.05621  -0.346972  -0.401301  0.038956  3.43847  0.015
N  N144  1  0.70386552  0.29763720  0.40060908  1  -1.228104  0.05631  -0.345888  -0.399133  0.038959  3.437181  0.015
N  N145  1  0.30316387  0.59930278  0.89701249  1  -1.22257  0.0563  -0.34627  -0.400041  0.038955  3.438027  0.015
N  N146  1  0.40626802  0.10306596  0.70227437  1  -1.247945  0.056217  -0.346995  -0.40138  0.038963  3.43852  0.015
N  N147  1  0.25250912  0.58783087  0.65704862  1  -1.219936  0.058979  -0.339339  -0.390166  0.041808  3.427186  0.019
N  N148  1  0.59555173  0.34301328  0.93081284  1  -1.230398  0.05902  -0.340183  -0.392167  0.041872  3.428482  0.019
N  N149  1  0.66455387  0.06905940  0.41217754  1  -1.232308  0.059221  -0.340168  -0.390694  0.041842  3.428523  0.019
N  N150  1  0.74749226  0.41216392  0.34294924  1  -1.220462  0.058981  -0.339423  -0.390327  0.04181  3.426813  0.019
N  N151  1  0.40445211  0.65697130  0.06918783  1  -1.230505  0.059027  -0.34025  -0.392247  0.041872  3.428334  0.019
N  N152  1  0.33544863  0.93094088  0.58783041  1  -1.232187  0.059228  -0.340247  -0.390828  0.041847  3.428662  0.019
O  O153  1  0.42647568  0.72800917  0.49940919  1  -1.16615  0.075021  -0.282338  -0.518857  0.053672  2.287212  0.041
O  O154  1  0.92726586  0.50074832  0.22868437  1  -1.170752  0.074999  -0.282177  -0.518327  0.053583  2.286224  0.041
O  O155  1  0.69849972  0.77129671  0.27210698  1  -1.179078  0.075045  -0.282221  -0.519391  0.053679  2.28867  0.041
O  O156  1  0.57353109  0.27200289  0.50061005  1  -1.165484  0.075027  -0.282293  -0.518894  0.053677  2.286903  0.041
O  O157  1  0.07274367  0.49927317  0.77131437  1  -1.170376  0.074985  -0.282173  -0.518327  0.053581  2.286077  0.041
O  O158  1  0.30150176  0.22869965  0.72788564  1  -1.179211  0.075065  -0.282315  -0.51949  0.053694  2.288319  0.041
O  O159  1  0.52835425  0.65631848  0.56343000  1  -1.222941  0.065745  -0.334811  -0.604227  0.042767  2.344188  0.027
O  O160  1  0.96501891  0.43654017  0.09299724  1  -1.21713  0.065644  -0.335736  -0.606324  0.042694  2.347439  0.027
O  O161  1  0.87198489  0.90699665  0.34367861  1  -1.227018  0.066073  -0.335929  -0.606766  0.042811  2.346669  0.027
O  O162  1  0.47164104  0.34367474  0.43656237  1  -1.223041  0.06576  -0.334805  -0.604235  0.042768  2.344216  0.027
O  O163  1  0.03498312  0.56346797  0.90699915  1  -1.217289  0.065616  -0.335757  -0.606325  0.042689  2.347777  0.027
O  O164  1  0.12801434  0.09298950  0.65632527  1  -1.227169  0.066082  -0.336034  -0.606779  0.042819  2.346713  0.027
O  O165  1  0.45574063  0.49422590  0.61235364  1  -1.205243  0.074005  -0.328136  -0.583556  0.048944  2.397066  0.033
O  O166  1  0.84352882  0.38749818  0.88195600  1  -1.203917  0.074087  -0.328041  -0.583878  0.048995  2.398121  0.033
O  O167  1  0.96137057  0.11801899  0.50575145  1  -1.203857  0.073989  -0.328512  -0.583733  0.049013  2.393419  0.033
O  O168  1  0.54425555  0.50577203  0.38763679  1  -1.204847  0.073992  -0.328192  -0.58372  0.048928  2.396819  0.033
O  O169  1  0.15646853  0.61250995  0.11804560  1  -1.203939  0.074094  -0.328008  -0.583858  0.048998  2.398072  0.033
O  O170  1  0.03862798  0.88197816  0.49426013  1  -1.203916  0.074002  -0.328592  -0.583825  0.049014  2.393433  0.033
O  O171  1  0.85905059  0.58289661  0.63948038  1  -1.191893  0.00137  -0.346355  -0.46375  0.000324  2.370697  0.001
O  O172  1  0.21949506  0.36046830  0.94353327  1  -1.183528  0.001361  -0.347402  -0.466424  0.000321  2.367739  0.001
O  O173  1  0.27613662  0.05663379  0.41706849  1  -1.191491  0.001359  -0.346445  -0.464259  0.000323  2.367265  0.001
O  O174  1  0.14095179  0.41711545  0.36052272  1  -1.192241  0.00137  -0.346443  -0.46387  0.000324  2.370657  0.001
O  O175  1  0.78050419  0.63952963  0.05645670  1  -1.18345  0.00136  -0.347373  -0.466276  0.000321  2.368077  0.001
O  O176  1  0.72386767  0.94336963  0.58292486  1  -1.192024  0.00136  -0.346456  -0.464224  0.000323  2.367297  0.001
O  O177  1  0.34689109  0.46499053  0.69087015  1  -1.181453  0.070793  -0.28807  -0.518889  0.049568  2.326657  0.037
O  O178  1  0.65616494  0.30927411  0.77425572  1  -1.184665  0.070814  -0.288317  -0.51898  0.049554  2.326104  0.037
O  O179  1  0.88163561  0.22568118  0.53491164  1  -1.179726  0.070732  -0.288228  -0.51858  0.049588  2.327082  0.037
O  O180  1  0.65310906  0.53499405  0.30912042  1  -1.181303  0.070775  -0.288166  -0.519093  0.049563  2.326725  0.037
O  O181  1  0.34383279  0.69073010  0.22574132  1  -1.185191  0.070813  -0.288283  -0.518965  0.049559  2.326143  0.037
O  O182  1  0.11836462  0.77431440  0.46508749  1  -1.179657  0.070754  -0.288224  -0.518613  0.049596  2.326836  0.037
O  O183  1  0.29222845  0.79646805  0.36721330  1  -1.26074  0.06069  -0.573567  -0.749266  0.043529  2.160057  0.029
O  O184  1  0.92523048  0.63267425  0.42913076  1  -1.267182  0.060823  -0.57296  -0.74855  0.043563  2.161016  0.029
O  O185  1  0.49570562  0.57073506  0.20351187  1  -1.258793  0.060809  -0.57269  -0.748563  0.04355  2.161541  0.029
O  O186  1  0.70776613  0.20353929  0.63279310  1  -1.260389  0.06068  -0.573602  -0.749118  0.043522  2.160241  0.029
O  O187  1  0.07477059  0.36732446  0.57086649  1  -1.267181  0.060828  -0.572974  -0.74856  0.043566  2.160911  0.029
O  O188  1  0.50429496  0.42926444  0.79649463  1  -1.258667  0.060799  -0.572617  -0.748476  0.043545  2.161529  0.029
O  O189  1  0.16046890  0.59948565  0.35765200  1  -1.274813  0.05899  -0.576882  -0.747898  0.041846  2.106273  0.028
O  O190  1  0.80297295  0.64259233  0.24187715  1  -1.268169  0.058969  -0.576867  -0.748348  0.041831  2.105369  0.028
O  O191  1  0.56096156  0.75797492  0.40053603  1  -1.270674  0.058875  -0.576379  -0.748046  0.04184  2.106385  0.028
O  O192  1  0.83953484  0.40051698  0.64235260  1  -1.274838  0.058982  -0.576941  -0.747971  0.041845  2.106308  0.028
O  O193  1  0.19702435  0.35740952  0.75811956  1  -1.268377  0.058958  -0.576882  -0.748267  0.041825  2.105349  0.028
O  O194  1  0.43904190  0.24203478  0.59946977  1  -1.270808  0.058877  -0.57648  -0.748142  0.041842  2.106456  0.028
O  O195  1  0.68768594  0.61795904  0.66856974  1  -1.2367  0.040508  -0.542894  -0.749483  0.029715  2.002806  0.021
O  O196  1  0.01900943  0.33124444  0.94953748  1  -1.251269  0.040339  -0.542807  -0.749325  0.029636  2.002924  0.021
O  O197  1  0.06955909  0.05064057  0.38193443  1  -1.265297  0.040527  -0.542633  -0.748234  0.029709  2.004174  0.021
O  O198  1  0.31230455  0.38203810  0.33141430  1  -1.236564  0.040507  -0.542943  -0.749681  0.029711  2.00284  0.021
O  O199  1  0.98099225  0.66876448  0.05045779  1  -1.251387  0.040342  -0.542819  -0.749367  0.029637  2.003033  0.021
O  O200  1  0.93043692  0.94935893  0.61806887  1  -1.265297  0.040526  -0.542587  -0.748221  0.02971  2.004106  0.021
