# generated using pymatgen
data_NdH6(C2O3)3
_symmetry_space_group_name_H-M   'P 1'
_cell_length_a   6.68239295
_cell_length_b   10.32039746
_cell_length_c   13.57983832
_cell_angle_alpha   90.00000824
_cell_angle_beta   90.00004837
_cell_angle_gamma   89.99982326
_symmetry_Int_Tables_number   1
_chemical_formula_structural   NdH6(C2O3)3
_chemical_formula_sum   'Nd4 H24 C24 O36'
_cell_volume   936.53288687
_cell_formula_units_Z   4
loop_
 _symmetry_equiv_pos_site_id
 _symmetry_equiv_pos_as_xyz
  1  'x, y, z'
loop_
 _atom_site_type_symbol
 _atom_site_label
 _atom_site_symmetry_multiplicity
 _atom_site_fract_x
 _atom_site_fract_y
 _atom_site_fract_z
 _atom_site_occupancy
 _atom_site_pbe_bader_spin_density
 _atom_site_pbe_cm5_charge
 _atom_site_pbe_ddec_charge
 _atom_site_pbe_ddec_spin_density
 _atom_site_pbe_ddec_sum_bond_order
 _atom_site_pbe_magmom
Nd  Nd0  1  0.13405424  0.49999904  0.20059376  1  0  1.483769  2.127506  0  2.091546  0
Nd  Nd1  1  0.86594374  0.49999933  0.79940517  1  0  1.483788  2.12751  0  2.091506  0
Nd  Nd2  1  0.63405454  0.00000036  0.29940429  1  0  1.483799  2.127526  0  2.091501  0
Nd  Nd3  1  0.36594494  0.99999898  0.70059463  1  0  1.483788  2.127495  0  2.091537  0
H  H4  1  0.22186156  0.57520156  0.98195728  1  0  0.314664  0.409815  0  0.909164  0
H  H5  1  0.77813606  0.57520188  0.01804239  1  0  0.31467  0.409794  0  0.909186  0
H  H6  1  0.72186238  0.92479704  0.51804246  1  0  0.314686  0.409809  0  0.909159  0
H  H7  1  0.27813807  0.92479748  0.48195725  1  0  0.314683  0.409817  0  0.909154  0
H  H8  1  0.77813792  0.42479585  0.01804312  1  0  0.314684  0.409812  0  0.909169  0
H  H9  1  0.22186192  0.42479553  0.98195653  1  0  0.314672  0.409794  0  0.909184  0
H  H10  1  0.27813710  0.07520230  0.48195720  1  0  0.314661  0.409814  0  0.909165  0
H  H11  1  0.72186291  0.07520283  0.51804241  1  0  0.314681  0.409793  0  0.909202  0
H  H12  1  0.21067118  0.27041867  0.35281059  1  0  0.303982  0.409599  0  0.912141  0
H  H13  1  0.78932790  0.27042006  0.64718904  1  0  0.303995  0.409603  0  0.912131  0
H  H14  1  0.71067014  0.22958155  0.14718970  1  0  0.303993  0.409593  0  0.912148  0
H  H15  1  0.28932913  0.22958107  0.85281067  1  0  0.303979  0.409569  0  0.912179  0
H  H16  1  0.78932681  0.72958067  0.64718980  1  0  0.303989  0.409605  0  0.912125  0
H  H17  1  0.21067158  0.72958122  0.35281062  1  0  0.303981  0.409577  0  0.912161  0
H  H18  1  0.28932934  0.77041876  0.85280996  1  0  0.303988  0.409588  0  0.912153  0
H  H19  1  0.71067185  0.77041924  0.14718973  1  0  0.303989  0.409597  0  0.912135  0
H  H20  1  0.97820452  0.30715680  0.35369590  1  0  0.306032  0.416884  0  0.903668  0
H  H21  1  0.02179438  0.30715681  0.64630300  1  0  0.306052  0.416885  0  0.903678  0
H  H22  1  0.47820410  0.19284288  0.14630304  1  0  0.306032  0.416876  0  0.90368  0
H  H23  1  0.52179534  0.19284291  0.85369659  1  0  0.306033  0.416883  0  0.903676  0
H  H24  1  0.02179496  0.69284351  0.64630376  1  0  0.306046  0.416898  0  0.903653  0
H  H25  1  0.97820510  0.69284253  0.35369592  1  0  0.306035  0.416893  0  0.903659  0
H  H26  1  0.52179688  0.80715646  0.85369663  1  0  0.306029  0.416875  0  0.903683  0
H  H27  1  0.47820414  0.80715643  0.14630381  1  0  0.306024  0.41686  0  0.903709  0
C  C28  1  0.03801608  0.11727452  0.04816112  1  0  0.007223  -0.050109  0  3.918756  0
C  C29  1  0.96198223  0.11727465  0.95183997  1  0  0.007242  -0.05004  0  3.918641  0
C  C30  1  0.53801481  0.38272507  0.45183983  1  0  0.007192  -0.050027  0  3.9186  0
C  C31  1  0.46198074  0.38272516  0.54816129  1  0  0.007243  -0.050094  0  3.918717  0
C  C32  1  0.96198639  0.88272482  0.95184002  1  0  0.007202  -0.050055  0  3.918621  0
C  C33  1  0.03801875  0.88272566  0.04816042  1  0  0.007257  -0.05006  0  3.918639  0
C  C34  1  0.46198318  0.61727427  0.54816130  1  0  0.007233  -0.050052  0  3.918667  0
C  C35  1  0.53801724  0.61727515  0.45183985  1  0  0.007269  -0.049999  0  3.918574  0
C  C36  1  0.07479664  0.00000090  0.09680897  1  0  0.015378  -0.057673  0  3.892003  0
C  C37  1  0.92520373  0.00000110  0.90319063  1  0  0.015397  -0.057643  0  3.891923  0
C  C38  1  0.57479772  0.49999862  0.40319126  1  0  0.01539  -0.057678  0  3.891963  0
C  C39  1  0.42520326  0.50000072  0.59680840  1  0  0.015382  -0.057694  0  3.891984  0
C  C40  1  0.07319633  0.24346633  0.09993200  1  0  0.21618  0.583237  0  4.209776  0
C  C41  1  0.92680138  0.24346750  0.90006911  1  0  0.216077  0.583112  0  4.209667  0
C  C42  1  0.57319408  0.25653222  0.40006750  1  0  0.21621  0.583177  0  4.209646  0
C  C43  1  0.42680357  0.25653335  0.59993288  1  0  0.216063  0.583026  0  4.209909  0
C  C44  1  0.92680464  0.75653398  0.90006766  1  0  0.216228  0.583259  0  4.209712  0
C  C45  1  0.07319811  0.75653282  0.09993203  1  0  0.216068  0.5831  0  4.209689  0
C  C46  1  0.42680391  0.74346712  0.59993290  1  0  0.216082  0.583015  0  4.209805  0
C  C47  1  0.57319741  0.74346696  0.40006752  1  0  0.216087  0.583072  0  4.209703  0
C  C48  1  0.12752484  0.99999989  0.20516521  1  0  0.250952  0.6784  0  4.156737  0
C  C49  1  0.87247552  0.00000114  0.79483587  1  0  0.250915  0.678319  0  4.1568  0
C  C50  1  0.62752575  0.49999855  0.29483505  1  0  0.250921  0.678362  0  4.156863  0
C  C51  1  0.37248122  0.49999982  0.70516609  1  0  0.250767  0.678189  0  4.157122  0
O  O52  1  0.24884382  0.49999988  0.02420361  1  0  -0.628928  -0.844199  0  2.074232  0
O  O53  1  0.75115716  0.49999946  0.97579605  1  0  -0.628947  -0.844201  0  2.074236  0
O  O54  1  0.74884291  0.00000123  0.47579523  1  0  -0.628962  -0.84423  0  2.074275  0
O  O55  1  0.25115657  0.00000004  0.52420370  1  0  -0.628941  -0.844225  0  2.074211  0
O  O56  1  0.11315204  0.33840646  0.33491493  1  0  -0.648383  -0.869843  0  2.031856  0
O  O57  1  0.88684671  0.33840862  0.66508251  1  0  -0.648432  -0.869883  0  2.031872  0
O  O58  1  0.61315286  0.16159299  0.16508311  1  0  -0.648408  -0.869853  0  2.031891  0
O  O59  1  0.38684524  0.16159327  0.83491651  1  0  -0.648386  -0.869833  0  2.031899  0
O  O60  1  0.88684594  0.66159288  0.66508400  1  0  -0.648397  -0.86987  0  2.031838  0
O  O61  1  0.11315576  0.66159266  0.33491642  1  0  -0.648386  -0.869842  0  2.031869  0
O  O62  1  0.38684663  0.83840636  0.83491655  1  0  -0.648389  -0.869819  0  2.031868  0
O  O63  1  0.61315274  0.83840607  0.16508388  1  0  -0.648388  -0.869829  0  2.031878  0
O  O64  1  0.24468726  0.27080039  0.13357824  1  0  -0.318688  -0.572307  0  2.235483  0
O  O65  1  0.75531032  0.27080091  0.86642213  1  0  -0.318584  -0.572191  0  2.235404  0
O  O66  1  0.74468508  0.22919977  0.36641912  1  0  -0.318689  -0.572255  0  2.235342  0
O  O67  1  0.25531270  0.22919931  0.63358051  1  0  -0.31858  -0.57212  0  2.23546  0
O  O68  1  0.75531522  0.72919896  0.86642068  1  0  -0.318706  -0.572315  0  2.235492  0
O  O69  1  0.24468916  0.72919843  0.13357900  1  0  -0.318585  -0.572189  0  2.23542  0
O  O70  1  0.25531440  0.77080151  0.63358202  1  0  -0.318608  -0.572124  0  2.235454  0
O  O71  1  0.74468678  0.77080100  0.36641915  1  0  -0.318592  -0.572161  0  2.235443  0
O  O72  1  0.92553454  0.32270468  0.10940432  1  0  -0.343526  -0.641383  0  2.270864  0
O  O73  1  0.07446429  0.32270367  0.89059606  1  0  -0.343538  -0.641362  0  2.27078  0
O  O74  1  0.42553458  0.17729608  0.39059606  1  0  -0.343548  -0.641384  0  2.27093  0
O  O75  1  0.57446494  0.17729692  0.60940356  1  0  -0.343514  -0.641329  0  2.270899  0
O  O76  1  0.07446794  0.67729563  0.89059608  1  0  -0.343536  -0.641416  0  2.270877  0
O  O77  1  0.92553669  0.67729567  0.10940361  1  0  -0.343533  -0.641374  0  2.270801  0
O  O78  1  0.57446490  0.82270423  0.60940360  1  0  -0.343547  -0.641368  0  2.270899  0
O  O79  1  0.42553454  0.82270436  0.39059610  1  0  -0.343545  -0.641377  0  2.270829  0
O  O80  1  0.30764658  0.99999996  0.23042555  1  0  -0.393218  -0.626235  0  2.337498  0
O  O81  1  0.69235202  0.99999866  0.76957491  1  0  -0.393195  -0.626221  0  2.337542  0
O  O82  1  0.80764983  0.50000128  0.26957484  1  0  -0.393214  -0.626254  0  2.33758  0
O  O83  1  0.19235265  0.49999903  0.73042776  1  0  -0.39316  -0.626207  0  2.337505  0
O  O84  1  0.97991776  0.99999929  0.26414406  1  0  -0.402962  -0.649634  0  2.215388  0
O  O85  1  0.02008172  0.00000489  0.73585486  1  0  -0.402931  -0.649592  0  2.21539  0
O  O86  1  0.47992139  0.49999676  0.23585714  1  0  -0.4029  -0.649573  0  2.215442  0
O  O87  1  0.52008258  0.50000064  0.76414326  1  0  -0.402831  -0.649414  0  2.21568  0
