# generated using pymatgen
data_V2H12C18(NO3)3
_symmetry_space_group_name_H-M   'P 1'
_cell_length_a   10.70758947
_cell_length_b   10.99247280
_cell_length_c   19.64148051
_cell_angle_alpha   104.67345422
_cell_angle_beta   89.99915033
_cell_angle_gamma   89.99979972
_symmetry_Int_Tables_number   1
_chemical_formula_structural   V2H12C18(NO3)3
_chemical_formula_sum   'V8 H48 C72 N12 O36'
_cell_volume   2236.45816597
_cell_formula_units_Z   4
loop_
 _symmetry_equiv_pos_site_id
 _symmetry_equiv_pos_as_xyz
  1  'x, y, z'
loop_
 _atom_site_type_symbol
 _atom_site_label
 _atom_site_symmetry_multiplicity
 _atom_site_fract_x
 _atom_site_fract_y
 _atom_site_fract_z
 _atom_site_occupancy
 _atom_site_pbe_bader_charge
 _atom_site_pbe_bader_spin_density
 _atom_site_pbe_cm5_charge
 _atom_site_pbe_ddec_charge
 _atom_site_pbe_ddec_spin_density
 _atom_site_pbe_ddec_sum_bond_order
 _atom_site_pbe_magmom
V  V0  1  0.34446225  0.07360215  0.80976712  1  2.052305  0.595531  1.422711  1.677579  0.626419  3.245743  0.605
V  V1  1  0.15551900  0.57363090  0.30979178  1  2.052622  -0.596829  1.422425  1.677122  -0.651008  3.245024  -0.606
V  V2  1  0.65553449  0.92637501  0.19021183  1  2.052276  0.59686  1.422434  1.677007  0.62787  3.245632  0.606
V  V3  1  0.84447961  0.42634063  0.69018230  1  2.052449  0.597086  1.422498  1.676802  0.628095  3.245933  0.606
V  V4  1  0.16469446  0.84475524  0.84215472  1  2.095719  0.476596  1.442162  1.79668  0.500337  3.210715  0.487
V  V5  1  0.33530827  0.34476930  0.34216649  1  2.096608  -0.475158  1.442197  1.796779  -0.517233  3.211272  -0.486
V  V6  1  0.83532283  0.15521153  0.15783395  1  2.096233  0.475101  1.442397  1.796881  0.498727  3.211945  0.486
V  V7  1  0.66466325  0.65516452  0.65782562  1  2.09601  0.474778  1.442303  1.796435  0.498389  3.21241  0.486
H  H8  1  0.02213909  0.25810571  0.74467414  1  0.144519  8e-05  0.124529  0.101225  9e-06  1.006613  0.0
H  H9  1  0.47787222  0.75813122  0.24466773  1  0.144582  -0.000225  0.124541  0.101218  -0.000245  1.006558  0.0
H  H10  1  0.97787820  0.74188733  0.25533203  1  0.144648  0.000228  0.124537  0.101182  0.000236  1.006718  0.0
H  H11  1  0.52212359  0.24185902  0.75533396  1  0.144724  8.5e-05  0.124523  0.101218  1.5e-05  1.006504  0.0
H  H12  1  0.72582369  0.94259352  0.61391418  1  0.101677  -7.4e-05  0.119017  0.130359  -0.000185  0.98121  0.0
H  H13  1  0.77417749  0.44257140  0.11391311  1  0.101623  -5.6e-05  0.119017  0.130344  -0.000153  0.981128  0.0
H  H14  1  0.27417306  0.05741838  0.38608349  1  0.101698  5.9e-05  0.118987  0.130328  0.000152  0.981231  0.0
H  H15  1  0.22582765  0.55742169  0.88608186  1  0.101515  -7.3e-05  0.118986  0.130385  -0.000186  0.981106  0.0
H  H16  1  0.70619126  0.17297199  0.62000320  1  0.135916  -1.3e-05  0.125915  0.102252  -2.9e-05  0.984605  0.0
H  H17  1  0.79380046  0.67297440  0.12000159  1  0.135857  -1.3e-05  0.125895  0.102275  -2.5e-05  0.984683  0.0
H  H18  1  0.29380268  0.82703332  0.37999658  1  0.135888  1.4e-05  0.12588  0.102264  1.4e-05  0.984466  0.0
H  H19  1  0.20620469  0.32701963  0.87999454  1  0.135962  -1e-05  0.125839  0.102273  -2.8e-05  0.984585  0.0
H  H20  1  0.90355671  0.87069093  0.67690517  1  0.179691  3.7e-05  0.120664  0.130029  2.6e-05  1.006099  0.0
H  H21  1  0.59644302  0.37067864  0.17689829  1  0.179504  2.2e-05  0.120698  0.130063  9.9e-05  1.00602  0.0
H  H22  1  0.09644844  0.12932564  0.32310030  1  0.179433  -2.4e-05  0.120693  0.129991  -0.000114  1.006045  0.0
H  H23  1  0.40353785  0.62933041  0.82310559  1  0.17947  3.6e-05  0.120681  0.130097  2.3e-05  1.005974  0.0
H  H24  1  0.97222585  0.10542070  0.01808398  1  0.136584  -3.3e-05  0.118134  0.084806  -5.2e-05  1.068894  0.0
H  H25  1  0.52778570  0.60541612  0.51807722  1  0.136362  -5.1e-05  0.118135  0.084721  -1.8e-05  1.068946  0.0
H  H26  1  0.02778023  0.89457427  0.98191127  1  0.136597  -3.6e-05  0.118142  0.084784  -5.5e-05  1.068811  0.0
H  H27  1  0.47220824  0.39458826  0.48191886  1  0.136362  4.9e-05  0.118161  0.084756  9e-06  1.068974  0.0
H  H28  1  0.34797542  0.24963665  0.04907805  1  0.12641  3.2e-05  0.112501  0.119258  -9e-06  1.010294  0.0
H  H29  1  0.15203565  0.74962639  0.54908016  1  0.126549  1.8e-05  0.112468  0.119228  6.2e-05  1.010379  0.0
H  H30  1  0.65201011  0.75036113  0.95092117  1  0.126296  3.1e-05  0.112434  0.119127  -1e-06  1.010277  0.0
H  H31  1  0.84797884  0.25036293  0.45091631  1  0.12639  -1.9e-05  0.11249  0.119215  -5.5e-05  1.01018  0.0
H  H32  1  0.08944052  0.27672974  0.22059660  1  0.14529  -2.2e-05  0.131573  0.111494  0.000248  0.986394  0.0
H  H33  1  0.41054149  0.77673354  0.72059661  1  0.145304  -0.000116  0.131512  0.111447  -0.000374  0.986365  0.0
H  H34  1  0.91057676  0.72327742  0.77940955  1  0.145404  -0.000116  0.131504  0.111384  -0.000374  0.986468  0.0
H  H35  1  0.58944218  0.22328209  0.27941075  1  0.145449  2.4e-05  0.131487  0.111399  -0.000247  0.986429  0.0
H  H36  1  0.30119831  0.31462422  0.17805645  1  0.113131  -0.000141  0.114099  0.123083  -3e-06  1.020966  0.0
H  H37  1  0.19880527  0.81461734  0.67806479  1  0.113349  3.3e-05  0.114082  0.123069  -0.00011  1.020966  0.0
H  H38  1  0.69879189  0.68537448  0.82194849  1  0.113159  2.8e-05  0.114142  0.12312  -0.000113  1.020981  0.0
H  H39  1  0.80119895  0.18537855  0.32193619  1  0.113366  0.000139  0.114105  0.123128  -1e-06  1.020849  0.0
H  H40  1  0.45429897  0.14408044  0.96156637  1  0.161191  -0.00023  0.121623  0.095455  -0.000167  1.059626  0.0
H  H41  1  0.04568723  0.64408005  0.46155720  1  0.160977  0.000223  0.12159  0.095356  0.000116  1.059716  0.0
H  H42  1  0.54569964  0.85591452  0.03843294  1  0.161146  -0.000228  0.121629  0.095417  -0.000166  1.059723  0.0
H  H43  1  0.95431045  0.35592527  0.53843953  1  0.160966  -0.000225  0.121595  0.095318  -0.00013  1.059793  0.0
H  H44  1  0.85350305  0.09830389  0.94362575  1  0.118339  0.000206  0.111476  0.116224  0.000163  1.019302  0.0
H  H45  1  0.64649412  0.59829235  0.44362588  1  0.118265  -1e-06  0.111491  0.116182  -7.9e-05  1.019331  0.0
H  H46  1  0.14651237  0.90168732  0.05637099  1  0.118478  0.000207  0.11149  0.116204  0.000161  1.01935  0.0
H  H47  1  0.35348208  0.40170451  0.55636912  1  0.118513  -0.0  0.111466  0.116108  6.4e-05  1.019512  0.0
H  H48  1  0.60950865  0.00875155  0.76342664  1  0.163659  -0.000483  0.121819  0.106179  -0.000747  1.021491  0.0
H  H49  1  0.89047976  0.50875888  0.26342343  1  0.163655  0.000344  0.121904  0.106295  0.000259  1.021444  0.0
H  H50  1  0.39047689  0.99125562  0.23657849  1  0.163593  -0.000335  0.121915  0.106264  -0.00026  1.021415  0.0
H  H51  1  0.10954220  0.49125956  0.73658383  1  0.163538  -0.000495  0.121959  0.106362  -0.000761  1.021359  0.0
H  H52  1  0.82388206  0.01710101  0.81364222  1  0.120942  1.6e-05  0.108184  0.115369  -7.6e-05  1.027663  0.0
H  H53  1  0.67613576  0.51711653  0.31364445  1  0.121116  6.6e-05  0.108242  0.115399  0.000128  1.027793  0.0
H  H54  1  0.17612495  0.98289206  0.18635733  1  0.12121  -7.6e-05  0.10823  0.11543  -0.000143  1.027656  0.0
H  H55  1  0.32385164  0.48288222  0.68634828  1  0.121247  2.5e-05  0.108237  0.11542  -6.6e-05  1.027875  0.0
C  C56  1  0.07771765  0.02431008  0.75894103  1  1.586262  0.004812  0.239878  0.633686  0.004931  4.115454  0.005
C  C57  1  0.42226423  0.52429835  0.25894145  1  1.588282  -0.004926  0.239929  0.633774  -0.00528  4.115323  -0.005
C  C58  1  0.92227162  0.97570650  0.24106138  1  1.586804  0.004939  0.239948  0.633841  0.005082  4.115475  0.005
C  C59  1  0.57775213  0.47570414  0.74105741  1  1.587568  0.00478  0.239803  0.633504  0.004901  4.116187  0.005
C  C60  1  0.97575130  0.05998736  0.71585613  1  -0.023773  -0.003948  -0.00929  -0.085505  -0.004051  3.94525  -0.003
C  C61  1  0.52424102  0.55997768  0.21585497  1  -0.024773  -0.000669  -0.009198  -0.085201  -0.000511  3.944991  -0.001
C  C62  1  0.02424731  0.94003018  0.28414438  1  -0.024514  0.000665  -0.00933  -0.085539  0.000439  3.945361  0.001
C  C63  1  0.47576880  0.44003515  0.78414283  1  -0.025038  -0.003932  -0.009216  -0.085152  -0.004036  3.945165  -0.003
C  C64  1  0.18215208  0.11866359  0.94518916  1  1.596084  0.00034  0.218135  0.610858  0.000158  4.177603  0.0
C  C65  1  0.31785333  0.61865453  0.44518572  1  1.595988  -0.000365  0.218274  0.61119  -0.000219  4.177827  0.0
C  C66  1  0.81783812  0.88134450  0.05482069  1  1.595517  0.000333  0.218283  0.611176  0.000151  4.177606  0.0
C  C67  1  0.68215555  0.38136015  0.55482151  1  1.596017  0.000363  0.218234  0.611078  0.000206  4.178169  0.0
C  C68  1  0.66015517  0.16904615  0.04211009  1  1.565854  0.003013  0.220319  0.598065  0.003254  4.178833  0.004
C  C69  1  0.83985736  0.66903543  0.54210860  1  1.566219  0.003082  0.220053  0.597915  0.003405  4.178723  0.003
C  C70  1  0.33982850  0.83096008  0.95789083  1  1.566568  0.003019  0.220389  0.598407  0.003262  4.178702  0.004
C  C71  1  0.16015712  0.33096421  0.45789343  1  1.56692  -0.00308  0.220367  0.598375  -0.00354  4.179112  -0.003
C  C72  1  0.95906198  0.18575066  0.71556287  1  0.474914  0.008386  0.062038  0.09722  0.007256  3.895426  0.005
C  C73  1  0.54092616  0.68574181  0.21556067  1  0.475106  0.006166  0.062004  0.097131  0.005288  3.895594  0.004
C  C74  1  0.04093570  0.81426594  0.28443649  1  0.47492  -0.006165  0.06199  0.097206  -0.005492  3.895706  -0.004
C  C75  1  0.45908646  0.31427198  0.78443421  1  0.47467  0.008327  0.062002  0.097155  0.007202  3.895726  0.005
C  C76  1  0.79399626  0.00966137  0.64276997  1  0.04918  -0.003053  -0.071792  -0.116001  -0.003033  3.93635  -0.002
C  C77  1  0.70600384  0.50965315  0.14277060  1  0.048724  -0.002619  -0.071903  -0.116079  -0.002604  3.936178  -0.002
C  C78  1  0.20600235  0.99034771  0.35722730  1  0.048995  0.00262  -0.071851  -0.116122  0.002501  3.936322  0.002
C  C79  1  0.29400318  0.49034465  0.85722454  1  0.049477  -0.003032  -0.071847  -0.115999  -0.003015  3.936364  -0.002
C  C80  1  0.78213710  0.13702483  0.64605600  1  0.424702  0.008509  0.059156  0.120296  0.007285  3.907432  0.005
C  C81  1  0.71785777  0.63701466  0.14605065  1  0.424701  0.006939  0.059122  0.120199  0.005768  3.907308  0.004
C  C82  1  0.21785870  0.86298799  0.35394638  1  0.424441  -0.006935  0.059158  0.120282  -0.005988  3.907116  -0.004
C  C83  1  0.28214924  0.36298688  0.85394808  1  0.424315  0.008446  0.059091  0.120068  0.00723  3.907435  0.005
C  C84  1  0.89208520  0.96973073  0.67831531  1  -0.059315  0.009991  -0.046966  -0.016743  0.008918  3.875022  0.006
C  C85  1  0.60791132  0.46972302  0.17831918  1  -0.05885  0.008594  -0.047042  -0.016939  0.00772  3.875113  0.005
C  C86  1  0.10791434  0.03028118  0.32167981  1  -0.058867  -0.008598  -0.046977  -0.01669  -0.008015  3.87526  -0.005
C  C87  1  0.39209196  0.53028042  0.82167524  1  -0.059053  0.009911  -0.047043  -0.017049  0.008843  3.875434  0.006
C  C88  1  0.04668647  0.15424043  0.05137511  1  0.509599  0.003541  0.053911  0.093919  0.003016  3.923729  0.002
C  C89  1  0.45331928  0.65423924  0.55136693  1  0.509442  0.003415  0.053886  0.094131  0.002933  3.923548  0.002
C  C90  1  0.95330561  0.84576391  0.94862911  1  0.509803  0.003457  0.05385  0.093997  0.002956  3.923491  0.002
C  C91  1  0.54668586  0.34576699  0.44863858  1  0.509366  -0.003507  0.053997  0.094288  -0.003116  3.923385  -0.002
C  C92  1  0.16178742  0.17362617  0.02263233  1  -0.038069  -0.001218  -0.016266  -0.088267  -0.001284  3.950856  -0.001
C  C93  1  0.33822558  0.67362771  0.52262598  1  -0.036965  -0.000848  -0.01642  -0.088628  -0.000781  3.951032  -0.001
C  C94  1  0.83820652  0.82636877  0.97737207  1  -0.037652  -0.001405  -0.016307  -0.088514  -0.001442  3.950675  -0.001
C  C95  1  0.66178237  0.32637476  0.47737543  1  -0.037722  0.000661  -0.016441  -0.088829  0.000589  3.951064  0.001
C  C96  1  0.25538759  0.23478136  0.06850523  1  -0.031876  0.00361  -0.054488  -0.03027  0.003221  3.89209  0.002
C  C97  1  0.24462301  0.73477980  0.56850887  1  -0.032524  0.003473  -0.054472  -0.030275  0.003187  3.892229  0.002
C  C98  1  0.74460542  0.76521452  0.93150033  1  -0.032211  0.003578  -0.054378  -0.029905  0.003228  3.891781  0.002
C  C99  1  0.75538401  0.26521794  0.43149950  1  -0.031881  -0.003512  -0.054476  -0.030011  -0.003302  3.891864  -0.002
C  C100  1  0.11204960  0.24908312  0.16473277  1  0.477584  0.00341  0.067523  0.131662  0.003002  3.877668  0.002
C  C101  1  0.38794898  0.74907299  0.66472995  1  0.477798  0.003054  0.067525  0.131519  0.002256  3.877581  0.002
C  C102  1  0.88794714  0.75092499  0.83527047  1  0.477568  0.003107  0.067577  0.131735  0.002305  3.877834  0.002
C  C103  1  0.61205150  0.25093135  0.33527478  1  0.477921  -0.003361  0.067598  0.131664  -0.003063  3.877793  -0.002
C  C104  1  0.22991209  0.27122896  0.14032314  1  -0.000392  -0.001137  -0.072585  -0.104624  -0.001023  3.915085  -0.001
C  C105  1  0.27008428  0.77122346  0.64032398  1  -0.000723  -0.001552  -0.072516  -0.10445  -0.001684  3.914847  -0.001
C  C106  1  0.77008746  0.72876880  0.85968065  1  -0.00026  -0.001581  -0.072613  -0.104735  -0.001704  3.915072  -0.001
C  C107  1  0.72991620  0.22877806  0.35968086  1  -0.000455  0.001113  -0.072551  -0.104742  0.000966  3.914765  0.001
C  C108  1  0.53843322  0.11791610  0.93050301  1  0.413473  0.013084  0.058693  0.096771  0.011568  3.891533  0.009
C  C109  1  0.96155023  0.61792008  0.43050079  1  0.413441  -0.012539  0.058721  0.096838  -0.011502  3.891499  -0.008
C  C110  1  0.46157380  0.88208071  0.06950166  1  0.412691  0.013147  0.058576  0.096762  0.011617  3.891791  0.009
C  C111  1  0.03843717  0.38208427  0.56950394  1  0.413063  0.012555  0.058578  0.096718  0.011101  3.891851  0.008
C  C112  1  0.65495292  0.12622556  0.96298442  1  0.07176  -0.005258  -0.010834  -0.078608  -0.005224  3.944763  -0.004
C  C113  1  0.84504083  0.62622287  0.46298778  1  0.072066  0.003158  -0.010882  -0.078602  0.002702  3.944722  0.003
C  C114  1  0.34504943  0.87377971  0.03702299  1  0.071895  -0.005223  -0.010857  -0.078861  -0.005199  3.944566  -0.004
C  C115  1  0.15494938  0.37378053  0.53701936  1  0.072233  -0.003219  -0.010881  -0.078742  -0.002898  3.944662  -0.003
C  C116  1  0.76062907  0.09196587  0.92062702  1  -0.098695  0.015617  -0.055901  -0.030026  0.014145  3.903773  0.009
C  C117  1  0.73936782  0.59195738  0.42062888  1  -0.098807  -0.01482  -0.055904  -0.030052  -0.013971  3.903688  -0.009
C  C118  1  0.23937795  0.90804035  0.07937951  1  -0.0984  0.015657  -0.055955  -0.030052  0.014164  3.904268  0.009
C  C119  1  0.26061678  0.40804696  0.57937636  1  -0.098883  0.014867  -0.055966  -0.03001  0.013532  3.904324  0.009
C  C120  1  0.62560668  0.04319556  0.81967956  1  0.448157  0.012008  0.057496  0.117889  0.010517  3.882756  0.008
C  C121  1  0.87439781  0.54320114  0.31967725  1  0.44797  -0.011712  0.057484  0.11787  -0.010811  3.882833  -0.008
C  C122  1  0.37439847  0.95679844  0.18032318  1  0.447628  0.012268  0.057424  0.117787  0.01095  3.88284  0.008
C  C123  1  0.12559520  0.45680039  0.68032606  1  0.447788  0.011526  0.057469  0.117776  0.010046  3.883007  0.008
C  C124  1  0.74472179  0.04825383  0.84827130  1  0.016788  -0.004419  -0.078964  -0.111737  -0.004231  3.946974  -0.003
C  C125  1  0.75528937  0.54825557  0.34827551  1  0.016905  0.004311  -0.07903  -0.111685  0.003904  3.947133  0.003
C  C126  1  0.25528522  0.95174393  0.15173198  1  0.016544  -0.004406  -0.078988  -0.111622  -0.004158  3.947275  -0.003
C  C127  1  0.24469990  0.45173938  0.65172584  1  0.016889  -0.004349  -0.078979  -0.111615  -0.004172  3.947772  -0.003
N  N128  1  0.86369357  0.22395537  0.68153561  1  -1.246897  0.00136  -0.364007  -0.301956  -0.001389  3.557923  -0.009
N  N129  1  0.63628508  0.72394016  0.18153173  1  -1.246442  0.001515  -0.363897  -0.301949  -0.001088  3.557755  -0.009
N  N130  1  0.13629384  0.77605841  0.31846284  1  -1.2462  -0.001521  -0.363883  -0.301931  0.000458  3.557756  0.009
N  N131  1  0.36372847  0.27607082  0.81846020  1  -1.24589  0.001341  -0.363818  -0.302034  -0.001382  3.557774  -0.009
N  N132  1  0.02139778  0.19150920  0.12046286  1  -1.269447  0.000166  -0.366584  -0.306973  -0.001617  3.541168  -0.007
N  N133  1  0.47859661  0.69149839  0.62045717  1  -1.269648  0.000112  -0.366459  -0.306799  -0.001608  3.541053  -0.007
N  N134  1  0.97859896  0.80850173  0.87954180  1  -1.269926  4.7e-05  -0.366465  -0.306938  -0.001676  3.541119  -0.007
N  N135  1  0.52140294  0.30849841  0.37955055  1  -1.270026  -0.000219  -0.36654  -0.306893  0.001106  3.540872  0.007
N  N136  1  0.52320673  0.07922484  0.86024271  1  -1.250206  0.000615  -0.369729  -0.301135  -0.00308  3.549462  -0.013
N  N137  1  0.97678999  0.57922211  0.36024245  1  -1.25023  -0.000853  -0.369913  -0.301335  0.001974  3.550012  0.013
N  N138  1  0.47680029  0.92077762  0.13976074  1  -1.249654  0.000686  -0.369744  -0.301135  -0.003059  3.5498  -0.013
N  N139  1  0.02320115  0.42077659  0.63976096  1  -1.25028  0.0008  -0.369864  -0.301131  -0.002867  3.550184  -0.013
O  O140  1  0.16706416  0.10237240  0.77763367  1  -1.151863  0.014729  -0.336918  -0.58447  0.011854  2.350757  0.005
O  O141  1  0.33291039  0.60235394  0.27760076  1  -1.152485  -0.014969  -0.33692  -0.584433  -0.01277  2.350475  -0.005
O  O142  1  0.83292231  0.89765067  0.22239461  1  -1.152273  0.01497  -0.336912  -0.584403  0.012107  2.350669  0.005
O  O143  1  0.66707421  0.39762036  0.72238796  1  -1.152088  0.014715  -0.336861  -0.584363  0.011837  2.35101  0.005
O  O144  1  0.29824943  0.92257752  0.81957760  1  -0.933624  -0.058098  -0.671528  -0.891855  -0.056415  2.079969  -0.08
O  O145  1  0.20181341  0.42256064  0.31957787  1  -0.933531  0.057989  -0.671431  -0.891813  0.052507  2.079945  0.079
O  O146  1  0.70180148  0.07744663  0.18041673  1  -0.933599  -0.058014  -0.671479  -0.891807  -0.056318  2.080021  -0.079
O  O147  1  0.79817119  0.57741836  0.68041102  1  -0.933278  -0.057988  -0.671467  -0.891655  -0.05632  2.080274  -0.079
O  O148  1  0.77433739  0.17127353  0.06735646  1  -1.145222  0.01322  -0.385024  -0.64477  0.010608  2.374624  0.002
O  O149  1  0.72566605  0.67125520  0.56735581  1  -1.145622  0.013444  -0.385012  -0.644807  0.010824  2.374683  0.002
O  O150  1  0.22567617  0.82872146  0.93263421  1  -1.145303  0.013249  -0.385202  -0.644938  0.010641  2.375087  0.002
O  O151  1  0.27431949  0.32872001  0.43264017  1  -1.14588  -0.013456  -0.38514  -0.644955  -0.011458  2.375189  -0.002
O  O152  1  0.06393682  0.91847561  0.77351841  1  -1.140787  0.007664  -0.329993  -0.583186  0.005629  2.373457  -0.001
O  O153  1  0.43609273  0.41848422  0.27352858  1  -1.141638  -0.008178  -0.329932  -0.583158  -0.006587  2.373509  0.0
O  O154  1  0.93609167  0.08152032  0.22647137  1  -1.14051  0.00817  -0.330011  -0.583227  0.006089  2.373769  0.0
O  O155  1  0.56391428  0.58152010  0.72648277  1  -1.141257  0.007649  -0.329907  -0.582944  0.005628  2.373901  -0.001
O  O156  1  0.27883989  0.15492840  0.91743527  1  -1.19243  -0.000342  -0.338647  -0.617316  -0.001495  2.357146  -0.002
O  O157  1  0.22117082  0.65492568  0.41744166  1  -1.192497  0.000153  -0.338755  -0.617399  0.001207  2.35753  0.002
O  O158  1  0.72115872  0.84507688  0.08257010  1  -1.192191  -0.000357  -0.33877  -0.617433  -0.001512  2.357636  -0.002
O  O159  1  0.77883526  0.34508527  0.58255587  1  -1.19257  -0.000151  -0.338706  -0.617265  -0.00131  2.358069  -0.002
O  O160  1  0.17449499  0.70462519  0.79205465  1  -0.750054  -0.050136  -0.560144  -0.656622  -0.049663  1.570916  -0.047
O  O161  1  0.32548347  0.20463089  0.29205868  1  -0.750749  0.050075  -0.560033  -0.656605  0.047663  1.570529  0.047
O  O162  1  0.82550082  0.29535193  0.20793448  1  -0.750766  -0.050076  -0.560169  -0.656736  -0.049586  1.570827  -0.047
O  O163  1  0.67451514  0.79532272  0.70792658  1  -0.750824  -0.04998  -0.559966  -0.656419  -0.049514  1.570346  -0.047
O  O164  1  0.10368215  0.03823988  0.91311913  1  -1.193933  -9e-05  -0.330503  -0.610683  -0.00089  2.314084  -0.001
O  O165  1  0.39632349  0.53823495  0.41311361  1  -1.194048  -0.000106  -0.330497  -0.610807  0.000647  2.314169  0.001
O  O166  1  0.89630898  0.96176540  0.08688574  1  -1.193895  -0.000135  -0.330456  -0.61071  -0.000931  2.314381  -0.001
O  O167  1  0.60368539  0.46177599  0.58688850  1  -1.194135  7e-05  -0.330473  -0.610626  -0.000703  2.314842  -0.001
O  O168  1  0.41165680  0.04321383  0.73378146  1  -0.759166  -0.064598  -0.573078  -0.654334  -0.06452  1.569036  -0.06
O  O169  1  0.08834158  0.54323561  0.23379344  1  -0.759254  0.064793  -0.572998  -0.654238  0.062227  1.568631  0.06
O  O170  1  0.58835675  0.95676047  0.26620625  1  -0.759168  -0.064791  -0.573059  -0.654228  -0.06468  1.568913  -0.06
O  O171  1  0.91163742  0.45676129  0.76618986  1  -0.759148  -0.064817  -0.573001  -0.654222  -0.064735  1.568716  -0.06
O  O172  1  0.56396959  0.19778732  0.07723660  1  -1.143866  -0.001991  -0.288284  -0.495001  -0.002251  2.110527  -0.002
O  O173  1  0.93604562  0.69778529  0.57723455  1  -1.14392  -0.000805  -0.288055  -0.494835  -0.001082  2.110223  -0.001
O  O174  1  0.43600940  0.80221418  0.92277231  1  -1.144244  -0.001989  -0.28828  -0.495149  -0.002247  2.110714  -0.002
O  O175  1  0.06397541  0.30222186  0.42277466  1  -1.144009  0.000788  -0.288205  -0.495041  0.00098  2.110679  0.001
