# generated using pymatgen
data_ErH26C30(NO3)2
_symmetry_space_group_name_H-M   'P 1'
_cell_length_a   9.36786196
_cell_length_b   13.14915821
_cell_length_c   16.31343765
_cell_angle_alpha   112.80667044
_cell_angle_beta   99.35809734
_cell_angle_gamma   91.65841421
_symmetry_Int_Tables_number   1
_chemical_formula_structural   ErH26C30(NO3)2
_chemical_formula_sum   'Er2 H52 C60 N4 O12'
_cell_volume   1818.35554244
_cell_formula_units_Z   2
loop_
 _symmetry_equiv_pos_site_id
 _symmetry_equiv_pos_as_xyz
  1  'x, y, z'
loop_
 _atom_site_type_symbol
 _atom_site_label
 _atom_site_symmetry_multiplicity
 _atom_site_fract_x
 _atom_site_fract_y
 _atom_site_fract_z
 _atom_site_occupancy
 _atom_site_hle17_bader_spin_density
 _atom_site_hle17_ddec_charge
 _atom_site_hle17_ddec_spin_density
 _atom_site_hle17_ddec_sum_bond_order
 _atom_site_hle17_magmom
 _atom_site_hse06_10hf_bader_spin_density
 _atom_site_hse06_10hf_ddec_charge
 _atom_site_hse06_10hf_ddec_spin_density
 _atom_site_hse06_10hf_ddec_sum_bond_order
 _atom_site_hse06_10hf_magmom
 _atom_site_hse06_bader_spin_density
 _atom_site_hse06_ddec_charge
 _atom_site_hse06_ddec_spin_density
 _atom_site_hse06_ddec_sum_bond_order
 _atom_site_hse06_magmom
 _atom_site_pbe_bader_spin_density
 _atom_site_pbe_cm5_charge
 _atom_site_pbe_ddec_charge
 _atom_site_pbe_ddec_spin_density
 _atom_site_pbe_ddec_sum_bond_order
 _atom_site_pbe_magmom
Er  Er0  1  0.08584449  0.46098796  0.15726203  1  0  2.115748  0  1.753917  0  0  1.945514  0  2.271217  0  0  2.000469  0  2.225778  0  0  1.536313  1.90496  0  2.305881  0
Er  Er1  1  0.91415833  0.53901047  0.84273460  1  0  2.11568  0  1.754137  0  0  1.945355  0  2.271611  0  0  2.000256  0  2.22619  0  0  1.53632  1.904759  0  2.306313  0
H  H2  1  0.35854490  0.23418752  0.96012831  1  0  0.120193  0  0.924993  0  0  0.145571  0  0.976875  0  0  0.147363  0  0.976142  0  0  0.098695  0.144249  0  0.977447  0
H  H3  1  0.64145159  0.76581262  0.03987127  1  0  0.120197  0  0.924927  0  0  0.145572  0  0.976808  0  0  0.147361  0  0.97608  0  0  0.098677  0.144254  0  0.977375  0
H  H4  1  0.39502349  0.22337369  0.85402073  1  0  0.093114  0  0.967384  0  0  0.112333  0  1.032531  0  0  0.113603  0  1.032816  0  0  0.082828  0.111479  0  1.032262  0
H  H5  1  0.60497920  0.77663311  0.14598765  1  0  0.093151  0  0.967309  0  0  0.112308  0  1.03251  0  0  0.113581  0  1.032795  0  0  0.082798  0.111456  0  1.03224  0
H  H6  1  0.23345155  0.27662049  0.88965259  1  0  0.102486  0  0.968872  0  0  0.12405  0  1.030413  0  0  0.12519  0  1.030612  0  0  0.089762  0.123154  0  1.030365  0
H  H7  1  0.76655767  0.72338627  0.11035459  1  0  0.102457  0  0.968822  0  0  0.124009  0  1.03038  0  0  0.125146  0  1.030583  0  0  0.08973  0.123105  0  1.030341  0
H  H8  1  0.32635050  0.73288248  0.00618859  1  0  0.121522  0  0.925296  0  0  0.14812  0  0.975587  0  0  0.149968  0  0.974812  0  0  0.099179  0.146812  0  0.976122  0
H  H9  1  0.67365694  0.26711844  0.99381110  1  0  0.121499  0  0.925288  0  0  0.148107  0  0.975567  0  0  0.149956  0  0.974794  0  0  0.09919  0.146794  0  0.976105  0
H  H10  1  0.37669239  0.75252186  0.12109785  1  0  0.09028  0  0.967721  0  0  0.110115  0  1.03358  0  0  0.111205  0  1.034091  0  0  0.083029  0.109354  0  1.033229  0
H  H11  1  0.62331240  0.24748321  0.87890224  1  0  0.090255  0  0.967686  0  0  0.11008  0  1.033568  0  0  0.111171  0  1.034076  0  0  0.083009  0.109315  0  1.03322  0
H  H12  1  0.21779145  0.66566166  0.05240110  1  0  0.109458  0  0.959949  0  0  0.127768  0  1.02626  0  0  0.129525  0  1.025792  0  0  0.097055  0.126438  0  1.026694  0
H  H13  1  0.78221548  0.33434341  0.94760043  1  0  0.1095  0  0.959856  0  0  0.127766  0  1.026218  0  0  0.129519  0  1.025754  0  0  0.097082  0.126435  0  1.026649  0
H  H14  1  0.11742325  0.19622643  0.22124354  1  0  0.122687  0  0.949357  0  0  0.14383  0  1.005579  0  0  0.145991  0  1.004778  0  0  0.09853  0.142194  0  1.006268  0
H  H15  1  0.88256463  0.80377547  0.77876553  1  0  0.122852  0  0.949034  0  0  0.143975  0  1.00529  0  0  0.146115  0  1.004512  0  0  0.09863  0.14234  0  1.00598  0
H  H16  1  0.19372927  0.07344423  0.21863540  1  0  0.097767  0  0.939956  0  0  0.119263  0  0.998919  0  0  0.120721  0  0.998723  0  0  0.088005  0.118277  0  0.999003  0
H  H17  1  0.80625703  0.92655350  0.78136794  1  0  0.097735  0  0.939888  0  0  0.119262  0  0.998827  0  0  0.120716  0  0.998631  0  0  0.087998  0.118266  0  0.998919  0
H  H18  1  0.01102390  0.08933838  0.23156214  1  0  0.091344  0  0.949938  0  0  0.111544  0  1.01279  0  0  0.112829  0  1.01256  0  0  0.084871  0.110666  0  1.012907  0
H  H19  1  0.98896637  0.91065685  0.76844144  1  0  0.091194  0  0.949892  0  0  0.1114  0  1.012764  0  0  0.112684  0  1.012532  0  0  0.084797  0.110521  0  1.012884  0
H  H20  1  0.99269194  0.22227628  0.93327802  1  0  0.112963  0  0.962766  0  0  0.132183  0  1.025246  0  0  0.13428  0  1.024568  0  0  0.096294  0.130584  0  1.025842  0
H  H21  1  0.00731118  0.77772553  0.06672764  1  0  0.112996  0  0.962733  0  0  0.13219  0  1.025232  0  0  0.134296  0  1.024542  0  0  0.096314  0.130592  0  1.025826  0
H  H22  1  0.84883214  0.12384306  0.85681435  1  0  0.098567  0  0.950787  0  0  0.120808  0  1.010864  0  0  0.121826  0  1.011674  0  0  0.087608  0.120075  0  1.010316  0
H  H23  1  0.15116652  0.87615706  0.14318483  1  0  0.098576  0  0.950694  0  0  0.120806  0  1.010783  0  0  0.121825  0  1.011594  0  0  0.087596  0.120073  0  1.010236  0
H  H24  1  0.02931275  0.10734029  0.83985154  1  0  0.089995  0  0.959637  0  0  0.110659  0  1.023475  0  0  0.111554  0  1.024006  0  0  0.084293  0.11006  0  1.023064  0
H  H25  1  0.97069576  0.89266063  0.16014887  1  0  0.089998  0  0.959685  0  0  0.110636  0  1.02354  0  0  0.111533  0  1.024071  0  0  0.08429  0.110041  0  1.023126  0
H  H26  1  0.87290039  0.31759731  0.27515370  1  0  0.120586  0  0.958656  0  0  0.140149  0  1.01948  0  0  0.14231  0  1.018654  0  0  0.096855  0.138512  0  1.020155  0
H  H27  1  0.12709130  0.68239954  0.72484561  1  0  0.120651  0  0.958533  0  0  0.140193  0  1.01938  0  0  0.142353  0  1.018555  0  0  0.096905  0.138557  0  1.020061  0
H  H28  1  0.73103084  0.30989702  0.33318120  1  0  0.105237  0  0.934147  0  0  0.12801  0  0.989913  0  0  0.129538  0  0.989812  0  0  0.092075  0.126953  0  0.989948  0
H  H29  1  0.26896315  0.69010063  0.66681676  1  0  0.105283  0  0.934153  0  0  0.12807  0  0.9899  0  0  0.129592  0  0.989805  0  0  0.092077  0.12701  0  0.989939  0
H  H30  1  0.88211944  0.23371064  0.33812668  1  0  0.093133  0  0.952635  0  0  0.113113  0  1.015515  0  0  0.114265  0  1.015336  0  0  0.085732  0.112296  0  1.01563  0
H  H31  1  0.11786897  0.76628535  0.66186775  1  0  0.093184  0  0.952589  0  0  0.113165  0  1.015463  0  0  0.114315  0  1.015285  0  0  0.085762  0.112348  0  1.015577  0
H  H32  1  0.31139089  0.64847453  0.49689307  1  0  0.111177  0  0.925818  0  0  0.13433  0  0.979962  0  0  0.136132  0  0.979439  0  0  0.095117  0.133053  0  0.980328  0
H  H33  1  0.68861151  0.35152056  0.50310004  1  0  0.111169  0  0.925785  0  0  0.134283  0  0.979985  0  0  0.136085  0  0.979463  0  0  0.095093  0.133004  0  0.980354  0
H  H34  1  0.18758125  0.74897676  0.53115066  1  0  0.090979  0  0.959087  0  0  0.11137  0  1.021141  0  0  0.112802  0  1.020739  0  0  0.083504  0.11038  0  1.021371  0
H  H35  1  0.81241204  0.25101592  0.46884631  1  0  0.090934  0  0.959131  0  0  0.111329  0  1.021173  0  0  0.112764  0  1.020768  0  0  0.08347  0.110333  0  1.02141  0
H  H36  1  0.17485773  0.66338229  0.41478297  1  0  0.102063  0  0.979646  0  0  0.119787  0  1.045264  0  0  0.120809  0  1.046541  0  0  0.086772  0.118942  0  1.044518  0
H  H37  1  0.82513368  0.33661204  0.58521186  1  0  0.102097  0  0.979695  0  0  0.119832  0  1.04529  0  0  0.120852  0  1.046572  0  0  0.086811  0.118989  0  1.044544  0
H  H38  1  0.40786777  0.36134872  0.13855093  1  0  0.097611  0  0.933251  0  0  0.107277  0  0.991655  0  0  0.110378  0  0.988182  0  0  0.130591  0.104911  0  0.994269  0
H  H39  1  0.59214433  0.63865555  0.86145700  1  0  0.097609  0  0.933387  0  0  0.107309  0  0.991764  0  0  0.110419  0  0.988277  0  0  0.130592  0.104937  0  0.994372  0
H  H40  1  0.67900302  0.41626100  0.18943544  1  0  0.126785  0  0.921895  0  0  0.138619  0  0.973921  0  0  0.14191  0  0.973094  0  0  0.124454  0.136228  0  0.974689  0
H  H41  1  0.32100843  0.58374572  0.81056828  1  0  0.126801  0  0.921794  0  0  0.138578  0  0.97388  0  0  0.14187  0  0.973052  0  0  0.124452  0.136191  0  0.974647  0
H  H42  1  0.76816233  0.61051970  0.28609359  1  0  0.117786  0  0.959529  0  0  0.126069  0  1.02248  0  0  0.129974  0  1.018883  0  0  0.11254  0.123142  0  1.025235  0
H  H43  1  0.23185124  0.38948616  0.71390701  1  0  0.117799  0  0.959685  0  0  0.126094  0  1.022611  0  0  0.129997  0  1.019009  0  0  0.112548  0.12317  0  1.025363  0
H  H44  1  0.70843246  0.80928991  0.36289004  1  0  0.094384  0  0.937197  0  0  0.108472  0  0.990736  0  0  0.111142  0  0.989944  0  0  0.105998  0.106558  0  0.991352  0
H  H45  1  0.29156837  0.19071853  0.63711559  1  0  0.094413  0  0.937154  0  0  0.108534  0  0.990648  0  0  0.111209  0  0.98985  0  0  0.106024  0.106622  0  0.991263  0
H  H46  1  0.52441008  0.94383182  0.40181205  1  0  0.094468  0  0.946106  0  0  0.106903  0  1.002694  0  0  0.109794  0  1.002039  0  0  0.10298  0.104859  0  1.003171  0
H  H47  1  0.47559321  0.05617825  0.59819065  1  0  0.094476  0  0.946178  0  0  0.10689  0  1.002784  0  0  0.109779  0  1.002133  0  0  0.102988  0.104845  0  1.003261  0
H  H48  1  0.26064148  0.98017882  0.39314681  1  0  0.097114  0  0.925983  0  0  0.112219  0  0.976957  0  0  0.114999  0  0.975375  0  0  0.112739  0.110174  0  0.978134  0
H  H49  1  0.73935735  0.01983044  0.60685642  1  0  0.097115  0  0.926044  0  0  0.112225  0  0.976998  0  0  0.114992  0  0.975436  0  0  0.11273  0.110163  0  0.978197  0
H  H50  1  0.99789637  0.90414745  0.33480790  1  0  0.100221  0  0.937407  0  0  0.113203  0  0.988796  0  0  0.116497  0  0.988124  0  0  0.110164  0.11088  0  0.989377  0
H  H51  1  0.00209405  0.09584772  0.66518832  1  0  0.100211  0  0.937445  0  0  0.113182  0  0.98884  0  0  0.116455  0  0.988191  0  0  0.11013  0.110836  0  0.989446  0
H  H52  1  0.93801019  0.70080540  0.23698063  1  0  0.086268  0  0.942811  0  0  0.092915  0  1.009069  0  0  0.095838  0  1.006142  0  0  0.125947  0.09079  0  1.011143  0
H  H53  1  0.06200233  0.29918643  0.76302414  1  0  0.086332  0  0.94275  0  0  0.09298  0  1.009  0  0  0.095908  0  1.006071  0  0  0.125963  0.090859  0  1.011072  0
C  C54  1  0.18640839  0.46675387  0.96545023  1  0  0.751647  0  3.847616  0  0  0.708139  0  4.131067  0  0  0.743952  0  4.117766  0  0  0.243104  0.683557  0  4.139591  0
C  C55  1  0.81358800  0.53324456  0.03454269  1  0  0.751908  0  3.847393  0  0  0.708413  0  4.130755  0  0  0.744255  0  4.117447  0  0  0.2433  0.683852  0  4.139244  0
C  C56  1  0.34992964  0.48438988  0.98348116  1  0  -0.172362  0  3.727461  0  0  -0.1677  0  3.971481  0  0  -0.173682  0  3.991796  0  0  -0.020222  -0.16403  0  3.958145  0
C  C57  1  0.65006309  0.51561442  0.01651994  1  0  -0.172604  0  3.727758  0  0  -0.167849  0  3.971727  0  0  -0.17386  0  3.992081  0  0  -0.020297  -0.164159  0  3.958369  0
C  C58  1  0.42807201  0.39100767  0.95700806  1  0  0.068122  0  3.722137  0  0  0.077745  0  3.972415  0  0  0.077689  0  3.997091  0  0  -0.014787  0.077846  0  3.955701  0
C  C59  1  0.57192317  0.60899169  0.04299667  1  0  0.068327  0  3.721981  0  0  0.077827  0  3.972335  0  0  0.077786  0  3.997021  0  0  -0.014731  0.077923  0  3.955623  0
C  C60  1  0.34984360  0.27574910  0.91274091  1  0  -0.321147  0  3.730519  0  0  -0.399889  0  3.96701  0  0  -0.40212  0  3.976795  0  0  -0.240334  -0.398096  0  3.960204  0
C  C61  1  0.65015893  0.72425602  0.08726387  1  0  -0.321194  0  3.730041  0  0  -0.399843  0  3.966579  0  0  -0.402073  0  3.976374  0  0  -0.240262  -0.398046  0  3.959777  0
C  C62  1  0.41892478  0.59302276  0.02621820  1  0  0.071305  0  3.721948  0  0  0.07923  0  3.973262  0  0  0.079549  0  3.997557  0  0  -0.0142  0.079079  0  3.95681  0
C  C63  1  0.58107206  0.40697987  0.97378218  1  0  0.071416  0  3.721908  0  0  0.079272  0  3.97319  0  0  0.079609  0  3.997496  0  0  -0.014192  0.079122  0  3.95673  0
C  C64  1  0.33067734  0.69056578  0.05289351  1  0  -0.321467  0  3.726282  0  0  -0.402291  0  3.96882  0  0  -0.404856  0  3.978561  0  0  -0.238467  -0.4003  0  3.962046  0
C  C65  1  0.66932613  0.30943764  0.94710655  1  0  -0.321447  0  3.7261  0  0  -0.402233  0  3.968666  0  0  -0.404798  0  3.978405  0  0  -0.238484  -0.400235  0  3.961891  0
C  C66  1  0.05015281  0.23764917  0.08774076  1  0  0.660039  0  3.928431  0  0  0.618203  0  4.218379  0  0  0.651463  0  4.210221  0  0  0.19034  0.595584  0  4.223246  0
C  C67  1  0.94984286  0.76235174  0.91225162  1  0  0.660128  0  3.928123  0  0  0.618215  0  4.218138  0  0  0.65151  0  4.209949  0  0  0.190362  0.595584  0  4.22302  0
C  C68  1  0.02492605  0.11400622  0.04243897  1  0  -0.142428  0  3.72314  0  0  -0.135746  0  3.967269  0  0  -0.140865  0  3.98646  0  0  -0.018575  -0.13272  0  3.954732  0
C  C69  1  0.97507076  0.88598896  0.95756281  1  0  -0.142782  0  3.723479  0  0  -0.13604  0  3.967575  0  0  -0.141185  0  3.986775  0  0  -0.018679  -0.132946  0  3.954944  0
C  C70  1  0.04566315  0.05134191  0.09535688  1  0  0.068422  0  3.725333  0  0  0.080849  0  3.97021  0  0  0.080816  0  3.994786  0  0  -0.013114  0.080894  0  3.953575  0
C  C71  1  0.95431990  0.94865496  0.90464097  1  0  0.068562  0  3.725506  0  0  0.081002  0  3.970315  0  0  0.08097  0  3.994904  0  0  -0.013028  0.08103  0  3.953654  0
C  C72  1  0.09435471  0.10605122  0.19660632  1  0  -0.314759  0  3.735636  0  0  -0.389434  0  3.970293  0  0  -0.391751  0  3.979707  0  0  -0.235345  -0.38765  0  3.963728  0
C  C73  1  0.90563168  0.89394735  0.80339852  1  0  -0.314741  0  3.735364  0  0  -0.38944  0  3.970026  0  0  -0.391731  0  3.979457  0  0  -0.23537  -0.387646  0  3.963473  0
C  C74  1  0.98036894  0.06483003  0.94796082  1  0  0.077847  0  3.712283  0  0  0.08214  0  3.96459  0  0  0.08232  0  3.988852  0  0  -0.012898  0.082007  0  3.948185  0
C  C75  1  0.01962733  0.93516845  0.05203823  1  0  0.078123  0  3.712329  0  0  0.082391  0  3.964636  0  0  0.082586  0  3.98889  0  0  -0.012831  0.082249  0  3.948206  0
C  C76  1  0.96200225  0.13365864  0.89243840  1  0  -0.320721  0  3.73695  0  0  -0.396931  0  3.978928  0  0  -0.399845  0  3.989879  0  0  -0.23932  -0.394687  0  3.971388  0
C  C77  1  0.03799739  0.86634064  0.10756001  1  0  -0.320788  0  3.736999  0  0  -0.396937  0  3.978989  0  0  -0.39986  0  3.98993  0  0  -0.239304  -0.394692  0  3.971453  0
C  C78  1  0.04719812  0.48044765  0.32484289  1  0  0.658333  0  3.936444  0  0  0.615645  0  4.229067  0  0  0.648961  0  4.220589  0  0  0.189106  0.59302  0  4.234052  0
C  C79  1  0.95280085  0.51954666  0.67515331  1  0  0.658249  0  3.936457  0  0  0.615509  0  4.229106  0  0  0.648844  0  4.220615  0  0  0.18908  0.592899  0  4.234084  0
C  C80  1  0.02264693  0.48960326  0.41577922  1  0  -0.142349  0  3.719003  0  0  -0.137188  0  3.962444  0  0  -0.14217  0  3.981497  0  0  -0.020372  -0.134177  0  3.949909  0
C  C81  1  0.97733130  0.51038944  0.58421258  1  0  -0.142376  0  3.718831  0  0  -0.137098  0  3.962106  0  0  -0.142103  0  3.981188  0  0  -0.020408  -0.134086  0  3.949567  0
C  C82  1  0.92681272  0.40932889  0.42133227  1  0  0.072143  0  3.722895  0  0  0.081862  0  3.969034  0  0  0.081866  0  3.993736  0  0  -0.013391  0.081792  0  3.952374  0
C  C83  1  0.07320111  0.59065627  0.57866752  1  0  0.072013  0  3.722356  0  0  0.08169  0  3.968545  0  0  0.081693  0  3.993258  0  0  -0.013413  0.081623  0  3.951881  0
C  C84  1  0.84969890  0.31333835  0.33752777  1  0  -0.32255  0  3.737186  0  0  -0.398621  0  3.974311  0  0  -0.401049  0  3.983925  0  0  -0.237077  -0.396717  0  3.96764  0
C  C85  1  0.15029857  0.68666095  0.66247104  1  0  -0.322712  0  3.736989  0  0  -0.39878  0  3.974142  0  0  -0.401195  0  3.983757  0  0  -0.237179  -0.396874  0  3.967478  0
C  C86  1  0.09565327  0.58012153  0.49265091  1  0  0.067649  0  3.722248  0  0  0.077648  0  3.967903  0  0  0.077594  0  3.99234  0  0  -0.0152  0.077681  0  3.95138  0
C  C87  1  0.90434913  0.41986612  0.50734236  1  0  0.067622  0  3.722697  0  0  0.077651  0  3.968186  0  0  0.0776  0  3.992631  0  0  -0.015171  0.077681  0  3.951666  0
C  C88  1  0.19700694  0.66450551  0.48322707  1  0  -0.319202  0  3.747606  0  0  -0.39574  0  3.986866  0  0  -0.397935  0  3.996189  0  0  -0.240879  -0.393985  0  3.980375  0
C  C89  1  0.80299472  0.33548463  0.51676689  1  0  -0.319142  0  3.747722  0  0  -0.39569  0  3.986953  0  0  -0.397889  0  3.996281  0  0  -0.240862  -0.393932  0  3.980468  0
C  C90  1  0.45149776  0.44728243  0.17955388  1  0  0.174512  0  3.659503  0  0  0.142164  0  3.919064  0  0  0.151289  0  3.933223  0  0  0.077912  0.136303  0  3.909205  0
C  C91  1  0.54850626  0.55272602  0.82045453  1  0  0.1746  0  3.659319  0  0  0.142191  0  3.918901  0  0  0.151323  0  3.93305  0  0  0.077913  0.13635  0  3.909031  0
C  C92  1  0.60195994  0.47787757  0.20870224  1  0  -0.084477  0  3.670055  0  0  -0.100462  0  3.927013  0  0  -0.106791  0  3.946921  0  0  -0.062796  -0.096481  0  3.913673  0
C  C93  1  0.39804416  0.52212253  0.79129625  1  0  -0.084541  0  3.669975  0  0  -0.100458  0  3.926963  0  0  -0.106795  0  3.94687  0  0  -0.062856  -0.096484  0  3.913628  0
C  C94  1  0.65158345  0.58745398  0.26195129  1  0  -0.02913  0  3.640158  0  0  -0.055423  0  3.888619  0  0  -0.053085  0  3.905588  0  0  -0.053529  -0.056747  0  3.877158  0
C  C95  1  0.34843117  0.41254445  0.73805081  1  0  -0.029153  0  3.640456  0  0  -0.055429  0  3.888925  0  0  -0.053094  0  3.905892  0  0  -0.053481  -0.056764  0  3.877478  0
C  C96  1  0.55031065  0.66645475  0.28483618  1  0  0.024299  0  3.788081  0  0  0.041763  0  4.016652  0  0  0.038185  0  4.042446  0  0  0.000275  0.043936  0  3.999277  0
C  C97  1  0.44970567  0.33354779  0.71516490  1  0  0.024345  0  3.7884  0  0  0.041712  0  4.017081  0  0  0.038125  0  4.042881  0  0  0.000197  0.043865  0  3.999715  0
C  C98  1  0.59249708  0.78194968  0.33890700  1  0  -0.093985  0  3.77312  0  0  -0.115703  0  4.025104  0  0  -0.117754  0  4.048479  0  0  -0.081543  -0.114223  0  4.009167  0
C  C99  1  0.40750718  0.21805298  0.66110149  1  0  -0.094094  0  3.773304  0  0  -0.115802  0  4.025281  0  0  -0.117864  0  4.048666  0  0  -0.081582  -0.114331  0  4.009355  0
C  C100  1  0.49123231  0.85598820  0.36066841  1  0  -0.129023  0  3.795941  0  0  -0.152756  0  4.051844  0  0  -0.157134  0  4.075944  0  0  -0.095091  -0.149751  0  4.035452  0
C  C101  1  0.50876868  0.14401361  0.63933520  1  0  -0.12898  0  3.795788  0  0  -0.152705  0  4.051655  0  0  -0.157077  0  4.075757  0  0  -0.095139  -0.149693  0  4.035264  0
C  C102  1  0.33913521  0.81995850  0.32983861  1  0  0.028168  0  3.800896  0  0  0.044541  0  4.033927  0  0  0.041735  0  4.05888  0  0  -0.00208  0.046153  0  4.017121  0
C  C103  1  0.66087107  0.18004245  0.67016526  1  0  0.028134  0  3.801047  0  0  0.044568  0  4.034019  0  0  0.041765  0  4.058969  0  0  -0.00205  0.046183  0  4.01721  0
C  C104  1  0.22960941  0.89213769  0.35155917  1  0  -0.050873  0  3.712504  0  0  -0.075094  0  3.958168  0  0  -0.072582  0  3.976693  0  0  -0.061598  -0.076423  0  3.945403  0
C  C105  1  0.77039130  0.10786905  0.64844041  1  0  -0.050944  0  3.712677  0  0  -0.075151  0  3.958282  0  0  -0.072647  0  3.976823  0  0  -0.061569  -0.076479  0  3.945521  0
C  C106  1  0.08495600  0.85058601  0.31951018  1  0  -0.126437  0  3.764826  0  0  -0.139668  0  4.02047  0  0  -0.146992  0  4.041833  0  0  -0.082226  -0.135009  0  4.005966  0
C  C107  1  0.91504652  0.14941824  0.68048881  1  0  -0.126308  0  3.764754  0  0  -0.139537  0  4.020375  0  0  -0.146832  0  4.041741  0  0  -0.082172  -0.134851  0  4.005868  0
C  C108  1  0.05031663  0.73713725  0.26475310  1  0  0.166682  0  3.696481  0  0  0.135505  0  3.957165  0  0  0.144488  0  3.971224  0  0  0.067785  0.129628  0  3.947482  0
C  C109  1  0.94969028  0.26286783  0.73524905  1  0  0.166561  0  3.696534  0  0  0.135374  0  3.957215  0  0  0.144358  0  3.971255  0  0  0.067742  0.129496  0  3.947523  0
C  C110  1  0.29354745  0.70605753  0.27483082  1  0  0.149833  0  3.74052  0  0  0.143404  0  3.981887  0  0  0.148525  0  4.001912  0  0  0.128476  0.140068  0  3.968281  0
C  C111  1  0.70644635  0.29393932  0.72517055  1  0  0.149978  0  3.740642  0  0  0.143413  0  3.982132  0  0  0.148541  0  4.002144  0  0  0.128455  0.140072  0  3.968516  0
C  C112  1  0.40047352  0.62811469  0.25207526  1  0  0.147567  0  3.749312  0  0  0.143604  0  3.985485  0  0  0.147743  0  4.007003  0  0  0.127023  0.140888  0  3.970888  0
C  C113  1  0.59953317  0.37188961  0.74793214  1  0  0.147324  0  3.748894  0  0  0.143455  0  3.985061  0  0  0.147593  0  4.00658  0  0  0.126926  0.140773  0  3.970433  0
N  N114  1  0.35296679  0.51993313  0.20054749  1  0  -0.433708  0  3.253998  0  0  -0.381762  0  3.522371  0  0  -0.398114  0  3.540851  0  0  -0.376776  -0.370651  0  3.509637  0
N  N115  1  0.64705101  0.48008021  0.79945828  1  0  -0.433592  0  3.253375  0  0  -0.381636  0  3.521749  0  0  -0.397976  0  3.540229  0  0  -0.376632  -0.370523  0  3.509014  0
N  N116  1  0.15103027  0.66691922  0.24282240  1  0  -0.43192  0  3.242519  0  0  -0.380791  0  3.51298  0  0  -0.39576  0  3.529591  0  0  -0.373259  -0.370723  0  3.501694  0
N  N117  1  0.84895869  0.33307261  0.75716897  1  0  -0.431892  0  3.242568  0  0  -0.380736  0  3.513083  0  0  -0.395678  0  3.529666  0  0  -0.373204  -0.370648  0  3.501782  0
O  O118  1  0.12591242  0.44419080  0.02135128  1  0  -0.745328  0  2.083559  0  0  -0.694216  0  2.353562  0  0  -0.721106  0  2.34226  0  0  -0.409538  -0.67483  0  2.360715  0
O  O119  1  0.87406714  0.55580268  0.97863413  1  0  -0.745443  0  2.083627  0  0  -0.694254  0  2.35353  0  0  -0.721155  0  2.342224  0  0  -0.409704  -0.674892  0  2.360692  0
O  O120  1  0.11810389  0.47332267  0.89407259  1  0  -0.71887  0  2.036446  0  0  -0.666985  0  2.297713  0  0  -0.69351  0  2.28704  0  0  -0.392114  -0.647905  0  2.304446  0
O  O121  1  0.88190378  0.52667071  0.10591622  1  0  -0.718883  0  2.03615  0  0  -0.667146  0  2.297628  0  0  -0.693617  0  2.286808  0  0  -0.392128  -0.648053  0  2.304335  0
O  O122  1  0.17772837  0.28615358  0.10377811  1  0  -0.682788  0  1.959892  0  0  -0.638716  0  2.195857  0  0  -0.663433  0  2.186998  0  0  -0.38168  -0.621103  0  2.201341  0
O  O123  1  0.82226581  0.71384399  0.89621064  1  0  -0.682767  0  1.959628  0  0  -0.638684  0  2.195676  0  0  -0.663424  0  2.186808  0  0  -0.38168  -0.621087  0  2.201181  0
O  O124  1  0.94206958  0.29401438  0.10867391  1  0  -0.697571  0  1.918561  0  0  -0.651727  0  2.153372  0  0  -0.676676  0  2.144893  0  0  -0.397696  -0.634122  0  2.158656  0
O  O125  1  0.05793413  0.70599069  0.89132607  1  0  -0.697546  0  1.918372  0  0  -0.651646  0  2.153147  0  0  -0.676582  0  2.144655  0  0  -0.397658  -0.634026  0  2.158457  0
O  O126  1  0.95371150  0.51426515  0.27718161  1  0  -0.702507  0  2.008494  0  0  -0.655746  0  2.256329  0  0  -0.681726  0  2.24877  0  0  -0.382424  -0.637238  0  2.260863  0
O  O127  1  0.04628894  0.48573250  0.72281944  1  0  -0.70254  0  2.008359  0  0  -0.655771  0  2.256276  0  0  -0.681772  0  2.248706  0  0  -0.382476  -0.637291  0  2.260812  0
O  O128  1  0.16066864  0.44081954  0.29569511  1  0  -0.687003  0  1.918899  0  0  -0.644055  0  2.144447  0  0  -0.668195  0  2.136483  0  0  -0.389447  -0.626882  0  2.149354  0
O  O129  1  0.83933158  0.55917557  0.70429901  1  0  -0.686883  0  1.919032  0  0  -0.643943  0  2.144599  0  0  -0.668055  0  2.13663  0  0  -0.389383  -0.626741  0  2.14951  0
