# generated using pymatgen
data_Zn8H42C70I3N3O26
_symmetry_space_group_name_H-M   'P 1'
_cell_length_a   18.34274512
_cell_length_b   18.26112468
_cell_length_c   18.23762792
_cell_angle_alpha   89.40014448
_cell_angle_beta   60.01413240
_cell_angle_gamma   59.83541414
_symmetry_Int_Tables_number   1
_chemical_formula_structural   Zn8H42C70I3N3O26
_chemical_formula_sum   'Zn8 H42 C70 I3 N3 O26'
_cell_volume   4331.99859840
_cell_formula_units_Z   1
loop_
 _symmetry_equiv_pos_site_id
 _symmetry_equiv_pos_as_xyz
  1  'x, y, z'
loop_
 _atom_site_type_symbol
 _atom_site_label
 _atom_site_symmetry_multiplicity
 _atom_site_fract_x
 _atom_site_fract_y
 _atom_site_fract_z
 _atom_site_occupancy
 _atom_site_pbe_bader_charge
 _atom_site_pbe_bader_spin_density
 _atom_site_pbe_cm5_charge
 _atom_site_pbe_ddec_charge
 _atom_site_pbe_ddec_spin_density
 _atom_site_pbe_ddec_sum_bond_order
 _atom_site_pbe_magmom
Zn  Zn0  1  0.90541294  0.95778941  0.55286845  1  1.317893  0  0.667395  0.967598  0  2.378884  0
Zn  Zn1  1  0.91667355  0.12671004  0.53270500  1  1.304207  0  0.666295  0.957994  0  2.377574  0
Zn  Zn2  1  0.08608722  0.94486907  0.36722731  1  1.319516  0  0.667246  0.976528  0  2.374421  0
Zn  Zn3  1  0.08524872  0.95635192  0.54191469  1  1.308106  0  0.66854  0.954159  0  2.393136  0
Zn  Zn4  1  0.08563661  0.54266876  0.96224588  1  1.308131  0  0.674059  0.962879  0  2.360496  0
Zn  Zn5  1  0.90554434  0.54314956  0.13129569  1  1.302502  0  0.675489  0.960848  0  2.34116  0
Zn  Zn6  1  0.08728950  0.36832543  0.95265765  1  1.308638  0  0.675665  0.966709  0  2.387247  0
Zn  Zn7  1  0.91408444  0.54303340  0.95310726  1  1.317751  0  0.670217  0.963381  0  2.394433  0
H  H8  1  0.07382083  0.83737849  0.74862630  1  0.036694  0  0.093225  0.093781  0  0.976145  0
H  H9  1  0.39961204  0.72714542  0.21848480  1  0.075821  0  0.106456  0.117642  0  1.00231  0
H  H10  1  0.16013333  0.74209226  0.65371916  1  0.045516  0  0.093428  0.098421  0  0.975561  0
H  H11  1  0.30259839  0.96656757  0.42753601  1  0.08944  0  0.089785  0.106362  0  1.045202  0
H  H12  1  0.39141550  0.03066518  0.43398432  1  0.070074  0  0.099228  0.098875  0  0.994438  0
H  H13  1  0.58100735  0.94756645  0.32694778  1  0.022383  0  0.096317  0.098087  0  1.005037  0
H  H14  1  0.96535994  0.06764249  0.77284595  1  0.086458  0  0.096426  0.10501  0  1.032735  0
H  H15  1  0.95678367  0.03822176  0.90727596  1  0.059311  0  0.096357  0.089553  0  1.000405  0
H  H16  1  0.96388568  0.13111091  0.00014530  1  0.021824  0  0.095648  0.09148  0  1.003888  0
H  H17  1  0.97899619  0.25359719  0.95605102  1  0.064936  0  0.096734  0.102635  0  1.031416  0
H  H18  1  0.16106441  0.65035810  0.74376989  1  0.046943  0  0.084665  0.088248  0  1.002968  0
H  H19  1  0.94683737  0.65759147  0.75262538  1  0.079833  0  0.102149  0.096576  0  0.972949  0
H  H20  1  0.97307521  0.38815164  0.73098827  1  0.067574  0  0.106169  0.117278  0  1.000563  0
H  H21  1  0.01965794  0.11503657  0.21026095  1  0.087179  0  0.112237  0.119831  0  0.978163  0
H  H22  1  0.15297247  0.30348197  0.39456374  1  0.075447  0  0.101231  0.109305  0  0.99844  0
H  H23  1  0.09470219  0.43122651  0.33788677  1  0.071787  0  0.103881  0.103267  0  0.991387  0
H  H24  1  0.03793759  0.42851523  0.24083046  1  0.099195  0  0.101111  0.10963  0  1.030302  0
H  H25  1  0.01159762  0.21863756  0.11893262  1  0.083976  0  0.111083  0.116747  0  0.987863  0
H  H26  1  0.59623852  0.12064358  0.76138081  1  0.094005  0  0.109465  0.11612  0  0.989803  0
H  H27  1  0.68582859  0.25605720  0.53325373  1  0.061602  0  0.100408  0.113274  0  1.026802  0
H  H28  1  0.58787759  0.37830404  0.49215366  1  0.074706  0  0.103417  0.099865  0  0.986961  0
H  H29  1  0.07726604  0.74515747  0.83885292  1  0.037332  0  0.094497  0.099184  0  0.977223  0
H  H30  1  0.83457128  0.87550152  0.78816827  1  0.041794  0  0.095931  0.100234  0  0.979293  0
H  H31  1  0.39551104  0.46831018  0.58588633  1  0.046323  0  0.096036  0.091267  0  1.009841  0
H  H32  1  0.30366850  0.43708365  0.72079156  1  0.064794  0  0.089842  0.094551  0  1.065006  0
H  H33  1  0.40434257  0.21392044  0.85745450  1  0.101641  0  0.109278  0.115201  0  0.987466  0
H  H34  1  0.88071885  0.91867420  0.82712732  1  0.011448  0  0.093669  0.090668  0  0.975571  0
H  H35  1  0.88571535  0.82917709  0.91889795  1  0.039858  0  0.097643  0.098394  0  0.967897  0
H  H36  1  0.96052725  0.73645181  0.65021033  1  0.048742  0  0.09859  0.111542  0  0.971145  0
H  H37  1  0.09368198  0.67989234  0.59989772  1  0.055176  0  0.081633  0.08767  0  1.033449  0
H  H38  1  0.75329625  0.73404248  0.19108964  1  0.45238  0  0.28119  0.282798  0  1.02985  0
H  H39  1  0.72679687  0.83679811  0.20877315  1  0.397053  0  0.290934  0.277247  0  0.965503  0
H  H40  1  0.67067636  0.59166949  0.05052019  1  0.491741  0  0.303299  0.315705  0  0.973624  0
H  H41  1  0.83336871  0.78979545  0.88477949  1  0.047196  0  0.097756  0.10127  0  0.975241  0
H  H42  1  0.55152485  0.61237373  0.09235985  1  0.432676  0  0.314764  0.309874  0  0.935195  0
H  H43  1  0.95431973  0.36516182  0.61918535  1  0.447456  0  0.315343  0.311139  0  0.932187  0
H  H44  1  0.94573074  0.27944114  0.59312182  1  0.479959  0  0.303227  0.31814  0  0.971138  0
H  H45  1  0.86259392  0.88587596  0.34477758  1  0.093967  0  0.11179  0.11653  0  0.972908  0
H  H46  1  0.29346595  0.51139806  0.27180436  1  0.07677  0  0.102233  0.110478  0  0.997046  0
H  H47  1  0.29586250  0.42478277  0.16569968  1  0.073851  0  0.109604  0.108829  0  0.978005  0
H  H48  1  0.16401888  0.50105362  0.13383895  1  0.048282  0  0.10515  0.111409  0  1.011506  0
H  H49  1  0.86191521  0.79272778  0.24647955  1  0.088287  0  0.107264  0.107443  0  0.998559  0
C  C50  1  0.98329354  0.14183051  0.64657001  1  1.510339  0  0.224284  0.623883  0  4.149428  0
C  C51  1  0.16356084  0.53895308  0.17990942  1  -0.042307  0  -0.088444  -0.129443  0  3.9868  0
C  C52  1  0.08599703  0.63216321  0.22162863  1  0.028413  0  0.005609  0.073853  0  3.935376  0
C  C53  1  0.99758706  0.84616480  0.37501845  1  1.580503  0  0.216864  0.600633  0  4.227221  0
C  C54  1  0.08405718  0.68470803  0.28261720  1  0.037929  0  -0.000212  0.023788  0  3.916289  0
C  C55  1  0.00311874  0.77810684  0.32298422  1  -0.024726  0  -0.006441  -0.044418  0  3.918215  0
C  C56  1  0.92443478  0.81482721  0.31106983  1  0.030114  0  -0.082303  -0.096302  0  3.989942  0
C  C57  1  0.92456351  0.76293516  0.25492014  1  -0.026222  0  -0.082095  -0.089879  0  4.015441  0
C  C58  1  0.00584461  0.67426483  0.20798477  1  -0.06217  0  -0.008393  -0.069755  0  3.943809  0
C  C59  1  0.38527723  0.93148031  0.38016083  1  -0.0296  0  -0.116476  -0.165693  0  4.037126  0
C  C60  1  0.43494537  0.96650996  0.38436744  1  -0.051984  0  -0.106126  -0.078855  0  4.120019  0
C  C61  1  0.01807993  0.71841727  0.66424907  1  -0.042106  0  -0.164696  -0.215513  0  3.860312  0
C  C62  1  0.54172583  0.91935222  0.32435252  1  -0.038094  0  -0.11185  -0.205652  0  4.027509  0
C  C63  1  0.60096154  0.83682948  0.26002418  1  0.392107  0  0.086328  0.244824  0  4.039115  0
C  C64  1  0.55181948  0.79774059  0.25413724  1  0.020476  0  -0.004512  -0.010612  0  3.891418  0
C  C65  1  0.72115047  0.14225550  0.62504957  1  1.526519  0  0.230934  0.611468  0  4.14938  0
C  C66  1  0.44146892  0.84883289  0.31471243  1  -0.030312  0  -0.010533  0.053264  0  3.981558  0
C  C67  1  0.38969153  0.81800642  0.30105096  1  0.008195  0  -0.006943  -0.041667  0  3.955199  0
C  C68  1  0.44241771  0.74551588  0.22932470  1  -0.037951  0  -0.092023  -0.204644  0  3.954164  0
C  C69  1  0.55109277  0.69309857  0.16973211  1  0.429521  0  0.108119  0.303626  0  4.093527  0
C  C70  1  0.60601035  0.71588329  0.18597723  1  0.053793  0  -0.03284  -0.206504  0  3.890265  0
C  C71  1  0.96861376  0.10881271  0.81213272  1  -0.035411  0  -0.102451  -0.145353  0  3.988825  0
C  C72  1  0.00033914  0.80402016  0.70606806  1  0.036758  0  -0.015993  0.030487  0  3.804096  0
C  C73  1  0.96404875  0.09214188  0.88779458  1  -0.084016  0  -0.098368  -0.081547  0  4.070036  0
C  C74  1  0.96789660  0.14439409  0.94024848  1  -0.036691  0  -0.106461  -0.104682  0  4.080324  0
C  C75  1  0.97604388  0.21304954  0.91576275  1  -0.016332  0  -0.097674  -0.128717  0  4.005023  0
C  C76  1  0.98046033  0.23221826  0.83864175  1  -0.002936  0  -0.01109  0.03725  0  3.96427  0
C  C77  1  0.27549131  0.86537981  0.36032206  1  1.569943  0  0.227474  0.60678  0  4.160023  0
C  C78  1  0.97678046  0.17908732  0.78466697  1  0.042182  0  0.000797  0.087027  0  3.958217  0
C  C79  1  0.97554439  0.20094294  0.70903621  1  0.009246  0  -0.035055  -0.227051  0  3.891448  0
C  C80  1  0.96922926  0.27886538  0.69209744  1  0.452645  0  0.109908  0.309716  0  4.101304  0
C  C81  1  0.97429804  0.32962690  0.74577510  1  -0.012538  0  -0.091162  -0.205571  0  3.949469  0
C  C82  1  0.98254546  0.30649511  0.81449458  1  -0.006922  0  -0.008561  -0.048111  0  3.97008  0
C  C83  1  0.00052949  0.70430994  0.80971166  1  0.03247  0  -0.021405  -0.006223  0  3.821377  0
C  C84  1  0.11104695  0.23731780  0.34332776  1  -0.217878  0  -0.046161  0.010704  0  3.86614  0
C  C85  1  0.11907284  0.30610819  0.35883307  1  -0.034797  0  -0.101306  -0.125507  0  4.031202  0
C  C86  1  0.08841381  0.37721392  0.32471909  1  -0.0297  0  -0.091136  -0.067266  0  4.035448  0
C  C87  1  0.05647696  0.37596640  0.27083261  1  -0.046981  0  -0.092736  -0.135517  0  3.982602  0
C  C88  1  0.04754125  0.30630649  0.25333260  1  0.007467  0  0.004827  0.073054  0  3.930019  0
C  C89  1  0.02935336  0.12178112  0.34629543  1  1.582082  0  0.215382  0.593044  0  4.222009  0
C  C90  1  0.06813314  0.23799088  0.29578172  1  0.028927  0  -0.001454  0.028693  0  3.915874  0
C  C91  1  0.04882458  0.17381648  0.28369941  1  -0.061457  0  -0.00918  -0.05323  0  3.924298  0
C  C92  1  0.03097634  0.16638529  0.21974436  1  0.015844  0  -0.079812  -0.090304  0  3.98123  0
C  C93  1  0.02335576  0.22605177  0.17055037  1  -0.016623  0  -0.079677  -0.088683  0  3.999001  0
C  C94  1  0.89608556  0.79816132  0.86003377  1  -0.031384  0  -0.151299  -0.166495  0  3.832339  0
C  C95  1  0.02528223  0.29777253  0.19019306  1  0.018967  0  -0.007788  -0.071025  0  3.928138  0
C  C96  1  0.60239436  0.29515076  0.57449737  1  0.004213  0  -0.095788  -0.140623  0  3.986779  0
C  C97  1  0.54726686  0.36384630  0.55178821  1  -0.027803  0  -0.091747  -0.07729  0  4.045114  0
C  C98  1  0.43889373  0.41492239  0.60478998  1  -0.075006  0  -0.094742  -0.079933  0  4.04127  0
C  C99  1  0.38717393  0.39727008  0.68046689  1  0.019729  0  -0.096531  -0.132717  0  3.982977  0
C  C100  1  0.44113696  0.32741929  0.70651812  1  -0.096421  0  0.002289  0.065571  0  3.926082  0
C  C101  1  0.99895839  0.86093866  0.64432802  1  1.572875  0  0.23165  0.59696  0  4.10551  0
C  C102  1  0.55205856  0.27416128  0.65158697  1  0.059055  0  0.002187  0.065253  0  3.93097  0
C  C103  1  0.60649334  0.20019527  0.67482246  1  -0.003482  0  -0.008707  -0.074179  0  3.923423  0
C  C104  1  0.55304106  0.17857157  0.74656822  1  -0.029287  0  -0.082456  -0.093106  0  4.002304  0
C  C105  1  0.01076047  0.66360919  0.72897835  1  -0.1153  0  -0.082696  0.010598  0  3.63264  0
C  C106  1  0.44532320  0.23077361  0.80038403  1  0.033  0  -0.083021  -0.096102  0  4.003308  0
C  C107  1  0.38957663  0.30531633  0.78285680  1  -0.09875  0  -0.006793  -0.066123  0  3.925866  0
C  C108  1  0.71832504  0.64809002  0.13482404  1  1.501638  0  0.225907  0.628558  0  4.126834  0
C  C109  1  0.27533499  0.36155948  0.84835898  1  1.583332  0  0.231251  0.612019  0  4.148538  0
C  C110  1  0.00461579  0.62486239  0.14411574  1  1.559235  0  0.230654  0.612157  0  4.164746  0
C  C111  1  0.99298036  0.36265869  0.86247828  1  1.555912  0  0.232419  0.61642  0  4.146543  0
C  C112  1  0.00776491  0.36151145  0.13877899  1  1.547139  0  0.233025  0.61521  0  4.154044  0
C  C113  1  0.08597377  0.77673592  0.71924339  1  -0.010574  0  -0.163709  -0.177328  0  3.871923  0
C  C114  1  0.99390166  0.64896492  0.87300762  1  1.565755  0  0.227646  0.596633  0  4.131784  0
C  C115  1  0.08711378  0.71642343  0.77943988  1  -0.053565  0  -0.167099  -0.178087  0  3.87903  0
C  C116  1  0.16212120  0.63690478  0.29866116  1  -0.214124  0  -0.042446  0.01276  0  3.866685  0
C  C117  1  0.89546919  0.85639691  0.79785489  1  -0.015323  0  -0.157249  -0.175007  0  3.862528  0
C  C118  1  0.23605732  0.54574900  0.25720647  1  -0.043963  0  -0.100537  -0.127912  0  4.041512  0
C  C119  1  0.23705231  0.49660258  0.19730005  1  0.018239  0  -0.088851  -0.068045  0  4.046281  0
I  I120  1  0.17263125  0.69400961  0.39072329  1  0.111238  0  0.099936  -0.007235  0  1.523959  0
I  I121  1  0.19039988  0.12278512  0.37321223  1  0.120574  0  0.093325  -0.023664  0  1.571143  0
I  I122  1  0.14262450  0.52191063  0.65952956  1  -0.046767  0  0.007048  -0.12653  0  1.279041  0
N  N123  1  0.70578313  0.79866733  0.19714144  1  -1.194107  0  -0.618416  -0.636303  0  3.299671  0
N  N124  1  0.59715322  0.61904146  0.10311087  1  -1.252909  0  -0.595063  -0.619069  0  3.332085  0
N  N125  1  0.96431744  0.30606368  0.62376520  1  -1.260411  0  -0.590039  -0.618114  0  3.367459  0
O  O126  1  0.99778694  0.99604504  0.49789813  1  -1.222437  0  -0.57446  -1.029293  0  2.546698  0
O  O127  1  0.05711519  0.32216071  0.88288646  1  -1.164402  0  -0.307922  -0.538375  0  2.352664  0
O  O128  1  0.94863179  0.44556451  0.18051823  1  -1.163443  0  -0.30978  -0.540218  0  2.322508  0
O  O129  1  0.04164492  0.05732619  0.62826412  1  -1.164128  0  -0.312107  -0.543212  0  2.360891  0
O  O130  1  0.93520162  0.62419504  0.88860846  1  -1.172589  0  -0.316121  -0.552352  0  2.385048  0
O  O131  1  0.05254668  0.32497692  0.05616809  1  -1.172912  0  -0.314324  -0.548906  0  2.344126  0
O  O132  1  0.04485689  0.63383289  0.90624422  1  -1.179376  0  -0.310706  -0.535632  0  2.348598  0
O  O133  1  0.08322238  0.58546517  0.06299005  1  -1.166879  0  -0.309412  -0.539776  0  2.307227  0
O  O134  1  0.93792095  0.44694947  0.87757363  1  -1.170609  0  -0.317662  -0.552767  0  2.334602  0
O  O135  1  0.75982667  0.62563937  0.17831060  1  -1.167799  0  -0.316171  -0.548939  0  2.331233  0
O  O136  1  0.23365886  0.32008734  0.88202063  1  -1.168257  0  -0.315053  -0.547679  0  2.321241  0
O  O137  1  0.76119286  0.06065738  0.62279644  1  -1.177965  0  -0.316126  -0.54713  0  2.336937  0
O  O138  1  0.92733739  0.88083885  0.45846044  1  -1.17554  0  -0.316096  -0.550127  0  2.34836  0
O  O139  1  0.77001858  0.17784291  0.59076390  1  -1.180349  0  -0.30931  -0.539395  0  2.348718  0
O  O140  1  0.23203529  0.87255076  0.32114399  1  -1.171146  0  -0.315672  -0.5575  0  2.373109  0
O  O141  1  0.96546760  0.16750393  0.42921535  1  -1.174141  0  -0.319103  -0.549263  0  2.362617  0
O  O142  1  0.06973984  0.87366683  0.60818435  1  -1.185367  0  -0.310628  -0.53858  0  2.360361  0
O  O143  1  0.06938310  0.03994977  0.31183832  1  -1.17825  0  -0.3176  -0.548505  0  2.343953  0
O  O144  1  0.92653665  0.89105121  0.63349637  1  -1.17895  0  -0.316101  -0.552119  0  2.347582  0
O  O145  1  0.23093322  0.89308563  0.44461525  1  -1.177541  0  -0.310859  -0.538317  0  2.357192  0
O  O146  1  0.93197268  0.17962339  0.61278413  1  -1.184994  0  -0.318358  -0.562054  0  2.362468  0
O  O147  1  0.05840318  0.86797606  0.32790336  1  -1.163841  0  -0.314982  -0.542398  0  2.345416  0
O  O148  1  0.99784440  0.49924877  0.00059337  1  -1.207065  0  -0.574887  -1.031052  0  2.55064  0
O  O149  1  0.76720416  0.61031067  0.05093135  1  -1.18605  0  -0.317814  -0.563794  0  2.363926  0
O  O150  1  0.22860970  0.44624379  0.86789800  1  -1.158072  0  -0.308003  -0.537192  0  2.354541  0
O  O151  1  0.92263291  0.62882298  0.17595821  1  -1.175519  0  -0.314055  -0.54973  0  2.321904  0
