# generated using pymatgen
data_Zn4H12C24S3O22
_symmetry_space_group_name_H-M   'P 1'
_cell_length_a   18.20681614
_cell_length_b   18.33006148
_cell_length_c   18.23825448
_cell_angle_alpha   120.63418966
_cell_angle_beta   119.08296728
_cell_angle_gamma   89.78294407
_symmetry_Int_Tables_number   1
_chemical_formula_structural   Zn4H12C24S3O22
_chemical_formula_sum   'Zn8 H24 C48 S6 O44'
_cell_volume   4329.45771690
_cell_formula_units_Z   2
loop_
 _symmetry_equiv_pos_site_id
 _symmetry_equiv_pos_as_xyz
  1  'x, y, z'
loop_
 _atom_site_type_symbol
 _atom_site_label
 _atom_site_symmetry_multiplicity
 _atom_site_fract_x
 _atom_site_fract_y
 _atom_site_fract_z
 _atom_site_occupancy
 _atom_site_pbe_bader_charge
 _atom_site_pbe_bader_spin_density
 _atom_site_pbe_cm5_charge
 _atom_site_pbe_ddec_charge
 _atom_site_pbe_ddec_spin_density
 _atom_site_pbe_ddec_sum_bond_order
 _atom_site_pbe_magmom
Zn  Zn0  1  0.94839011  0.04873952  0.09459893  1  1.31469  0  0.67758  0.975062  0  2.34792  0
Zn  Zn1  1  0.94611150  0.86761093  0.91904450  1  1.325651  0  0.680396  0.975957  0  2.355344  0
Zn  Zn2  1  0.12092377  0.03759143  0.08917047  1  1.323517  0  0.676483  0.969286  0  2.364847  0
Zn  Zn3  1  0.95236828  0.04082095  0.91706718  1  1.309898  0  0.675942  0.969484  0  2.36438  0
Zn  Zn4  1  0.53107440  0.45675254  0.91380770  1  1.311827  0  0.688715  0.983732  0  2.31144  0
Zn  Zn5  1  0.53168925  0.63065777  0.09587899  1  1.326841  0  0.694714  1.004209  0  2.286422  0
Zn  Zn6  1  0.53605053  0.45586256  0.09304015  1  1.310402  0  0.682139  0.970821  0  2.36496  0
Zn  Zn7  1  0.35973544  0.44755946  0.91624421  1  1.318363  0  0.68344  0.982906  0  2.323851  0
H  H8  1  0.85305152  0.89241192  0.17125334  1  0.098545  0  0.115539  0.119789  0  0.980043  0
H  H9  1  0.75244944  0.79029018  0.16138687  1  0.102019  0  0.117795  0.124048  0  0.974285  0
H  H10  1  0.70203316  0.72935817  0.83920946  1  0.153278  0  0.120138  0.136522  0  0.987309  0
H  H11  1  0.59314824  0.51260528  0.81965704  1  0.645319  0  0.316595  0.382095  0  0.927489  0
H  H12  1  0.16564545  0.31776585  0.41104218  1  0.114451  0  0.119667  0.120876  0  0.969845  0
H  H13  1  0.26839780  0.41206628  0.60240687  1  0.11406  0  0.12603  0.135654  0  0.954424  0
H  H14  1  0.21779465  0.08369108  0.39902629  1  0.07747  0  0.117555  0.128698  0  0.985322  0
H  H15  1  0.39706893  0.09092579  0.55887663  1  0.641594  0  0.364617  0.41125  0  0.820424  0
H  H16  1  0.72870875  0.14264905  0.03473390  1  0.107793  0  0.117548  0.122464  0  0.98041  0
H  H17  1  0.63039413  0.23877644  0.03090569  1  0.10588  0  0.121553  0.130532  0  0.967051  0
H  H18  1  0.86454397  0.27161395  0.97304377  1  0.122134  0  0.11273  0.121357  0  1.009494  0
H  H19  1  0.87912833  0.39545340  0.94084355  1  0.640433  0  0.357272  0.406386  0  0.833132  0
H  H20  1  0.13324967  0.73920900  0.05159141  1  0.096852  0  0.115663  0.117653  0  0.977186  0
H  H21  1  0.23427449  0.64713962  0.05811019  1  0.093629  0  0.117986  0.12231  0  0.967789  0
H  H22  1  0.23485023  0.83617186  0.93669634  1  0.127997  0  0.119494  0.131363  0  0.979939  0
H  H23  1  0.43263570  0.85297245  0.99000287  1  0.633385  0  0.359839  0.407362  0  0.828114  0
H  H24  1  0.86256437  0.70180001  0.59798133  1  0.123649  0  0.118727  0.122884  0  0.974789  0
H  H25  1  0.76438174  0.60862005  0.40488949  1  0.127025  0  0.119289  0.125165  0  0.973588  0
H  H26  1  0.71401143  0.88541179  0.61205018  1  0.134335  0  0.112813  0.119133  0  1.007486  0
H  H27  1  0.57812783  0.92109396  0.51364428  1  0.631219  0  0.353524  0.40535  0  0.833827  0
H  H28  1  0.24684735  0.29819245  0.16242773  1  0.084787  0  0.115543  0.118269  0  0.976769  0
H  H29  1  0.34242116  0.39588227  0.16275827  1  0.12021  0  0.118069  0.123921  0  0.970165  0
H  H30  1  0.15828934  0.08285349  0.85220636  1  0.146789  0  0.12151  0.135845  0  0.974811  0
H  H31  1  0.21518672  0.15145497  0.69043593  1  0.663511  0  0.318321  0.392841  0  0.926312  0
C  C32  1  0.84782260  0.87208297  0.00938317  1  1.578456  0  0.232759  0.610776  0  4.149635  0
C  C33  1  0.78544650  0.81611648  0.00620475  1  0.02083  0  -0.007126  -0.019443  0  3.959198  0
C  C34  1  0.79812873  0.83468639  0.09685723  1  -0.009048  0  -0.069941  -0.080081  0  3.951476  0
C  C35  1  0.74189039  0.77801428  0.09135600  1  -0.01496  0  -0.070785  -0.083399  0  3.944705  0
C  C36  1  0.67137593  0.70321034  0.99593973  1  -0.033142  0  0.002653  -0.024004  0  3.91612  0
C  C37  1  0.61904203  0.64191561  0.99788558  1  1.581467  0  0.245765  0.629155  0  4.11938  0
C  C38  1  0.65663347  0.68785572  0.90508792  1  -0.125727  0  -0.007776  -0.105113  0  3.931948  0
C  C39  1  0.71387774  0.74303350  0.91026814  1  -0.019659  0  -0.066363  -0.089682  0  3.928807  0
C  C40  1  0.12813415  0.13752351  0.27817459  1  1.576896  0  0.233751  0.614434  0  4.151371  0
C  C41  1  0.18631396  0.19514722  0.39329542  1  -0.070507  0  -0.005768  -0.010579  0  3.958145  0
C  C42  1  0.19902487  0.28717601  0.45058692  1  0.06497  0  -0.061939  -0.070387  0  3.931332  0
C  C43  1  0.25565169  0.33982321  0.55770027  1  -0.054788  0  -0.063614  -0.082498  0  3.913766  0
C  C44  1  0.29615200  0.30054612  0.60937460  1  -0.029725  0  0.009397  0.002371  0  3.914135  0
C  C45  1  0.35339262  0.35940499  0.72546652  1  1.662884  0  0.23377  0.610552  0  4.194905  0
C  C46  1  0.28013452  0.20773672  0.55096947  1  -0.167995  0  -0.014762  -0.133131  0  3.988724  0
C  C47  1  0.22763351  0.15523660  0.44345672  1  0.091749  0  -0.073175  -0.104369  0  3.957099  0
C  C48  1  0.85889216  0.14273286  0.00351372  1  1.532234  0  0.231731  0.609805  0  4.152665  0
C  C49  1  0.80066998  0.20033128  0.00154693  1  0.022238  0  -0.009244  -0.024858  0  3.961752  0
C  C50  1  0.73584809  0.19150359  0.01951548  1  0.013115  0  -0.065649  -0.070824  0  3.945133  0
C  C51  1  0.68171871  0.24502035  0.01787016  1  0.005063  0  -0.066251  -0.077786  0  3.934123  0
C  C52  1  0.69206519  0.30879058  0.99992877  1  -0.010886  0  0.007137  -0.013747  0  3.915882  0
C  C53  1  0.63006596  0.36280142  0.99849578  1  1.600815  0  0.236837  0.613677  0  4.16969  0
C  C54  1  0.75880909  0.31880188  0.98423066  1  -0.107786  0  -0.005267  -0.098546  0  3.915291  0
C  C55  1  0.81209252  0.26400980  0.98382122  1  -0.037635  0  -0.072412  -0.097843  0  3.951541  0
C  C56  1  0.12403669  0.85509492  0.99934756  1  1.531477  0  0.233376  0.615091  0  4.149927  0
C  C57  1  0.18002526  0.79534691  0.99685713  1  -0.001667  0  -0.008897  -0.022456  0  3.968144  0
C  C58  1  0.17768640  0.73993597  0.02789323  1  0.000506  0  -0.068241  -0.075782  0  3.952271  0
C  C59  1  0.23330218  0.68781300  0.03032373  1  -0.015617  0  -0.072681  -0.090581  0  3.948997  0
C  C60  1  0.28857537  0.68647909  0.99695087  1  0.00407  0  0.007538  -0.00309  0  3.919517  0
C  C61  1  0.34778872  0.62932933  0.00312528  1  1.633627  0  0.233958  0.614882  0  4.185464  0
C  C62  1  0.28625005  0.73807236  0.96004837  1  -0.180248  0  -0.011516  -0.120034  0  3.957257  0
C  C63  1  0.23436271  0.79447299  0.96282558  1  0.054813  0  -0.069057  -0.094557  0  3.941553  0
C  C64  1  0.85433603  0.85848298  0.73054164  1  1.539241  0  0.232735  0.610091  0  4.151551  0
C  C65  1  0.79545786  0.80053926  0.61562535  1  0.050792  0  -0.00612  -0.016376  0  3.952601  0
C  C66  1  0.80895615  0.72155547  0.55819322  1  -0.089607  0  -0.063167  -0.069013  0  3.9366  0
C  C67  1  0.75418090  0.66966372  0.45112108  1  0.021601  0  -0.068001  -0.083947  0  3.939662  0
C  C68  1  0.68454892  0.69446730  0.40006839  1  0.005731  0  0.006034  -0.00882  0  3.91385  0
C  C69  1  0.63100023  0.63725034  0.28466459  1  1.642059  0  0.23167  0.604178  0  4.192682  0
C  C70  1  0.66914343  0.77202738  0.45868115  1  -0.20102  0  -0.003766  -0.0948  0  3.911618  0
C  C71  1  0.72528387  0.82553370  0.56576736  1  0.014542  0  -0.070787  -0.096163  0  3.947559  0
C  C72  1  0.13342790  0.13007375  0.00449114  1  1.547601  0  0.233092  0.615408  0  4.150717  0
C  C73  1  0.19332015  0.18651545  0.00576140  1  -0.002212  0  -0.00982  -0.025613  0  3.97326  0
C  C74  1  0.24764047  0.27336334  0.09443228  1  0.012175  0  -0.069066  -0.077097  0  3.956428  0
C  C75  1  0.30140825  0.32748958  0.09487376  1  -0.010865  0  -0.07432  -0.095686  0  3.957832  0
C  C76  1  0.30434687  0.29428700  0.00852517  1  -0.007106  0  0.007376  -0.006184  0  3.924405  0
C  C77  1  0.36008699  0.35668131  0.01101593  1  1.607205  0  0.233176  0.61498  0  4.190618  0
C  C78  1  0.25404053  0.20513662  0.92258576  1  -0.164144  0  -0.005853  -0.094593  0  3.912703  0
C  C79  1  0.19686513  0.15187239  0.91964132  1  0.021775  0  -0.063904  -0.087312  0  3.923452  0
S  S80  1  0.56196910  0.60169557  0.77866450  1  3.096473  0  0.529879  1.144894  0  6.055141  0
S  S81  1  0.31843878  0.15295693  0.61291275  1  3.068033  0  0.556858  1.161076  0  5.962568  0
S  S82  1  0.77993200  0.40647072  0.97214015  1  3.053506  0  0.539702  1.160885  0  5.969656  0
S  S83  1  0.33817999  0.72274381  0.89385147  1  3.084899  0  0.544183  1.153351  0  5.996799  0
S  S84  1  0.57342450  0.79929999  0.39646221  1  3.052078  0  0.540516  1.161404  0  5.963783  0
S  S85  1  0.27451310  0.15188291  0.82389396  1  3.071  0  0.5328  1.163002  0  6.014254  0
O  O86  1  0.99101494  0.99865651  0.00493843  1  -1.228505  0  -0.579404  -1.045436  0  2.568686  0
O  O87  1  0.85330298  0.83300444  0.93179701  1  -1.172823  0  -0.310881  -0.541088  0  2.319094  0
O  O88  1  0.89042738  0.95341440  0.08866365  1  -1.170222  0  -0.314562  -0.5489  0  2.295222  0
O  O89  1  0.60229914  0.67873069  0.06592684  1  -1.144619  0  -0.293946  -0.518243  0  2.322424  0
O  O90  1  0.60011840  0.55723668  0.93473507  1  -1.180496  0  -0.296918  -0.552375  0  2.384177  0
O  O91  1  0.48561363  0.60189229  0.78398291  1  -1.279739  0  -0.318972  -0.533825  0  2.143807  0
O  O92  1  0.56264035  0.61001743  0.70489215  1  -1.285788  0  -0.317997  -0.518201  0  2.099125  0
O  O93  1  0.58703101  0.51372418  0.76266327  1  -1.209949  0  -0.365129  -0.521902  0  2.15521  0
O  O94  1  0.16117739  0.08640733  0.23211046  1  -1.172151  0  -0.314281  -0.545233  0  2.287249  0
O  O95  1  0.05052633  0.14347599  0.23618846  1  -1.16565  0  -0.311505  -0.543979  0  2.283495  0
O  O96  1  0.31342663  0.36682071  0.76857904  1  -1.145722  0  -0.3022  -0.527579  0  2.310704  0
O  O97  1  0.43434688  0.39720717  0.76783748  1  -1.159228  0  -0.301097  -0.521431  0  2.328007  0
O  O98  1  0.40068385  0.21093138  0.71186877  1  -1.285853  0  -0.290719  -0.51022  0  2.174169  0
O  O99  1  0.24344889  0.10986850  0.60128952  1  -1.289918  0  -0.290424  -0.512259  0  2.167068  0
O  O100  1  0.33605298  0.07017681  0.53737443  1  -1.192589  0  -0.348473  -0.518487  0  2.127006  0
O  O101  1  0.90056703  0.13619977  0.96187255  1  -1.167187  0  -0.314464  -0.544973  0  2.303159  0
O  O102  1  0.86155903  0.10470510  0.04666369  1  -1.164768  0  -0.311817  -0.545869  0  2.321249  0
O  O103  1  0.61196735  0.38583244  0.06477273  1  -1.153416  0  -0.302886  -0.527909  0  2.335466  0
O  O104  1  0.60037456  0.37807277  0.93035221  1  -1.159954  0  -0.299855  -0.526917  0  2.374622  0
O  O105  1  0.72610557  0.37619652  0.86609810  1  -1.281917  0  -0.320674  -0.537756  0  2.088064  0
O  O106  1  0.78431469  0.48791892  0.05320768  1  -1.282958  0  -0.308591  -0.510296  0  2.105732  0
O  O107  1  0.88140212  0.41671505  0.00346357  1  -1.187633  0  -0.363229  -0.536616  0  2.119389  0
O  O108  1  0.16066529  0.93449693  0.03333650  1  -1.155627  0  -0.313585  -0.543536  0  2.293018  0
O  O109  1  0.04458610  0.82196670  0.96762292  1  -1.16663  0  -0.312742  -0.546654  0  2.293255  0
O  O110  1  0.30946925  0.54567660  0.93264673  1  -1.163835  0  -0.306631  -0.534276  0  2.307047  0
O  O111  1  0.42794638  0.66984414  0.08021340  1  -1.161218  0  -0.302953  -0.527077  0  2.340669  0
O  O112  1  0.41464793  0.69627449  0.93344709  1  -1.294367  0  -0.303107  -0.529172  0  2.197407  0
O  O113  1  0.26936887  0.67215299  0.78604625  1  -1.279927  0  -0.303769  -0.49518  0  2.072214  0
O  O114  1  0.37195443  0.82306367  0.92792642  1  -1.183226  0  -0.355894  -0.527423  0  2.121265  0
O  O115  1  0.85873672  0.94081543  0.77524531  1  -1.175122  0  -0.314137  -0.545115  0  2.31729  0
O  O116  1  0.89511234  0.82124705  0.77434662  1  -1.167047  0  -0.311058  -0.544176  0  2.302629  0
O  O117  1  0.61148182  0.55317670  0.24095852  1  -1.15796  0  -0.304232  -0.528242  0  2.331254  0
O  O118  1  0.61323410  0.67814147  0.24209557  1  -1.167013  0  -0.302735  -0.537803  0  2.361921  0
O  O119  1  0.59427337  0.85846255  0.37449944  1  -1.278262  0  -0.321011  -0.538567  0  2.086924  0
O  O120  1  0.49864425  0.71852289  0.31990569  1  -1.283897  0  -0.305576  -0.505915  0  2.105782  0
O  O121  1  0.55966341  0.85872643  0.48935193  1  -1.178721  0  -0.364774  -0.541299  0  2.114842  0
O  O122  1  0.05504242  0.08419610  0.92252021  1  -1.169205  0  -0.313698  -0.544565  0  2.290548  0
O  O123  1  0.16544916  0.13287086  0.08603978  1  -1.164548  0  -0.315495  -0.548962  0  2.299211  0
O  O124  1  0.44289533  0.38769799  0.07998307  1  -1.16784  0  -0.305717  -0.527153  0  2.324207  0
O  O125  1  0.31741803  0.37605210  0.94741643  1  -1.15577  0  -0.306898  -0.536671  0  2.341232  0
O  O126  1  0.36369554  0.19955594  0.86700715  1  -1.294185  0  -0.32237  -0.546512  0  2.139443  0
O  O127  1  0.24956768  0.05710099  0.77744692  1  -1.269101  0  -0.325252  -0.540074  0  2.089564  0
O  O128  1  0.20446938  0.17152730  0.74573136  1  -1.235526  0  -0.36893  -0.540843  0  2.168196  0
O  O129  1  0.49040402  0.49861961  0.00513968  1  -1.207022  0  -0.57006  -1.036129  0  2.510683  0
