# generated using pymatgen
data_ZnH14C16(NO)4
_symmetry_space_group_name_H-M   'P 1'
_cell_length_a   9.10940710
_cell_length_b   9.88803362
_cell_length_c   9.88788873
_cell_angle_alpha   109.39177890
_cell_angle_beta   97.63407876
_cell_angle_gamma   97.63458001
_symmetry_Int_Tables_number   1
_chemical_formula_structural   ZnH14C16(NO)4
_chemical_formula_sum   'Zn2 H28 C32 N8 O8'
_cell_volume   817.61820453
_cell_formula_units_Z   2
loop_
 _symmetry_equiv_pos_site_id
 _symmetry_equiv_pos_as_xyz
  1  'x, y, z'
loop_
 _atom_site_type_symbol
 _atom_site_label
 _atom_site_symmetry_multiplicity
 _atom_site_fract_x
 _atom_site_fract_y
 _atom_site_fract_z
 _atom_site_occupancy
 _atom_site_hle17_bader_spin_density
 _atom_site_hle17_ddec_charge
 _atom_site_hle17_ddec_spin_density
 _atom_site_hle17_ddec_sum_bond_order
 _atom_site_hle17_magmom
 _atom_site_hse06_10hf_bader_spin_density
 _atom_site_hse06_10hf_ddec_charge
 _atom_site_hse06_10hf_ddec_spin_density
 _atom_site_hse06_10hf_ddec_sum_bond_order
 _atom_site_hse06_10hf_magmom
 _atom_site_hse06_bader_spin_density
 _atom_site_hse06_ddec_charge
 _atom_site_hse06_ddec_spin_density
 _atom_site_hse06_ddec_sum_bond_order
 _atom_site_hse06_magmom
 _atom_site_pbe_bader_spin_density
 _atom_site_pbe_cm5_charge
 _atom_site_pbe_ddec_charge
 _atom_site_pbe_ddec_spin_density
 _atom_site_pbe_ddec_sum_bond_order
 _atom_site_pbe_magmom
Zn  Zn0  1  0.24999962  0.40283463  0.59715523  1  0  0.99925  0  1.920148  0  0  0.833715  0  2.367826  0  0  0.876455  0  2.32072  0  0  0.670368  0.802584  0  2.399873  0
Zn  Zn1  1  0.75000203  0.59716367  0.40284181  1  0  0.999301  0  1.920037  0  0  0.833759  0  2.367705  0  0  0.876506  0  2.320594  0  0  0.6704  0.80263  0  2.399754  0
H  H2  1  0.19339902  0.84319871  0.52817735  1  0  0.132401  0  0.977999  0  0  0.135775  0  1.04736  0  0  0.140301  0  1.043417  0  0  0.120586  0.132372  0  1.050516  0
H  H3  1  0.30660457  0.47181175  0.15679973  1  0  0.132391  0  0.977968  0  0  0.135727  0  1.047394  0  0  0.140248  0  1.043457  0  0  0.120564  0.13234  0  1.050531  0
H  H4  1  0.80660327  0.15680298  0.47182589  1  0  0.132409  0  0.978011  0  0  0.135784  0  1.047371  0  0  0.140321  0  1.043416  0  0  0.120581  0.132382  0  1.050527  0
H  H5  1  0.69340218  0.52817794  0.84319622  1  0  0.132409  0  0.977964  0  0  0.135794  0  1.047323  0  0  0.140318  0  1.043381  0  0  0.120594  0.132403  0  1.050469  0
H  H6  1  0.51874088  0.23619308  0.69265475  1  0  0.097079  0  0.926353  0  0  0.10915  0  0.985166  0  0  0.111503  0  0.982685  0  0  0.137693  0.106999  0  0.987563  0
H  H7  1  0.98125397  0.30734156  0.76380843  1  0  0.097082  0  0.926349  0  0  0.109164  0  0.985148  0  0  0.111516  0  0.982669  0  0  0.137708  0.107015  0  0.987538  0
H  H8  1  0.48127049  0.76380982  0.30734994  1  0  0.097071  0  0.926436  0  0  0.109173  0  0.985209  0  0  0.111503  0  0.982756  0  0  0.137703  0.107025  0  0.987604  0
H  H9  1  0.01873440  0.69265666  0.23619206  1  0  0.097093  0  0.926342  0  0  0.109183  0  0.985141  0  0  0.111526  0  0.982673  0  0  0.137699  0.107028  0  0.987541  0
H  H10  1  0.60427752  0.97910484  0.67291249  1  0  0.084198  0  0.931443  0  0  0.097778  0  0.995463  0  0  0.098009  0  0.996485  0  0  0.112955  0.098111  0  0.994177  0
H  H11  1  0.89572140  0.32709208  0.02090442  1  0  0.084194  0  0.931487  0  0  0.09776  0  0.995508  0  0  0.097992  0  0.99653  0  0  0.112944  0.09809  0  0.994218  0
H  H12  1  0.39571862  0.02089925  0.32710493  1  0  0.084077  0  0.931436  0  0  0.097646  0  0.995508  0  0  0.097876  0  0.996533  0  0  0.112877  0.097981  0  0.994214  0
H  H13  1  0.10428070  0.67290854  0.97909947  1  0  0.084158  0  0.931418  0  0  0.097705  0  0.99548  0  0  0.097937  0  0.996502  0  0  0.112903  0.098037  0  0.99419  0
H  H14  1  0.45661995  0.82726733  0.62846591  1  0  0.100385  0  0.908593  0  0  0.116172  0  0.968362  0  0  0.116829  0  0.967734  0  0  0.121035  0.115595  0  0.968784  0
H  H15  1  0.04338231  0.37153599  0.17274524  1  0  0.100425  0  0.908519  0  0  0.116214  0  0.968283  0  0  0.116872  0  0.967656  0  0  0.121043  0.115625  0  0.968709  0
H  H16  1  0.54338572  0.17274087  0.37153673  1  0  0.100415  0  0.908394  0  0  0.116204  0  0.968169  0  0  0.11686  0  0.967541  0  0  0.121052  0.115601  0  0.968618  0
H  H17  1  0.95662154  0.62847438  0.82725888  1  0  0.100436  0  0.908449  0  0  0.116206  0  0.968234  0  0  0.116862  0  0.967607  0  0  0.121017  0.115622  0  0.968661  0
H  H18  1  0.07854890  0.06197636  0.44980982  1  0  0.106873  0  0.974036  0  0  0.115805  0  1.036173  0  0  0.117859  0  1.035956  0  0  0.117764  0.114005  0  1.037156  0
H  H19  1  0.42144615  0.55017880  0.93801581  1  0  0.106849  0  0.974122  0  0  0.115788  0  1.036256  0  0  0.117841  0  1.036039  0  0  0.117722  0.114016  0  1.037206  0
H  H20  1  0.92144997  0.93803081  0.55019878  1  0  0.10681  0  0.9741  0  0  0.115755  0  1.036224  0  0  0.117809  0  1.036007  0  0  0.117749  0.113987  0  1.037169  0
H  H21  1  0.57854844  0.44980512  0.06196981  1  0  0.106857  0  0.974048  0  0  0.115801  0  1.036176  0  0  0.117855  0  1.035959  0  0  0.117783  0.114034  0  1.03712  0
H  H22  1  0.55097222  0.76650622  0.83578925  1  0  0.103998  0  0.964792  0  0  0.112835  0  1.028328  0  0  0.115623  0  1.027154  0  0  0.100856  0.110716  0  1.029335  0
H  H23  1  0.94902415  0.16420684  0.23349466  1  0  0.103994  0  0.964853  0  0  0.112836  0  1.02837  0  0  0.115624  0  1.027198  0  0  0.100834  0.110719  0  1.029377  0
H  H24  1  0.44901862  0.23348116  0.16420813  1  0  0.103983  0  0.964855  0  0  0.112826  0  1.028383  0  0  0.115613  0  1.027209  0  0  0.100859  0.110707  0  1.029388  0
H  H25  1  0.05097935  0.83580147  0.76651382  1  0  0.103926  0  0.964957  0  0  0.112771  0  1.028474  0  0  0.115559  0  1.027299  0  0  0.100827  0.110653  0  1.029479  0
H  H26  1  0.43104783  0.18852338  0.90206012  1  0  0.077701  0  0.985735  0  0  0.085883  0  1.055669  0  0  0.087831  0  1.055978  0  0  0.092751  0.084419  0  1.05586  0
H  H27  1  0.06894648  0.09794416  0.81147964  1  0  0.077689  0  0.985754  0  0  0.085897  0  1.055657  0  0  0.087845  0  1.055965  0  0  0.092754  0.084433  0  1.055847  0
H  H28  1  0.56893773  0.81147154  0.09793900  1  0  0.077606  0  0.985558  0  0  0.08583  0  1.055478  0  0  0.087777  0  1.055785  0  0  0.092732  0.084367  0  1.055664  0
H  H29  1  0.93106816  0.90206439  0.18853430  1  0  0.07766  0  0.985581  0  0  0.085868  0  1.055523  0  0  0.087816  0  1.055831  0  0  0.092775  0.084404  0  1.05571  0
C  C30  1  0.24341278  0.95536941  0.54647455  1  0  -0.076174  0  3.661094  0  0  -0.115227  0  3.921708  0  0  -0.114061  0  3.938833  0  0  -0.00173  -0.115954  0  3.909801  0
C  C31  1  0.25659018  0.45351591  0.04462901  1  0  -0.076029  0  3.660967  0  0  -0.115055  0  3.921575  0  0  -0.113885  0  3.938705  0  0  -0.001666  -0.115799  0  3.909665  0
C  C32  1  0.75658547  0.04463442  0.45352989  1  0  -0.076293  0  3.661234  0  0  -0.115362  0  3.921867  0  0  -0.114204  0  3.938986  0  0  -0.001806  -0.11609  0  3.909969  0
C  C33  1  0.74341382  0.54647700  0.95536763  1  0  -0.07612  0  3.661272  0  0  -0.115203  0  3.921876  0  0  -0.11403  0  3.939004  0  0  -0.001727  -0.115944  0  3.909976  0
C  C34  1  0.54587962  0.52832293  0.58013593  1  0  0.51538  0  3.928816  0  0  0.473318  0  4.222946  0  0  0.502429  0  4.21586  0  0  0.19493  0.453701  0  4.226147  0
C  C35  1  0.95411893  0.41986116  0.47167820  1  0  0.515279  0  3.929051  0  0  0.473208  0  4.223247  0  0  0.50232  0  4.21616  0  0  0.194874  0.45359  0  4.226446  0
C  C36  1  0.45410559  0.47167685  0.41983837  1  0  0.515338  0  3.929731  0  0  0.473324  0  4.223775  0  0  0.502428  0  4.216687  0  0  0.194822  0.45371  0  4.226975  0
C  C37  1  0.04590182  0.58015122  0.52831036  1  0  0.515509  0  3.92935  0  0  0.473421  0  4.223553  0  0  0.502529  0  4.216461  0  0  0.19479  0.453805  0  4.226756  0
C  C38  1  0.41400264  0.16015538  0.63611697  1  0  0.152336  0  3.663519  0  0  0.089974  0  3.939796  0  0  0.103273  0  3.951695  0  0  0.139741  0.082026  0  3.930399  0
C  C39  1  0.08599459  0.36387918  0.83984683  1  0  0.15236  0  3.663624  0  0  0.089976  0  3.939918  0  0  0.103274  0  3.951815  0  0  0.139706  0.082027  0  3.930525  0
C  C40  1  0.58600024  0.83984958  0.36388737  1  0  0.152482  0  3.663617  0  0  0.090084  0  3.939917  0  0  0.103404  0  3.951818  0  0  0.139781  0.082133  0  3.930514  0
C  C41  1  0.91400316  0.63611585  0.16015074  1  0  0.152407  0  3.663432  0  0  0.089997  0  3.939758  0  0  0.103301  0  3.95166  0  0  0.139721  0.082052  0  3.930358  0
C  C42  1  0.49026610  0.94483022  0.68995295  1  0  -0.036982  0  3.644173  0  0  -0.104259  0  3.896484  0  0  -0.09932  0  3.906619  0  0  -0.043247  -0.107783  0  3.888887  0
C  C43  1  0.00973010  0.31004012  0.05516814  1  0  -0.037112  0  3.64461  0  0  -0.104349  0  3.896877  0  0  -0.099419  0  3.907031  0  0  -0.043243  -0.107842  0  3.889238  0
C  C44  1  0.50973632  0.05516026  0.31003262  1  0  -0.036976  0  3.644126  0  0  -0.104205  0  3.896475  0  0  -0.099261  0  3.906603  0  0  -0.043195  -0.107719  0  3.888892  0
C  C45  1  0.99026962  0.68996583  0.94483309  1  0  -0.036946  0  3.64422  0  0  -0.104174  0  3.896528  0  0  -0.099234  0  3.906663  0  0  -0.043145  -0.107685  0  3.888912  0
C  C46  1  0.49133870  0.97465136  0.85028181  1  0  0.068842  0  3.751471  0  0  0.089802  0  3.985866  0  0  0.088801  0  4.010365  0  0  -0.014098  0.090028  0  3.969785  0
C  C47  1  0.00865533  0.14972452  0.02535694  1  0  0.068922  0  3.751195  0  0  0.089846  0  3.985647  0  0  0.088848  0  4.010146  0  0  -0.014069  0.090066  0  3.969562  0
C  C48  1  0.50864444  0.02534244  0.14971667  1  0  0.069045  0  3.751488  0  0  0.089872  0  3.986079  0  0  0.088871  0  4.010577  0  0  -0.014096  0.090099  0  3.969989  0
C  C49  1  0.99135825  0.85028412  0.97466196  1  0  0.068847  0  3.751603  0  0  0.089756  0  3.986069  0  0  0.088755  0  4.01057  0  0  -0.014203  0.089979  0  3.969983  0
C  C50  1  0.18693049  0.06459474  0.51156871  1  0  -0.011164  0  3.756081  0  0  -0.042804  0  4.022337  0  0  -0.041056  0  4.04179  0  0  -0.006728  -0.04415  0  4.009627  0
C  C51  1  0.31306866  0.48842034  0.93540190  1  0  -0.011126  0  3.756053  0  0  -0.042768  0  4.022291  0  0  -0.041022  0  4.041743  0  0  -0.006657  -0.044136  0  4.009565  0
C  C52  1  0.81307170  0.93541246  0.48843928  1  0  -0.011042  0  3.756058  0  0  -0.042671  0  4.022312  0  0  -0.040925  0  4.041771  0  0  -0.006696  -0.044044  0  4.009586  0
C  C53  1  0.68692920  0.51156922  0.06459295  1  0  -0.011204  0  3.756109  0  0  -0.042835  0  4.022374  0  0  -0.04109  0  4.041829  0  0  -0.006775  -0.044208  0  4.009652  0
C  C54  1  0.52907161  0.86943598  0.90758354  1  0  -0.104298  0  3.734196  0  0  -0.120247  0  3.974217  0  0  -0.122729  0  3.995997  0  0  -0.09061  -0.118355  0  3.959781  0
C  C55  1  0.97092729  0.09241982  0.13057122  1  0  -0.104336  0  3.73418  0  0  -0.120294  0  3.974239  0  0  -0.122776  0  3.996014  0  0  -0.090645  -0.118406  0  3.959806  0
C  C56  1  0.47091151  0.13055775  0.09241188  1  0  -0.104329  0  3.734394  0  0  -0.120261  0  3.974475  0  0  -0.122741  0  3.996251  0  0  -0.0906  -0.118366  0  3.960034  0
C  C57  1  0.02908884  0.90759089  0.86944155  1  0  -0.104208  0  3.734411  0  0  -0.12016  0  3.974461  0  0  -0.122642  0  3.996239  0  0  -0.090534  -0.118269  0  3.960022  0
C  C58  1  0.46208360  0.10506704  0.94396568  1  0  -0.121562  0  3.780473  0  0  -0.142411  0  4.02817  0  0  -0.145162  0  4.051276  0  0  -0.099804  -0.140765  0  4.013288  0
C  C59  1  0.03790528  0.05602828  0.89492538  1  0  -0.121585  0  3.780014  0  0  -0.142455  0  4.027751  0  0  -0.145206  0  4.050857  0  0  -0.09984  -0.14081  0  4.012872  0
C  C60  1  0.53789772  0.89492894  0.05603428  1  0  -0.121529  0  3.779954  0  0  -0.142387  0  4.027745  0  0  -0.14514  0  4.050854  0  0  -0.099804  -0.14074  0  4.012864  0
C  C61  1  0.96209841  0.94396899  0.10507258  1  0  -0.121432  0  3.780072  0  0  -0.142305  0  4.027829  0  0  -0.145056  0  4.050936  0  0  -0.099738  -0.140659  0  4.012947  0
N  N62  1  0.29386653  0.19150551  0.56866587  1  0  -0.368329  0  3.288583  0  0  -0.299674  0  3.578112  0  0  -0.317846  0  3.593672  0  0  -0.351005  -0.287369  0  3.566526  0
N  N63  1  0.20612853  0.43132682  0.80848706  1  0  -0.368444  0  3.288543  0  0  -0.299794  0  3.57811  0  0  -0.317964  0  3.59366  0  0  -0.351018  -0.28749  0  3.566532  0
N  N64  1  0.70613708  0.80849731  0.43133888  1  0  -0.368373  0  3.288563  0  0  -0.29973  0  3.578129  0  0  -0.317902  0  3.593679  0  0  -0.350982  -0.287424  0  3.566552  0
N  N65  1  0.79386717  0.56866920  0.19150754  1  0  -0.368317  0  3.288529  0  0  -0.299678  0  3.57811  0  0  -0.317849  0  3.593664  0  0  -0.350987  -0.287372  0  3.56653  0
N  N66  1  0.38794008  0.01779210  0.62476952  1  0  -0.060812  0  3.58969  0  0  0.03102  0  3.812429  0  0  0.016731  0  3.838965  0  0  -0.242974  0.04085  0  3.792489  0
N  N67  1  0.11205409  0.37522581  0.98220861  1  0  -0.060868  0  3.589856  0  0  0.030968  0  3.812578  0  0  0.01668  0  3.839112  0  0  -0.243013  0.040791  0  3.792636  0
N  N68  1  0.61206223  0.98220964  0.37523575  1  0  -0.060856  0  3.589831  0  0  0.03099  0  3.812551  0  0  0.016699  0  3.839082  0  0  -0.242948  0.040822  0  3.792601  0
N  N69  1  0.88793589  0.62476911  0.01778800  1  0  -0.060988  0  3.58985  0  0  0.030897  0  3.812548  0  0  0.016606  0  3.839083  0  0  -0.242953  0.040724  0  3.792606  0
O  O70  1  0.47892030  0.50192640  0.67639507  1  0  -0.59005  0  2.07567  0  0  -0.529711  0  2.328848  0  0  -0.554237  0  2.318375  0  0  -0.311547  -0.512066  0  2.335151  0
O  O71  1  0.02107391  0.32360330  0.49807141  1  0  -0.59006  0  2.075804  0  0  -0.529681  0  2.328933  0  0  -0.554206  0  2.318465  0  0  -0.311523  -0.512037  0  2.33523  0
O  O72  1  0.52107183  0.49807415  0.32361064  1  0  -0.589985  0  2.076156  0  0  -0.529632  0  2.329252  0  0  -0.55415  0  2.318773  0  0  -0.311487  -0.511995  0  2.335561  0
O  O73  1  0.97893635  0.67638750  0.50192430  1  0  -0.590097  0  2.075998  0  0  -0.529702  0  2.329094  0  0  -0.554221  0  2.318613  0  0  -0.311452  -0.512063  0  2.3354  0
O  O74  1  0.67958291  0.59636544  0.60452372  1  0  -0.569448  0  2.040789  0  0  -0.520019  0  2.285155  0  0  -0.542994  0  2.276088  0  0  -0.311741  -0.503653  0  2.290384  0
O  O75  1  0.82041079  0.39548403  0.40365489  1  0  -0.569422  0  2.041009  0  0  -0.520011  0  2.285425  0  0  -0.54298  0  2.276353  0  0  -0.31171  -0.503643  0  2.290647  0
O  O76  1  0.32042179  0.40364368  0.39547201  1  0  -0.569482  0  2.041345  0  0  -0.520101  0  2.285719  0  0  -0.543069  0  2.276649  0  0  -0.311758  -0.503737  0  2.290945  0
O  O77  1  0.17959628  0.60451399  0.59632652  1  0  -0.56948  0  2.041157  0  0  -0.520091  0  2.285591  0  0  -0.54306  0  2.276522  0  0  -0.311739  -0.503725  0  2.290814  0
