# generated using pymatgen
data_K2H48C36Cl8O17
_symmetry_space_group_name_H-M   'P 1'
_cell_length_a   10.38963594
_cell_length_b   11.53592591
_cell_length_c   11.63800000
_cell_angle_alpha   77.40789984
_cell_angle_beta   64.26309610
_cell_angle_gamma   69.70054395
_symmetry_Int_Tables_number   1
_chemical_formula_structural   K2H48C36Cl8O17
_chemical_formula_sum   'K2 H48 C36 Cl8 O17'
_cell_volume   1174.69872439
_cell_formula_units_Z   1
loop_
 _symmetry_equiv_pos_site_id
 _symmetry_equiv_pos_as_xyz
  1  'x, y, z'
loop_
 _atom_site_type_symbol
 _atom_site_label
 _atom_site_symmetry_multiplicity
 _atom_site_fract_x
 _atom_site_fract_y
 _atom_site_fract_z
 _atom_site_occupancy
 _atom_site_pbe_bader_charge
 _atom_site_pbe_bader_spin_density
 _atom_site_pbe_cm5_charge
 _atom_site_pbe_ddec_charge
 _atom_site_pbe_ddec_spin_density
 _atom_site_pbe_ddec_sum_bond_order
 _atom_site_pbe_magmom
K  K0  1  0.15291471  0.82594530  0.83817541  1  0.879471  0  0.746841  0.816635  0  0.733405  0
K  K1  1  0.84708514  0.17405451  0.16182460  1  0.879473  0  0.746836  0.816631  0  0.733418  0
H  H2  1  0.95071105  0.14008144  0.71913879  1  0.053459  0  0.104155  0.076596  0  0.992593  0
H  H3  1  0.04928987  0.85991837  0.28086167  1  0.038922  0  0.104157  0.076611  0  0.992571  0
H  H4  1  0.98518541  0.12827709  0.55635592  1  0.060228  0  0.091202  0.060725  0  1.015479  0
H  H5  1  0.01481690  0.87172179  0.44364420  1  0.060232  0  0.091206  0.060763  0  1.015445  0
H  H6  1  0.25714204  0.00993601  0.52452676  1  0.017278  0  0.100119  0.067826  0  1.001604  0
H  H7  1  0.74285920  0.99006287  0.47547292  1  0.0173  0  0.100116  0.067844  0  1.001596  0
H  H8  1  0.19817666  0.17175688  0.54782278  1  0.052832  0  0.085059  0.051118  0  1.015837  0
H  H9  1  0.80182320  0.82824293  0.45217809  1  0.052816  0  0.085069  0.051139  0  1.015853  0
H  H10  1  0.39715060  0.12683250  0.62335493  1  0.04917  0  0.090158  0.058982  0  1.022579  0
H  H11  1  0.60284690  0.87317102  0.37664777  1  0.049189  0  0.090138  0.058914  0  1.02261  0
H  H12  1  0.44545700  0.96424185  0.60896360  1  0.087507  0  0.102641  0.075952  0  1.012233  0
H  H13  1  0.55454371  0.03576167  0.39103871  1  0.087666  0  0.102619  0.075896  0  1.012306  0
H  H14  1  0.50747746  0.02792116  0.77304352  1  0.003231  0  0.086871  0.046569  0  1.015053  0
H  H15  1  0.49252346  0.97207866  0.22695866  1  0.003231  0  0.086926  0.046709  0  1.01501  0
H  H16  1  0.31052692  0.07504118  0.86681790  1  0.078607  0  0.105289  0.071048  0  1.005925  0
H  H17  1  0.68947187  0.92495863  0.13318510  1  0.078645  0  0.105268  0.071091  0  1.00595  0
H  H18  1  0.31669304  0.93347786  0.02917922  1  0.080768  0  0.104951  0.069984  0  1.010845  0
H  H19  1  0.68330606  0.06652102  0.97082128  1  0.080905  0  0.104954  0.070012  0  1.010824  0
H  H20  1  0.51529185  0.86673988  0.96127196  1  0.032402  0  0.094244  0.062635  0  0.982967  0
H  H21  1  0.48470800  0.13325993  0.03872805  1  0.032408  0  0.094239  0.062634  0  0.982977  0
H  H22  1  0.46920448  0.66518053  0.95384331  1  0.019726  0  0.088127  0.051544  0  1.000494  0
H  H23  1  0.53079815  0.33481743  0.04615689  1  0.019756  0  0.08811  0.051509  0  1.000468  0
H  H24  1  0.41169076  0.71177946  0.11003210  1  0.061689  0  0.078244  0.035415  0  1.084508  0
H  H25  1  0.58831090  0.28822128  0.88996615  1  0.061632  0  0.078223  0.035397  0  1.084477  0
H  H26  1  0.21815512  0.61436835  0.21421629  1  0.038991  0  0.083265  0.044519  0  1.040014  0
H  H27  1  0.78184612  0.38563054  0.78578424  1  0.038997  0  0.083277  0.044533  0  1.040003  0
H  H28  1  0.27617712  0.54692846  0.06873299  1  0.057869  0  0.087406  0.049081  0  1.012394  0
H  H29  1  0.72382412  0.45307043  0.93126669  1  0.057875  0  0.087421  0.049108  0  1.012387  0
H  H30  1  0.00910935  0.56514726  0.21822267  1  0.05109  0  0.089659  0.056716  0  1.009228  0
H  H31  1  0.99089157  0.43485255  0.78177693  1  0.051067  0  0.089653  0.056706  0  1.009219  0
H  H32  1  0.96946608  0.73120178  0.19862216  1  0.060605  0  0.105547  0.077923  0  0.994498  0
H  H33  1  0.03053484  0.26879803  0.80137744  1  0.060588  0  0.105543  0.077918  0  0.994482  0
H  H34  1  0.79634009  0.72660466  0.12199686  1  0.025328  0  0.098447  0.06564  0  0.992049  0
H  H35  1  0.20366051  0.27339608  0.87800266  1  0.025333  0  0.098435  0.065605  0  0.992058  0
H  H36  1  0.85611486  0.56358120  0.10336254  1  0.055836  0  0.092255  0.059255  0  1.042935  0
H  H37  1  0.14388574  0.43641954  0.89663784  1  0.05582  0  0.092247  0.05924  0  1.042949  0
H  H38  1  0.95036671  0.61431642  0.86283571  1  0.071526  0  0.101881  0.075414  0  1.018502  0
H  H39  1  0.04963314  0.38568339  0.13716430  1  0.071531  0  0.101876  0.075406  0  1.01851  0
H  H40  1  0.75219011  0.66211887  0.94945724  1  0.022932  0  0.089485  0.051331  0  1.003155  0
H  H41  1  0.24780942  0.33788187  0.05054355  1  0.022925  0  0.089492  0.051322  0  1.003163  0
H  H42  1  0.74119867  0.82235606  0.76720198  1  0.028735  0  0.090335  0.061476  0  0.998298  0
H  H43  1  0.25880193  0.17764468  0.23279754  1  0.02873  0  0.090322  0.061463  0  0.998294  0
H  H44  1  0.94039488  0.76102558  0.69411559  1  0.078571  0  0.093763  0.063933  0  1.048624  0
H  H45  1  0.05960604  0.23897423  0.30588315  1  0.078563  0  0.093783  0.063979  0  1.048626  0
H  H46  1  0.82551663  0.98794326  0.62619334  1  0.020488  0  0.092403  0.056557  0  1.024286  0
H  H47  1  0.17448365  0.01205840  0.37380610  1  0.020506  0  0.092412  0.056566  0  1.024278  0
H  H48  1  0.78345452  0.02367174  0.78278763  1  0.052593  0  0.096752  0.060395  0  1.012262  0
H  H49  1  0.21654747  0.97632807  0.21721156  1  0.052586  0  0.096744  0.060383  0  1.012291  0
C  C50  1  0.27371996  0.53321127  0.63789809  1  0.927956  0  0.106845  0.271927  0  4.166812  0
C  C51  1  0.72627851  0.46678947  0.36209968  1  0.928068  0  0.106846  0.27193  0  4.167074  0
C  C52  1  0.25145841  0.49835457  0.53472462  1  0.129711  0  -0.006183  -0.023441  0  4.035575  0
C  C53  1  0.74854315  0.50164339  0.46527341  1  0.129686  0  -0.006229  -0.023457  0  4.03567  0
C  C54  1  0.34622097  0.39712334  0.46745962  1  0.069944  0  -0.00668  -0.02764  0  4.037525  0
C  C55  1  0.65377920  0.60287554  0.53253875  1  0.069932  0  -0.006651  -0.027608  0  4.037488  0
C  C56  1  0.48004494  0.31874791  0.49083393  1  0.9693  0  0.105685  0.267032  0  4.17555  0
C  C57  1  0.51995524  0.68125098  0.50916616  1  0.969355  0  0.105702  0.267041  0  4.175473  0
C  C58  1  0.49536108  0.34803021  0.60034302  1  0.027434  0  -0.007909  -0.033574  0  4.040987  0
C  C59  1  0.50463707  0.65197146  0.39965639  1  0.027446  0  -0.007905  -0.033539  0  4.041019  0
C  C60  1  0.40015091  0.44944688  0.66773631  1  0.113202  0  -0.007889  -0.039396  0  4.050548  0
C  C61  1  0.59984787  0.55055293  0.33226325  1  0.113338  0  -0.007912  -0.039433  0  4.050575  0
C  C62  1  0.02221444  0.08437543  0.63559367  1  0.41178  0  -0.078833  -0.016768  0  3.941854  0
C  C63  1  0.97778573  0.91562346  0.36440728  1  0.426292  0  -0.078846  -0.016832  0  3.941871  0
C  C64  1  0.18298769  0.08019648  0.59459151  1  0.456731  0  -0.077055  -0.004954  0  3.950222  0
C  C65  1  0.81701355  0.91980240  0.40540902  1  0.456722  0  -0.077055  -0.005007  0  3.950308  0
C  C66  1  0.37182638  0.03939078  0.67295558  1  0.394731  0  -0.078683  -0.009433  0  3.929034  0
C  C67  1  0.62817604  0.96061089  0.32704475  1  0.394492  0  -0.078603  -0.009161  0  3.92896  0
C  C68  1  0.39982618  0.01213536  0.79416128  1  0.4396  0  -0.0754  -0.005769  0  3.950807  0
C  C69  1  0.60017121  0.98786538  0.20584034  1  0.439602  0  -0.075462  -0.006107  0  3.950967  0
C  C70  1  0.40778781  0.86256278  0.96642999  1  0.434259  0  -0.074993  -0.006401  0  3.95314  0
C  C71  1  0.59221204  0.13743703  0.03356916  1  0.434065  0  -0.074999  -0.006465  0  3.953189  0
C  C72  1  0.38877069  0.73581837  0.02235378  1  0.422975  0  -0.083234  -0.012148  0  3.971012  0
C  C73  1  0.61122874  0.26417958  0.97764680  1  0.423021  0  -0.083199  -0.012044  0  3.970899  0
C  C74  1  0.20296509  0.62944111  0.12319843  1  0.424288  0  -0.078538  -0.003895  0  3.967458  0
C  C75  1  0.79703690  0.37055870  0.87680075  1  0.424285  0  -0.078583  -0.003946  0  3.967552  0
C  C76  1  0.04191474  0.64436553  0.15201430  1  0.422483  0  -0.075585  -0.0083  0  3.932011  0
C  C77  1  0.95808618  0.35563428  0.84798530  1  0.422499  0  -0.075572  -0.008263  0  3.932023  0
C  C78  1  0.87765366  0.65311471  0.05765753  1  0.465467  0  -0.077841  -0.008085  0  3.934665  0
C  C79  1  0.12234694  0.34688603  0.94234285  1  0.465407  0  -0.07781  -0.007983  0  3.934649  0
C  C80  1  0.85827259  0.67843781  0.93252035  1  0.416747  0  -0.078194  -0.007114  0  3.940461  0
C  C81  1  0.14172758  0.32156107  0.06747974  1  0.416841  0  -0.078166  -0.007067  0  3.940508  0
C  C82  1  0.84849822  0.82897358  0.75975190  1  0.427182  0  -0.081922  -0.019002  0  3.949138  0
C  C83  1  0.15150205  0.17102809  0.24024755  1  0.427179  0  -0.081886  -0.01899  0  3.949127  0
C  C84  1  0.85988048  0.95844956  0.70814291  1  0.443054  0  -0.077105  -0.004712  0  3.952783  0
C  C85  1  0.14012012  0.04155118  0.29185661  1  0.443064  0  -0.077115  -0.00473  0  3.952787  0
Cl  Cl86  1  0.09714716  0.59004663  0.50697927  1  -0.174308  0  0.031662  -0.025346  0  1.80864  0
Cl  Cl87  1  0.90285333  0.40995133  0.49301746  1  -0.174224  0  0.031638  -0.025377  0  1.808636  0
Cl  Cl88  1  0.31628707  0.35320777  0.35204582  1  -0.170944  0  0.035469  -0.018483  0  1.748827  0
Cl  Cl89  1  0.68371556  0.64679019  0.64795180  1  -0.170897  0  0.03548  -0.018482  0  1.748822  0
Cl  Cl90  1  0.63631149  0.24523570  0.64088443  1  -0.165917  0  0.047441  -0.005981  0  1.780929  0
Cl  Cl91  1  0.36368772  0.75476596  0.35911629  1  -0.165952  0  0.047439  -0.005994  0  1.780987  0
Cl  Cl92  1  0.41785696  0.48374169  0.79517990  1  -0.180843  0  0.059222  -0.005189  0  1.794681  0
Cl  Cl93  1  0.58214044  0.51625904  0.20481915  1  -0.180868  0  0.059262  -0.005135  0  1.794615  0
O  O94  1  0.18646844  0.62492837  0.69961494  1  -1.082753  0  -0.295649  -0.422852  0  2.230547  0
O  O95  1  0.81352928  0.37507144  0.30038332  1  -1.083042  0  -0.295643  -0.422847  0  2.230585  0
O  O96  1  0.57158478  0.23108458  0.42491342  1  -1.078744  0  -0.278491  -0.415281  0  2.20307  0
O  O97  1  0.42841646  0.76891430  0.57508711  1  -1.078759  0  -0.278519  -0.415312  0  2.202945  0
O  O98  1  0.99999998  0.99999888  0.00000008  1  -0.591479  0  -0.504857  -0.539272  0  0.503166  0
O  O99  1  0.00947695  0.96082415  0.66884400  1  -1.049562  0  -0.271355  -0.231626  0  2.502881  0
O  O100  1  0.99052397  0.03917566  0.33115560  1  -1.049534  0  -0.271356  -0.231607  0  2.502811  0
O  O101  1  0.21928262  0.05007041  0.70445036  1  -1.035708  0  -0.268554  -0.232035  0  2.525945  0
O  O102  1  0.78071617  0.94992940  0.29555179  1  -1.035696  0  -0.268567  -0.232066  0  2.526049  0
O  O103  1  0.40383224  0.88661468  0.84251755  1  -1.051256  0  -0.263174  -0.24147  0  2.526706  0
O  O104  1  0.59616804  0.11338699  0.15748103  1  -1.05125  0  -0.263155  -0.241392  0  2.526658  0
O  O105  1  0.23967981  0.73856570  0.05129925  1  -1.054665  0  -0.26578  -0.229328  0  2.537712  0
O  O106  1  0.76032250  0.26143318  0.94870001  1  -1.054656  0  -0.265776  -0.22938  0  2.537684  0
O  O107  1  0.02611063  0.64777675  0.03522728  1  -1.053835  0  -0.26579  -0.237711  0  2.509023  0
O  O108  1  0.97388890  0.35222399  0.96477266  1  -1.053856  0  -0.265812  -0.237771  0  2.509003  0
O  O109  1  0.85616035  0.80342979  0.88294854  1  -1.043497  0  -0.258151  -0.240669  0  2.503487  0
O  O110  1  0.14384057  0.19657002  0.11705020  1  -1.043518  0  -0.258187  -0.240711  0  2.503485  0
