# generated using pymatgen
data_ZnH30C30NO7
_symmetry_space_group_name_H-M   'P 1'
_cell_length_a   13.90684030
_cell_length_b   14.91339653
_cell_length_c   15.21328334
_cell_angle_alpha   90.09085404
_cell_angle_beta   89.43335342
_cell_angle_gamma   89.48175962
_symmetry_Int_Tables_number   1
_chemical_formula_structural   ZnH30C30NO7
_chemical_formula_sum   'Zn2 H60 C60 N2 O14'
_cell_volume   3154.92015263
_cell_formula_units_Z   2
loop_
 _symmetry_equiv_pos_site_id
 _symmetry_equiv_pos_as_xyz
  1  'x, y, z'
loop_
 _atom_site_type_symbol
 _atom_site_label
 _atom_site_symmetry_multiplicity
 _atom_site_fract_x
 _atom_site_fract_y
 _atom_site_fract_z
 _atom_site_occupancy
 _atom_site_pbe_bader_charge
 _atom_site_pbe_bader_spin_density
 _atom_site_pbe_cm5_charge
 _atom_site_pbe_ddec_charge
 _atom_site_pbe_ddec_spin_density
 _atom_site_pbe_ddec_sum_bond_order
 _atom_site_pbe_magmom
Zn  Zn0  1  0.40708667  0.50059775  0.50904371  1  1.262202  0  0.667746  0.810689  0  2.444138  0
Zn  Zn1  1  0.60579448  0.49632333  0.51285894  1  1.268064  0  0.665179  0.80699  0  2.440628  0
H  H2  1  0.38293881  0.42526899  0.24115551  1  0.058697  0  0.100139  0.103946  0  1.007703  0
H  H3  1  0.61837356  0.74797371  0.37611270  1  0.095425  0  0.106347  0.12773  0  1.029568  0
H  H4  1  0.93612688  0.63389704  0.55739019  1  0.095816  0  0.117152  0.122984  0  0.983052  0
H  H5  1  0.07550071  0.43789541  0.38202028  1  0.051764  0  0.115741  0.122835  0  0.986782  0
H  H6  1  0.94195078  0.35862866  0.46771925  1  0.08795  0  0.117082  0.124762  0  0.983465  0
H  H7  1  0.07298575  0.55857871  0.64055685  1  0.102464  0  0.11629  0.12271  0  0.985139  0
H  H8  1  0.75537590  0.62679096  0.55428747  1  0.139408  0  0.130983  0.109017  0  0.978067  0
H  H9  1  0.25620550  0.44483352  0.38522479  1  0.109478  0  0.12899  0.102434  0  0.977522  0
H  H10  1  0.76069774  0.36286812  0.47188421  1  0.153193  0  0.130782  0.108833  0  0.978121  0
H  H11  1  0.25388961  0.55618372  0.63389056  1  0.123836  0  0.134056  0.112185  0  0.962524  0
H  H12  1  0.75237757  0.56746682  0.17327259  1  0.016631  0  0.089248  0.043978  0  0.994504  0
H  H13  1  0.59481532  0.59720961  0.78040298  1  0.074478  0  0.103355  0.112601  0  0.999604  0
H  H14  1  0.71661587  0.51910938  0.27633774  1  0.069562  0  0.09411  0.063758  0  1.005049  0
H  H15  1  0.78895668  0.71182705  0.25413461  1  0.044898  0  0.093861  0.088991  0  0.970614  0
H  H16  1  0.76047859  0.65802924  0.35433033  1  0.042849  0  0.093306  0.092073  0  0.983863  0
H  H17  1  0.89329613  0.54326224  0.32533025  1  0.029724  0  0.075108  0.094379  0  1.040543  0
H  H18  1  0.94013523  0.65373486  0.32691393  1  0.030295  0  0.08502  0.112365  0  1.004326  0
H  H19  1  0.92222984  0.59818504  0.22522686  1  -0.007003  0  0.083655  0.107814  0  1.003992  0
H  H20  1  0.35362370  0.24664930  0.75453674  1  0.036266  0  0.105273  0.076718  0  0.969583  0
H  H21  1  0.40997716  0.25974151  0.85870528  1  -0.00436  0  0.088739  0.042447  0  1.004277  0
H  H22  1  0.50458981  0.30079490  0.67994060  1  0.069816  0  0.095381  0.105348  0  0.974803  0
H  H23  1  0.55867181  0.31532755  0.78353286  1  0.018331  0  0.090862  0.08652  0  0.981242  0
H  H24  1  0.66341273  0.67564562  0.07925574  1  0.073379  0  0.104054  0.10452  0  1.015274  0
H  H25  1  0.53891157  0.14742529  0.81311209  1  0.021998  0  0.081769  0.102936  0  1.010033  0
H  H26  1  0.61435360  0.17087937  0.72135302  1  0.013212  0  0.085404  0.110008  0  1.019325  0
H  H27  1  0.49502156  0.13502267  0.70443524  1  0.024895  0  0.083216  0.106171  0  1.036331  0
H  H28  1  0.41057395  0.93904520  0.65866307  1  0.032934  0  0.094959  0.050865  0  0.988495  0
H  H29  1  0.29649085  0.90960656  0.61483800  1  0.01302  0  0.097369  0.059681  0  0.967405  0
H  H30  1  0.35858876  0.10411602  0.64021189  1  0.038538  0  0.094734  0.088446  0  0.991521  0
H  H31  1  0.24206327  0.06622515  0.61595080  1  0.030078  0  0.094184  0.089349  0  0.964472  0
H  H32  1  0.23686645  0.98621662  0.76554326  1  0.018317  0  0.084642  0.10937  0  1.004686  0
H  H33  1  0.25028161  0.10391704  0.77610490  1  0.03246  0  0.087135  0.113213  0  1.009697  0
H  H34  1  0.35140528  0.03188154  0.78891061  1  0.013134  0  0.08461  0.108458  0  1.011304  0
H  H35  1  0.30939102  0.35152227  0.94280232  1  0.049619  0  0.101605  0.102909  0  1.014906  0
H  H36  1  0.58114578  0.00248567  0.60530149  1  0.030004  0  0.095382  0.055456  0  1.001017  0
H  H37  1  0.68779334  0.06506580  0.62431102  1  0.021865  0  0.088865  0.043604  0  0.993144  0
H  H38  1  0.67747462  0.86849969  0.56474639  1  0.061936  0  0.092044  0.091485  0  0.990333  0
H  H39  1  0.78558336  0.92910027  0.57556328  1  0.013064  0  0.091312  0.085554  0  0.967116  0
H  H40  1  0.75069585  0.95178064  0.73811153  1  -0.00216  0  0.08218  0.103585  0  1.010664  0
H  H41  1  0.75352839  0.83592263  0.71115602  1  0.011246  0  0.084031  0.10908  0  1.007324  0
H  H42  1  0.64161326  0.89169244  0.72741731  1  0.01364  0  0.083712  0.10811  0  1.006519  0
H  H43  1  0.34697444  0.03327852  0.20176753  1  0.047297  0  0.101112  0.065293  0  0.968584  0
H  H44  1  0.42836262  0.12377976  0.21599013  1  0.055671  0  0.098146  0.055993  0  0.98596  0
H  H45  1  0.21442835  0.13324101  0.26688940  1  0.021936  0  0.093809  0.091368  0  0.967442  0
H  H46  1  0.65594381  0.67015897  0.91646268  1  0.051145  0  0.099958  0.101193  0  0.996772  0
H  H47  1  0.29450997  0.22466571  0.26003807  1  -0.008534  0  0.086262  0.075613  0  1.00017  0
H  H48  1  0.31517222  0.19531013  0.09532058  1  0.012234  0  0.084802  0.110352  0  1.013661  0
H  H49  1  0.19406160  0.22064602  0.12451478  1  0.031228  0  0.086256  0.113145  0  1.002954  0
H  H50  1  0.22964684  0.10795309  0.10385863  1  0.018199  0  0.085832  0.110032  0  1.00393  0
H  H51  1  0.63969225  0.98553641  0.20501850  1  0.041552  0  0.099812  0.067019  0  0.961749  0
H  H52  1  0.51981899  0.97186722  0.24544456  1  0.008  0  0.095115  0.055178  0  1.02794  0
H  H53  1  0.64653607  0.82155140  0.16706502  1  0.038023  0  0.088359  0.080327  0  0.990501  0
H  H54  1  0.52706437  0.80872884  0.20387159  1  0.043735  0  0.093648  0.095101  0  0.968119  0
H  H55  1  0.47000359  0.91831553  0.08708359  1  -0.001095  0  0.080518  0.102173  0  1.01408  0
H  H56  1  0.53279601  0.82582209  0.03958960  1  0.038443  0  0.084016  0.113363  0  1.016576  0
H  H57  1  0.31113207  0.36290456  0.10512799  1  0.050418  0  0.096962  0.097321  0  1.019298  0
H  H58  1  0.59064724  0.93094769  0.05003342  1  0.00969  0  0.080045  0.100759  0  1.011387  0
H  H59  1  0.39633366  0.80210792  0.56829757  1  0.058987  0  0.101225  0.117214  0  1.032135  0
H  H60  1  0.64945398  0.20605708  0.51792433  1  0.065391  0  0.10504  0.124952  0  1.006285  0
H  H61  1  0.38777817  0.23728896  0.37239406  1  0.076408  0  0.101698  0.118667  0  1.028215  0
C  C62  1  0.51251715  0.67168398  0.50636202  1  1.564131  0  0.212002  0.597559  0  4.157586  0
C  C63  1  0.59261976  0.17683194  0.47869036  1  -0.003813  0  -0.105727  -0.230559  0  3.994208  0
C  C64  1  0.44568862  0.19413805  0.39556137  1  -0.011641  0  -0.10542  -0.231712  0  3.977977  0
C  C65  1  0.56939738  0.79509624  0.40844203  1  0.004561  0  -0.105187  -0.235878  0  3.971177  0
C  C66  1  0.50890705  0.76701489  0.47667214  1  -0.025865  0  -0.020029  0.014611  0  4.024096  0
C  C67  1  0.51743725  0.23096356  0.44814437  1  -0.049819  0  -0.022467  0.002324  0  4.01745  0
C  C68  1  0.50526311  0.94697857  0.42294386  1  0.035617  0  -0.022087  -0.114726  0  3.984874  0
C  C69  1  0.51586002  0.04553237  0.41546317  1  0.038517  0  -0.014429  -0.090586  0  3.978798  0
C  C70  1  0.90024967  0.57212613  0.53884837  1  -0.090264  0  -0.07338  -0.17315  0  3.943992  0
C  C71  1  0.11212723  0.46436874  0.43934025  1  0.065514  0  -0.075878  -0.176895  0  3.946988  0
C  C72  1  0.90350915  0.41954443  0.48735863  1  -0.002307  0  -0.076499  -0.181443  0  3.954163  0
C  C73  1  0.51196337  0.32704272  0.47641185  1  1.586581  0  0.212342  0.591152  0  4.169379  0
C  C74  1  0.11073168  0.53302187  0.58250231  1  -0.034927  0  -0.075252  -0.175963  0  3.94527  0
C  C75  1  0.80052027  0.56894293  0.53754126  1  0.53039  0  0.066439  0.111409  0  3.906781  0
C  C76  1  0.21188984  0.46800645  0.44038690  1  0.483494  0  0.065935  0.113797  0  3.916109  0
C  C77  1  0.80357277  0.42103707  0.48942069  1  0.458203  0  0.065487  0.110253  0  3.910676  0
C  C78  1  0.21059850  0.53236252  0.57942222  1  0.487443  0  0.068693  0.117424  0  3.904186  0
C  C79  1  0.95366518  0.49631001  0.51283961  1  -0.021222  0  0.01694  0.10488  0  4.002437  0
C  C80  1  0.05964311  0.49779822  0.51156367  1  -0.010489  0  0.016575  0.10601  0  4.000172  0
C  C81  1  0.49467836  0.48907874  0.68070825  1  1.575676  0  0.21623  0.610831  0  4.16704  0
C  C82  1  0.50453748  0.51487190  0.34010735  1  1.584005  0  0.21772  0.618265  0  4.159855  0
C  C83  1  0.43191203  0.46472511  0.20058456  1  0.063697  0  -0.089243  -0.146496  0  3.977896  0
C  C84  1  0.61109851  0.62616063  0.95653572  1  -0.05197  0  -0.093851  -0.135513  0  4.028843  0
C  C85  1  0.54752722  0.55625993  0.82105727  1  -0.00798  0  -0.08698  -0.138595  0  3.970578  0
C  C86  1  0.50070548  0.51734048  0.24184070  1  -0.035533  0  -0.020058  -0.112266  0  3.99875  0
C  C87  1  0.48861163  0.49419322  0.77913948  1  0.05423  0  -0.023326  -0.128623  0  3.984792  0
C  C88  1  0.56355650  0.57011461  0.19170150  1  0.494585  0  0.087767  0.180276  0  4.013625  0
C  C89  1  0.42773948  0.43897600  0.82969219  1  0.479455  0  0.088791  0.1915  0  3.995467  0
C  C90  1  0.55678978  0.57193072  0.09922663  1  0.009113  0  -0.015579  -0.023505  0  4.032269  0
C  C91  1  0.42435832  0.44743462  0.92225333  1  0.011096  0  -0.018805  -0.030831  0  4.029449  0
C  C92  1  0.48979037  0.51406469  0.05742400  1  -0.035965  0  0.000859  0.012518  0  3.928996  0
C  C93  1  0.48708233  0.50932815  0.96413170  1  -0.006741  0  0.00137  0.016175  0  3.932149  0
C  C94  1  0.42673836  0.45974033  0.10889778  1  -0.043688  0  -0.015956  0.067794  0  4.073259  0
C  C95  1  0.36075893  0.40219311  0.06504973  1  0.04863  0  -0.097806  -0.140552  0  4.034884  0
C  C96  1  0.54885892  0.56490435  0.91261638  1  -0.040411  0  -0.017188  0.060263  0  4.075492  0
C  C97  1  0.61563597  0.62923285  0.04614464  1  -0.030802  0  -0.096345  -0.127439  0  4.038958  0
C  C98  1  0.36006969  0.39541345  0.97550342  1  -0.111146  0  -0.099637  -0.131281  0  4.047884  0
C  C99  1  0.72399997  0.58253169  0.23989696  1  0.402523  0  -0.071102  0.036438  0  3.891636  0
C  C100  1  0.78958310  0.64646323  0.28770183  1  -0.023375  0  -0.167361  -0.129465  0  3.970923  0
C  C101  1  0.89193676  0.60850505  0.29161642  1  -0.065149  0  -0.245679  -0.349213  0  3.992413  0
C  C102  1  0.40789298  0.28495807  0.79038633  1  0.456143  0  -0.065156  0.040405  0  3.891013  0
C  C103  1  0.50668166  0.27440092  0.74737225  1  -0.034513  0  -0.173859  -0.142398  0  3.960953  0
C  C104  1  0.54034191  0.17653283  0.74667954  1  -0.06196  0  -0.243144  -0.34671  0  3.980204  0
C  C105  1  0.35094228  0.96300722  0.61693285  1  0.448929  0  -0.06414  0.039918  0  3.91451  0
C  C106  1  0.44309511  0.91630118  0.49045149  1  0.443792  0  0.082291  0.2239  0  4.056235  0
C  C107  1  0.30746693  0.04957098  0.65295319  1  -0.010958  0  -0.167132  -0.135563  0  3.987897  0
C  C108  1  0.28516442  0.04246668  0.75121308  1  -0.061156  0  -0.243453  -0.356642  0  3.997778  0
C  C109  1  0.65742716  0.00922947  0.58583665  1  0.43357  0  -0.066124  0.046606  0  3.899538  0
C  C110  1  0.71204643  0.92234037  0.60222212  1  -0.023958  0  -0.169032  -0.131671  0  3.977249  0
C  C111  1  0.71462723  0.89927758  0.70003584  1  -0.023478  0  -0.24378  -0.349281  0  3.996685  0
C  C112  1  0.36100478  0.09403666  0.24086570  1  0.397282  0  -0.064565  0.040613  0  3.897699  0
C  C113  1  0.27690331  0.15947346  0.23050195  1  0.016975  0  -0.170204  -0.138887  0  3.982035  0
C  C114  1  0.25262100  0.17161507  0.13328172  1  -0.054527  0  -0.243424  -0.354287  0  3.985053  0
C  C115  1  0.58916284  0.93713542  0.23392228  1  0.446467  0  -0.068234  0.033365  0  3.898689  0
C  C116  1  0.57683335  0.85670511  0.17322910  1  -0.032392  0  -0.172205  -0.138505  0  3.978607  0
C  C117  1  0.59127330  0.08500520  0.46249861  1  0.517281  0  0.080679  0.219414  0  4.062649  0
C  C118  1  0.54059852  0.88450430  0.08263042  1  -0.053631  0  -0.245263  -0.347534  0  3.989059  0
C  C119  1  0.44595418  0.10216908  0.37787427  1  0.512798  0  0.082166  0.220745  0  4.060433  0
C  C120  1  0.56623052  0.88439283  0.38099307  1  0.487061  0  0.084637  0.23135  0  4.062961  0
C  C121  1  0.44375155  0.82672720  0.51659789  1  0.024064  0  -0.117449  -0.264409  0  4.020158  0
N  N122  1  0.75333579  0.49458627  0.51370299  1  -1.214108  0  -0.315774  -0.19028  0  3.506223  0
N  N123  1  0.25990635  0.50086251  0.50933453  1  -1.215059  0  -0.314395  -0.187698  0  3.510714  0
O  O124  1  0.43557773  0.63640716  0.53542638  1  -1.178349  0  -0.327426  -0.555661  0  2.272342  0
O  O125  1  0.37076236  0.37606634  0.78984203  1  -1.066435  0  -0.209897  -0.241689  0  2.514337  0
O  O126  1  0.38755996  0.98113817  0.53056250  1  -1.07927  0  -0.18411  -0.20704  0  2.568995  0
O  O127  1  0.66359418  0.02973654  0.49344899  1  -1.078868  0  -0.207711  -0.243137  0  2.512481  0
O  O128  1  0.37508174  0.06180966  0.32925775  1  -1.073227  0  -0.205605  -0.239877  0  2.508055  0
O  O129  1  0.63052559  0.91157316  0.31698393  1  -1.073523  0  -0.208931  -0.240154  0  2.48961  0
O  O130  1  0.58789106  0.36048602  0.50947214  1  -1.184586  0  -0.322936  -0.558858  0  2.339594  0
O  O131  1  0.43205204  0.36821428  0.46768298  1  -1.172835  0  -0.319095  -0.550668  0  2.303551  0
O  O132  1  0.59405578  0.63184515  0.49906542  1  -1.169017  0  -0.320899  -0.556616  0  2.347463  0
O  O133  1  0.41739217  0.47467618  0.63896672  1  -1.158817  0  -0.314762  -0.545141  0  2.359802  0
O  O134  1  0.58338663  0.49288212  0.37563679  1  -1.162149  0  -0.307351  -0.539798  0  2.309044  0
O  O135  1  0.42525911  0.53237408  0.37952438  1  -1.166665  0  -0.318679  -0.545665  0  2.310412  0
O  O136  1  0.57725486  0.50187628  0.64633835  1  -1.166224  0  -0.319442  -0.550566  0  2.302561  0
O  O137  1  0.62973837  0.62385924  0.23269729  1  -1.082708  0  -0.199701  -0.236338  0  2.520448  0
