# generated using pymatgen
data_CdH12C16(SN3)2
_symmetry_space_group_name_H-M   'P 1'
_cell_length_a   5.72868770
_cell_length_b   7.37481964
_cell_length_c   20.42438151
_cell_angle_alpha   94.91391187
_cell_angle_beta   90.00099482
_cell_angle_gamma   90.00119953
_symmetry_Int_Tables_number   1
_chemical_formula_structural   CdH12C16(SN3)2
_chemical_formula_sum   'Cd2 H24 C32 S4 N12'
_cell_volume   859.71852780
_cell_formula_units_Z   2
loop_
 _symmetry_equiv_pos_site_id
 _symmetry_equiv_pos_as_xyz
  1  'x, y, z'
loop_
 _atom_site_type_symbol
 _atom_site_label
 _atom_site_symmetry_multiplicity
 _atom_site_fract_x
 _atom_site_fract_y
 _atom_site_fract_z
 _atom_site_occupancy
 _atom_site_hle17_bader_spin_density
 _atom_site_hle17_ddec_charge
 _atom_site_hle17_ddec_spin_density
 _atom_site_hle17_ddec_sum_bond_order
 _atom_site_hle17_magmom
 _atom_site_hse06_10hf_bader_spin_density
 _atom_site_hse06_10hf_ddec_charge
 _atom_site_hse06_10hf_ddec_spin_density
 _atom_site_hse06_10hf_ddec_sum_bond_order
 _atom_site_hse06_10hf_magmom
 _atom_site_hse06_bader_spin_density
 _atom_site_hse06_ddec_charge
 _atom_site_hse06_ddec_spin_density
 _atom_site_hse06_ddec_sum_bond_order
 _atom_site_hse06_magmom
 _atom_site_pbe_bader_spin_density
 _atom_site_pbe_cm5_charge
 _atom_site_pbe_ddec_charge
 _atom_site_pbe_ddec_spin_density
 _atom_site_pbe_ddec_sum_bond_order
 _atom_site_pbe_magmom
Cd  Cd0  1  0.00000873  0.99999998  0.99999951  1  0  1.053419  0  2.003026  0  0  0.889843  0  2.484761  0  0  0.932988  0  2.442348  0  0  0.759633  0.859723  0  2.513435  0
Cd  Cd1  1  0.49999996  0.50000006  0.49999931  1  0  1.053492  0  2.00308  0  0  0.889925  0  2.484844  0  0  0.933066  0  2.442428  0  0  0.759682  0.859806  0  2.513518  0
H  H2  1  0.40015137  0.88382734  0.62481018  1  0  0.117575  0  0.956103  0  0  0.12573  0  1.019847  0  0  0.129485  0  1.018351  0  0  0.100573  0.123081  0  1.021029  0
H  H3  1  0.09983937  0.38383944  0.12480768  1  0  0.117514  0  0.956114  0  0  0.125679  0  1.019887  0  0  0.129435  0  1.01839  0  0  0.100561  0.123029  0  1.021067  0
H  H4  1  0.59985903  0.11616472  0.37519069  1  0  0.117523  0  0.956193  0  0  0.125688  0  1.019932  0  0  0.129443  0  1.018435  0  0  0.100562  0.123041  0  1.021111  0
H  H5  1  0.90015532  0.61616503  0.87519693  1  0  0.117488  0  0.956089  0  0  0.125705  0  1.019799  0  0  0.12946  0  1.018305  0  0  0.100565  0.123051  0  1.02098  0
H  H6  1  0.15463459  0.84771301  0.72202904  1  0  0.095927  0  0.969148  0  0  0.106286  0  1.031785  0  0  0.108196  0  1.031853  0  0  0.102301  0.104915  0  1.031733  0
H  H7  1  0.34534430  0.34775641  0.22203476  1  0  0.09591  0  0.96897  0  0  0.106206  0  1.031667  0  0  0.108117  0  1.031736  0  0  0.102297  0.104831  0  1.031622  0
H  H8  1  0.84536010  0.15228163  0.27796896  1  0  0.095887  0  0.96903  0  0  0.106269  0  1.031648  0  0  0.108177  0  1.031721  0  0  0.10228  0.104894  0  1.031604  0
H  H9  1  0.65463992  0.65225772  0.77797303  1  0  0.09579  0  0.969025  0  0  0.106201  0  1.031612  0  0  0.108108  0  1.031683  0  0  0.102273  0.104826  0  1.03157  0
H  H10  1  0.68950521  0.10370568  0.84806562  1  0  0.093427  0  0.974326  0  0  0.099294  0  1.045048  0  0  0.102219  0  1.043116  0  0  0.096113  0.097197  0  1.046403  0
H  H11  1  0.81051469  0.60371312  0.34806536  1  0  0.093294  0  0.974523  0  0  0.099186  0  1.045203  0  0  0.102113  0  1.043264  0  0  0.09607  0.097088  0  1.046558  0
H  H12  1  0.31047725  0.89630693  0.15193870  1  0  0.093313  0  0.974494  0  0  0.099163  0  1.045251  0  0  0.102082  0  1.04332  0  0  0.096036  0.097067  0  1.046605  0
H  H13  1  0.18950269  0.39629836  0.65194383  1  0  0.093297  0  0.974541  0  0  0.099184  0  1.045214  0  0  0.102099  0  1.04329  0  0  0.096054  0.097084  0  1.046573  0
H  H14  1  0.93318939  0.14449848  0.75081964  1  0  0.100791  0  0.986432  0  0  0.110601  0  1.049645  0  0  0.112776  0  1.051215  0  0  0.09754  0.109086  0  1.048682  0
H  H15  1  0.56682546  0.64448845  0.25081785  1  0  0.100825  0  0.986433  0  0  0.110586  0  1.049709  0  0  0.112758  0  1.051282  0  0  0.097538  0.109079  0  1.048713  0
H  H16  1  0.06680879  0.85550191  0.24918486  1  0  0.100816  0  0.986398  0  0  0.110548  0  1.04973  0  0  0.11272  0  1.051306  0  0  0.097534  0.109053  0  1.048697  0
H  H17  1  0.43317970  0.35551897  0.74919173  1  0  0.100817  0  0.986486  0  0  0.110583  0  1.049754  0  0  0.112732  0  1.051384  0  0  0.097588  0.109085  0  1.04873  0
H  H18  1  0.97972840  0.09452052  0.63111267  1  0  0.31073  0  0.917263  0  0  0.293872  0  0.984807  0  0  0.299294  0  0.982136  0  0  0.296425  0.290036  0  0.986704  0
H  H19  1  0.52025938  0.59455246  0.13112540  1  0  0.310725  0  0.917325  0  0  0.293961  0  0.984675  0  0  0.299384  0  0.982  0  0  0.296485  0.290124  0  0.986581  0
H  H20  1  0.02027153  0.90547274  0.36888481  1  0  0.310715  0  0.917268  0  0  0.293851  0  0.984824  0  0  0.299272  0  0.982151  0  0  0.296422  0.290015  0  0.986725  0
H  H21  1  0.47971960  0.40545787  0.86888817  1  0  0.310755  0  0.917433  0  0  0.293984  0  0.984852  0  0  0.299408  0  0.982173  0  0  0.296488  0.290152  0  0.986746  0
H  H22  1  0.76815208  0.98646140  0.58166454  1  0  0.307748  0  0.94007  0  0  0.289401  0  1.009761  0  0  0.295511  0  1.006239  0  0  0.283063  0.285104  0  1.012181  0
H  H23  1  0.73182376  0.48649433  0.08166868  1  0  0.307565  0  0.940138  0  0  0.289239  0  1.009832  0  0  0.295349  0  1.006313  0  0  0.282974  0.284948  0  1.01224  0
H  H24  1  0.23185483  0.01352660  0.41833672  1  0  0.30763  0  0.940227  0  0  0.28934  0  1.009872  0  0  0.29545  0  1.006351  0  0  0.282978  0.28504  0  1.012299  0
H  H25  1  0.26816395  0.51351180  0.91834234  1  0  0.307905  0  0.939995  0  0  0.28954  0  1.009733  0  0  0.29565  0  1.006209  0  0  0.283052  0.285243  0  1.012155  0
C  C26  1  0.49714706  0.23176219  0.00305280  1  0  0.311524  0  3.992059  0  0  0.288842  0  4.295222  0  0  0.309991  0  4.310824  0  0  0.148964  0.274511  0  4.284122  0
C  C27  1  0.00285474  0.73175441  0.50303901  1  0  0.311471  0  3.992171  0  0  0.288778  0  4.295349  0  0  0.309929  0  4.310954  0  0  0.149021  0.274441  0  4.284244  0
C  C28  1  0.50287904  0.76824826  0.99693433  1  0  0.311438  0  3.992646  0  0  0.288742  0  4.295795  0  0  0.309883  0  4.311396  0  0  0.148841  0.274418  0  4.284688  0
C  C29  1  0.99711202  0.26824042  0.49693402  1  0  0.311401  0  3.992663  0  0  0.288702  0  4.295842  0  0  0.309848  0  4.311439  0  0  0.148882  0.274374  0  4.284742  0
C  C30  1  0.68365565  0.01966038  0.68051304  1  0  0.352492  0  3.835453  0  0  0.344912  0  4.078331  0  0  0.360344  0  4.09527  0  0  0.116279  0.334691  0  4.066468  0
C  C31  1  0.81633271  0.51967023  0.18051133  1  0  0.352574  0  3.835243  0  0  0.344928  0  4.078242  0  0  0.360358  0  4.095188  0  0  0.116257  0.334704  0  4.066381  0
C  C32  1  0.31634602  0.98033035  0.31948829  1  0  0.352643  0  3.835385  0  0  0.345071  0  4.078256  0  0  0.360497  0  4.095204  0  0  0.116295  0.33485  0  4.066395  0
C  C33  1  0.18367419  0.48032070  0.81949441  1  0  0.352803  0  3.834915  0  0  0.345033  0  4.078077  0  0  0.360462  0  4.095025  0  0  0.116371  0.334814  0  4.066207  0
C  C34  1  0.46120270  0.93495343  0.67352119  1  0  -0.199666  0  3.710912  0  0  -0.212231  0  3.95843  0  0  -0.221792  0  3.978194  0  0  -0.104943  -0.206062  0  3.945133  0
C  C35  1  0.03879817  0.43496418  0.17352487  1  0  -0.199606  0  3.711224  0  0  -0.21217  0  3.958699  0  0  -0.221731  0  3.978472  0  0  -0.104832  -0.205987  0  3.945393  0
C  C36  1  0.53880595  0.06503993  0.32647825  1  0  -0.199648  0  3.710983  0  0  -0.21222  0  3.958478  0  0  -0.221779  0  3.978251  0  0  -0.104915  -0.206051  0  3.94518  0
C  C37  1  0.96119826  0.56503491  0.82648108  1  0  -0.199626  0  3.710999  0  0  -0.212178  0  3.9585  0  0  -0.221739  0  3.978279  0  0  -0.104873  -0.205992  0  3.945183  0
C  C38  1  0.32411244  0.91403488  0.72788767  1  0  -0.059875  0  3.767966  0  0  -0.084316  0  4.017718  0  0  -0.079372  0  4.03647  0  0  -0.080198  -0.0872  0  4.004801  0
C  C39  1  0.17587367  0.41406991  0.22788875  1  0  -0.05977  0  3.768259  0  0  -0.084124  0  4.018068  0  0  -0.079209  0  4.036803  0  0  -0.080237  -0.087011  0  4.005157  0
C  C40  1  0.67587875  0.08595301  0.27211114  1  0  -0.059815  0  3.767972  0  0  -0.084222  0  4.01775  0  0  -0.079307  0  4.036482  0  0  -0.080146  -0.087101  0  4.004837  0
C  C41  1  0.82412975  0.58594127  0.77211407  1  0  -0.059802  0  3.768372  0  0  -0.084187  0  4.018213  0  0  -0.079272  0  4.036952  0  0  -0.080263  -0.087072  0  4.005296  0
C  C42  1  0.40266034  0.97762913  0.79143555  1  0  -0.055871  0  3.932794  0  0  -0.032092  0  4.166728  0  0  -0.041968  0  4.190008  0  0  -0.029227  -0.025722  0  4.15114  0
C  C43  1  0.09734720  0.47766323  0.29143655  1  0  -0.056067  0  3.932888  0  0  -0.032401  0  4.166958  0  0  -0.042211  0  4.190142  0  0  -0.029189  -0.026038  0  4.151389  0
C  C44  1  0.59733260  0.02236838  0.20856545  1  0  -0.055903  0  3.932748  0  0  -0.032275  0  4.166884  0  0  -0.042065  0  4.190035  0  0  -0.02924  -0.025913  0  4.151304  0
C  C45  1  0.90267018  0.52234813  0.70857019  1  0  -0.05578  0  3.932209  0  0  -0.032298  0  4.166564  0  0  -0.042078  0  4.189704  0  0  -0.029114  -0.025937  0  4.150986  0
C  C46  1  0.62561586  0.05874509  0.79900897  1  0  -0.056917  0  3.76516  0  0  -0.079502  0  4.012308  0  0  -0.074181  0  4.029189  0  0  -0.080084  -0.082612  0  4.000654  0
C  C47  1  0.87439631  0.55876501  0.29901061  1  0  -0.056579  0  3.764926  0  0  -0.079113  0  4.012018  0  0  -0.073809  0  4.028883  0  0  -0.079953  -0.082218  0  4.000365  0
C  C48  1  0.37437533  0.94125783  0.20099169  1  0  -0.056832  0  3.764985  0  0  -0.079351  0  4.012151  0  0  -0.074048  0  4.029002  0  0  -0.080084  -0.082461  0  4.000501  0
C  C49  1  0.12562456  0.44123946  0.70099399  1  0  -0.056804  0  3.764959  0  0  -0.079272  0  4.012121  0  0  -0.073966  0  4.028963  0  0  -0.080093  -0.082373  0  4.000467  0
C  C50  1  0.76245305  0.08027589  0.74462637  1  0  -0.21109  0  3.734908  0  0  -0.224531  0  3.98424  0  0  -0.234663  0  4.005591  0  0  -0.107658  -0.218026  0  3.969899  0
C  C51  1  0.73754952  0.58028624  0.24462560  1  0  -0.211291  0  3.734582  0  0  -0.224685  0  3.983936  0  0  -0.234821  0  4.005293  0  0  -0.107747  -0.21817  0  3.969604  0
C  C52  1  0.23754164  0.91971898  0.25537653  1  0  -0.211108  0  3.734774  0  0  -0.224502  0  3.984064  0  0  -0.234634  0  4.005417  0  0  -0.10762  -0.217985  0  3.969736  0
C  C53  1  0.26245739  0.41971827  0.75537999  1  0  -0.211211  0  3.734838  0  0  -0.224577  0  3.98423  0  0  -0.234709  0  4.005568  0  0  -0.10774  -0.21806  0  3.969905  0
C  C54  1  0.25738931  0.97001351  0.84653638  1  0  0.345683  0  3.744577  0  0  0.324339  0  4.006809  0  0  0.341755  0  4.023109  0  0  0.211744  0.312367  0  3.996075  0
C  C55  1  0.24258599  0.47002569  0.34654190  1  0  0.345808  0  3.744289  0  0  0.324513  0  4.00652  0  0  0.341912  0  4.022795  0  0  0.211788  0.312544  0  3.995794  0
C  C56  1  0.74258967  0.02999200  0.15346140  1  0  0.345657  0  3.744556  0  0  0.324357  0  4.006822  0  0  0.341746  0  4.023096  0  0  0.211714  0.312391  0  3.996087  0
C  C57  1  0.75739648  0.52997184  0.65345959  1  0  0.345555  0  3.744685  0  0  0.324312  0  4.006988  0  0  0.341698  0  4.023257  0  0  0.211672  0.312344  0  3.996263  0
S  S58  1  0.74494854  0.30395951  0.97501459  1  0  -0.333849  0  2.145196  0  0  -0.295466  0  2.46839  0  0  -0.311778  0  2.460691  0  0  -0.122014  -0.284067  0  2.473328  0
S  S59  1  0.75507398  0.80394007  0.47500221  1  0  -0.333781  0  2.14567  0  0  -0.295377  0  2.468837  0  0  -0.311688  0  2.46114  0  0  -0.121956  -0.283974  0  2.473762  0
S  S60  1  0.25507582  0.69605107  0.02497548  1  0  -0.333949  0  2.145255  0  0  -0.295542  0  2.468415  0  0  -0.311856  0  2.460716  0  0  -0.121963  -0.284141  0  2.473341  0
S  S61  1  0.24492769  0.19604282  0.52497689  1  0  -0.333891  0  2.145042  0  0  -0.295486  0  2.468198  0  0  -0.3118  0  2.460497  0  0  -0.121957  -0.284074  0  2.473128  0
N  N62  1  0.31827282  0.18316612  0.02455224  1  0  -0.541262  0  2.870905  0  0  -0.48842  0  3.147513  0  0  -0.509898  0  3.155677  0  0  -0.392863  -0.473666  0  3.141558  0
N  N63  1  0.18173956  0.68314968  0.52453577  1  0  -0.541331  0  2.870603  0  0  -0.488499  0  3.147249  0  0  -0.50998  0  3.155419  0  0  -0.393003  -0.473739  0  3.141289  0
N  N64  1  0.68172711  0.81682802  0.97543497  1  0  -0.541074  0  2.871301  0  0  -0.488213  0  3.147827  0  0  -0.50968  0  3.155984  0  0  -0.392782  -0.47347  0  3.141878  0
N  N65  1  0.81826211  0.31683150  0.47543594  1  0  -0.541065  0  2.871485  0  0  -0.488215  0  3.148039  0  0  -0.509683  0  3.156195  0  0  -0.392823  -0.473473  0  3.1421  0
N  N66  1  0.81695284  0.04101580  0.62711623  1  0  -0.633469  0  3.173702  0  0  -0.592079  0  3.395759  0  0  -0.614114  0  3.399301  0  0  -0.575802  -0.576529  0  3.392752  0
N  N67  1  0.68302783  0.54103391  0.12711840  1  0  -0.633269  0  3.173794  0  0  -0.591949  0  3.395799  0  0  -0.613983  0  3.399343  0  0  -0.57576  -0.576406  0  3.392792  0
N  N68  1  0.18305581  0.95896270  0.37288529  1  0  -0.6335  0  3.173816  0  0  -0.592153  0  3.39577  0  0  -0.614192  0  3.399318  0  0  -0.575812  -0.576604  0  3.392771  0
N  N69  1  0.31696336  0.45897213  0.87289065  1  0  -0.633742  0  3.173788  0  0  -0.592395  0  3.395795  0  0  -0.614429  0  3.399331  0  0  -0.575897  -0.576854  0  3.392803  0
N  N70  1  0.13449638  0.96936069  0.89213520  1  0  -0.470616  0  2.843114  0  0  -0.419585  0  3.113407  0  0  -0.438316  0  3.122158  0  0  -0.340036  -0.40701  0  3.107627  0
N  N71  1  0.36551899  0.46934879  0.39213846  1  0  -0.470752  0  2.842911  0  0  -0.419722  0  3.113199  0  0  -0.438458  0  3.121953  0  0  -0.340117  -0.407148  0  3.107426  0
N  N72  1  0.86547562  0.03065162  0.10786275  1  0  -0.470545  0  2.843032  0  0  -0.419505  0  3.113294  0  0  -0.438237  0  3.122053  0  0  -0.339956  -0.406935  0  3.107515  0
N  N73  1  0.63452633  0.53065422  0.60786416  1  0  -0.470569  0  2.843538  0  0  -0.41954  0  3.113819  0  0  -0.438269  0  3.122572  0  0  -0.340015  -0.406971  0  3.108042  0
