# generated using pymatgen
data_LaH6C5O8
_symmetry_space_group_name_H-M   'P 1'
_cell_length_a   6.93808911
_cell_length_b   6.93823686
_cell_length_c   17.41521948
_cell_angle_alpha   90.00003165
_cell_angle_beta   90.00071274
_cell_angle_gamma   105.10114805
_symmetry_Int_Tables_number   1
_chemical_formula_structural   LaH6C5O8
_chemical_formula_sum   'La4 H24 C20 O32'
_cell_volume   809.38577248
_cell_formula_units_Z   4
loop_
 _symmetry_equiv_pos_site_id
 _symmetry_equiv_pos_as_xyz
  1  'x, y, z'
loop_
 _atom_site_type_symbol
 _atom_site_label
 _atom_site_symmetry_multiplicity
 _atom_site_fract_x
 _atom_site_fract_y
 _atom_site_fract_z
 _atom_site_occupancy
 _atom_site_hle17_bader_spin_density
 _atom_site_hle17_ddec_charge
 _atom_site_hle17_ddec_spin_density
 _atom_site_hle17_ddec_sum_bond_order
 _atom_site_hle17_magmom
 _atom_site_hse06_10hf_bader_spin_density
 _atom_site_hse06_10hf_ddec_charge
 _atom_site_hse06_10hf_ddec_spin_density
 _atom_site_hse06_10hf_ddec_sum_bond_order
 _atom_site_hse06_10hf_magmom
 _atom_site_hse06_bader_spin_density
 _atom_site_hse06_ddec_charge
 _atom_site_hse06_ddec_spin_density
 _atom_site_hse06_ddec_sum_bond_order
 _atom_site_hse06_magmom
 _atom_site_pbe_bader_spin_density
 _atom_site_pbe_cm5_charge
 _atom_site_pbe_ddec_charge
 _atom_site_pbe_ddec_spin_density
 _atom_site_pbe_ddec_sum_bond_order
 _atom_site_pbe_magmom
La  La0  1  0.76449445  0.58224640  0.91725999  1  0  2.118239  0  1.734091  0  0  1.990223  0  2.229771  0  0  2.09273  0  2.13127  0  0  1.391329  1.912605  0  2.299501  0
La  La1  1  0.23550883  0.91775409  0.41726387  1  0  2.118307  0  1.734063  0  0  1.990243  0  2.229822  0  0  2.092744  0  2.131332  0  0  1.391363  1.912616  0  2.29956  0
La  La2  1  0.23550870  0.41775330  0.08273975  1  0  2.118172  0  1.734246  0  0  1.990185  0  2.229866  0  0  2.092695  0  2.13136  0  0  1.391323  1.912562  0  2.299606  0
La  La3  1  0.76449432  0.08224561  0.58273587  1  0  2.11828  0  1.734109  0  0  1.990267  0  2.229784  0  0  2.092764  0  2.131299  0  0  1.391367  1.912651  0  2.299524  0
H  H4  1  0.47719557  0.16253950  0.94756204  1  0  0.438019  0  0.857725  0  0  0.407926  0  0.919507  0  0  0.420513  0  0.901059  0  0  0.303228  0.398827  0  0.93284  0
H  H5  1  0.52280462  0.33746022  0.44756273  1  0  0.438043  0  0.857714  0  0  0.407945  0  0.919502  0  0  0.420533  0  0.901052  0  0  0.303241  0.398842  0  0.93284  0
H  H6  1  0.52280287  0.83745872  0.05243713  1  0  0.437931  0  0.857849  0  0  0.407828  0  0.91965  0  0  0.420415  0  0.901201  0  0  0.303167  0.398726  0  0.932987  0
H  H7  1  0.47719525  0.66253800  0.55243759  1  0  0.438012  0  0.85774  0  0  0.407913  0  0.91953  0  0  0.4205  0  0.901082  0  0  0.30322  0.39881  0  0.932868  0
H  H8  1  0.64048879  0.08947926  0.89962161  1  0  0.439346  0  0.848808  0  0  0.41331  0  0.903918  0  0  0.423452  0  0.88928  0  0  0.307231  0.405919  0  0.914587  0
H  H9  1  0.35951057  0.41052295  0.39962266  1  0  0.439354  0  0.848802  0  0  0.413326  0  0.903897  0  0  0.423467  0  0.889261  0  0  0.307236  0.405935  0  0.914567  0
H  H10  1  0.35951004  0.91052045  0.10037813  1  0  0.439378  0  0.848752  0  0  0.413357  0  0.903837  0  0  0.423497  0  0.889201  0  0  0.307276  0.40597  0  0.914502  0
H  H11  1  0.64048930  0.58947527  0.60037766  1  0  0.439334  0  0.848818  0  0  0.413301  0  0.903923  0  0  0.423442  0  0.889287  0  0  0.307228  0.40591  0  0.914591  0
H  H12  1  0.06229667  0.45183713  0.70115071  1  0  0.103461  0  0.972917  0  0  0.108827  0  1.04268  0  0  0.111584  0  1.040536  0  0  0.11871  0.106799  0  1.044434  0
H  H13  1  0.93770853  0.04816150  0.20115512  1  0  0.103525  0  0.972931  0  0  0.10886  0  1.042746  0  0  0.111611  0  1.0406  0  0  0.118712  0.10683  0  1.044501  0
H  H14  1  0.93770360  0.54816258  0.29884789  1  0  0.103438  0  0.972945  0  0  0.108853  0  1.042678  0  0  0.111607  0  1.040531  0  0  0.118703  0.10682  0  1.044435  0
H  H15  1  0.06228886  0.95183822  0.79884520  1  0  0.103514  0  0.972887  0  0  0.108838  0  1.042712  0  0  0.11159  0  1.040567  0  0  0.118717  0.106808  0  1.044466  0
H  H16  1  0.01051628  0.68617270  0.68606553  1  0  0.101582  0  0.914776  0  0  0.113204  0  0.973941  0  0  0.115161  0  0.972684  0  0  0.116282  0.111763  0  0.975031  0
H  H17  1  0.98948388  0.81382690  0.18606968  1  0  0.101564  0  0.914669  0  0  0.113201  0  0.973856  0  0  0.115151  0  0.972601  0  0  0.116265  0.111753  0  0.974957  0
H  H18  1  0.98948215  0.31382552  0.31393479  1  0  0.101524  0  0.914704  0  0  0.113168  0  0.973877  0  0  0.115121  0  0.972619  0  0  0.116258  0.111726  0  0.974971  0
H  H19  1  0.01051534  0.18617431  0.81393007  1  0  0.101532  0  0.914686  0  0  0.113168  0  0.973872  0  0  0.11512  0  0.972615  0  0  0.11625  0.111724  0  0.974966  0
H  H20  1  0.34027305  0.75856656  0.82015080  1  0  0.119206  0  0.926407  0  0  0.122922  0  0.994687  0  0  0.127635  0  0.98911  0  0  0.11902  0.119457  0  0.998984  0
H  H21  1  0.65972917  0.74143592  0.32015157  1  0  0.119234  0  0.926427  0  0  0.122951  0  0.994682  0  0  0.127661  0  0.989102  0  0  0.11903  0.119484  0  0.998976  0
H  H22  1  0.65972578  0.24143316  0.17984895  1  0  0.119264  0  0.926352  0  0  0.122965  0  0.994644  0  0  0.127678  0  0.989063  0  0  0.11903  0.119496  0  0.998939  0
H  H23  1  0.34027254  0.25856379  0.67984875  1  0  0.119204  0  0.926427  0  0  0.122918  0  0.99469  0  0  0.127628  0  0.989109  0  0  0.119018  0.119454  0  0.998983  0
H  H24  1  0.29795834  0.51466028  0.78209372  1  0  0.1107  0  0.912456  0  0  0.121947  0  0.972132  0  0  0.124439  0  0.96952  0  0  0.122448  0.120098  0  0.974259  0
H  H25  1  0.70204403  0.98534180  0.28209476  1  0  0.110704  0  0.912506  0  0  0.121969  0  0.972147  0  0  0.124459  0  0.969535  0  0  0.12247  0.120118  0  0.974272  0
H  H26  1  0.70204049  0.48533943  0.21790660  1  0  0.110773  0  0.912339  0  0  0.121951  0  0.972068  0  0  0.124441  0  0.969458  0  0  0.122479  0.120101  0  0.974191  0
H  H27  1  0.29795703  0.01466090  0.71790613  1  0  0.110714  0  0.912476  0  0  0.121951  0  0.972148  0  0  0.124438  0  0.969535  0  0  0.122447  0.120097  0  0.974276  0
C  C28  1  0.98018902  0.55462653  0.72430976  1  0  -0.096856  0  3.631459  0  0  -0.148257  0  3.891735  0  0  -0.146026  0  3.892938  0  0  -0.067143  -0.149963  0  3.891094  0
C  C29  1  0.01981427  0.94537495  0.22431429  1  0  -0.096846  0  3.631317  0  0  -0.148269  0  3.89167  0  0  -0.146014  0  3.892839  0  0  -0.067121  -0.149967  0  3.891036  0
C  C30  1  0.01980693  0.44537320  0.27568827  1  0  -0.096697  0  3.631295  0  0  -0.148202  0  3.891622  0  0  -0.14595  0  3.892795  0  0  -0.067108  -0.149903  0  3.890982  0
C  C31  1  0.98018534  0.05462775  0.77568603  1  0  -0.096788  0  3.631262  0  0  -0.148183  0  3.891626  0  0  -0.145924  0  3.892792  0  0  -0.067103  -0.14988  0  3.890983  0
C  C32  1  0.75737077  0.45458656  0.72218863  1  0  0.70213  0  3.861006  0  0  0.652259  0  4.170739  0  0  0.686529  0  4.163402  0  0  0.224939  0.628608  0  4.175063  0
C  C33  1  0.24263553  0.04541378  0.22219534  1  0  0.702166  0  3.861169  0  0  0.652279  0  4.170938  0  0  0.686544  0  4.163596  0  0  0.224992  0.628635  0  4.175259  0
C  C34  1  0.24263054  0.54541165  0.27781169  1  0  0.702052  0  3.861032  0  0  0.652244  0  4.170707  0  0  0.686508  0  4.16337  0  0  0.224968  0.628596  0  4.175029  0
C  C35  1  0.75736264  0.95458893  0.77780498  1  0  0.702108  0  3.861191  0  0  0.652195  0  4.170999  0  0  0.686461  0  4.163659  0  0  0.224972  0.628545  0  4.175321  0
C  C36  1  0.23752556  0.60830734  0.82171984  1  0  -0.087492  0  3.614643  0  0  -0.139364  0  3.873393  0  0  -0.136635  0  3.871511  0  0  -0.059875  -0.141547  0  3.875175  0
C  C37  1  0.76247632  0.89169366  0.32172116  1  0  -0.087583  0  3.614742  0  0  -0.139468  0  3.873386  0  0  -0.136721  0  3.871483  0  0  -0.059925  -0.141636  0  3.875145  0
C  C38  1  0.76247327  0.39169238  0.17828048  1  0  -0.087652  0  3.614525  0  0  -0.139473  0  3.873226  0  0  -0.136739  0  3.871342  0  0  -0.059954  -0.141644  0  3.87499  0
C  C39  1  0.23752578  0.10830754  0.67827916  1  0  -0.08758  0  3.614705  0  0  -0.139384  0  3.873346  0  0  -0.136629  0  3.871438  0  0  -0.059871  -0.141555  0  3.875117  0
C  C40  1  0.23445653  0.52454733  0.90203636  1  0  0.71628  0  3.837637  0  0  0.665862  0  4.142541  0  0  0.702306  0  4.134694  0  0  0.231554  0.640599  0  4.147102  0
C  C41  1  0.76554361  0.97544853  0.40203885  1  0  0.716082  0  3.837904  0  0  0.665794  0  4.142571  0  0  0.702227  0  4.134738  0  0  0.23145  0.640526  0  4.147132  0
C  C42  1  0.76554190  0.47545089  0.09796339  1  0  0.716106  0  3.837903  0  0  0.665798  0  4.142609  0  0  0.702236  0  4.134775  0  0  0.231437  0.64053  0  4.147172  0
C  C43  1  0.23445587  0.02454819  0.59796261  1  0  0.716303  0  3.837662  0  0  0.665925  0  4.142475  0  0  0.702357  0  4.134637  0  0  0.231584  0.640657  0  4.147037  0
C  C44  1  0.09572853  0.99699965  0.97745802  1  0  0.565585  0  3.89726  0  0  0.519076  0  4.20066  0  0  0.550759  0  4.192744  0  0  0.227939  0.49728  0  4.205376  0
C  C45  1  0.90427653  0.50300594  0.47745594  1  0  0.56555  0  3.897121  0  0  0.519097  0  4.20046  0  0  0.55078  0  4.192545  0  0  0.227955  0.497299  0  4.205178  0
C  C46  1  0.90427515  0.00300752  0.02254230  1  0  0.565534  0  3.897039  0  0  0.519055  0  4.200411  0  0  0.550736  0  4.192497  0  0  0.227929  0.49726  0  4.205129  0
C  C47  1  0.09573147  0.49700121  0.52254323  1  0  0.565546  0  3.897185  0  0  0.518984  0  4.200666  0  0  0.550668  0  4.19275  0  0  0.227871  0.497185  0  4.205383  0
O  O48  1  0.03833116  0.60998886  0.80143709  1  0  -0.318374  0  2.458492  0  0  -0.246109  0  2.706977  0  0  -0.266657  0  2.713443  0  0  -0.245761  -0.231051  0  2.701844  0
O  O49  1  0.96166898  0.89001344  0.30143997  1  0  -0.318395  0  2.458493  0  0  -0.246139  0  2.706991  0  0  -0.266704  0  2.713455  0  0  -0.245806  -0.231081  0  2.70185  0
O  O50  1  0.96166911  0.39001086  0.19856208  1  0  -0.318376  0  2.458518  0  0  -0.2461  0  2.706983  0  0  -0.266658  0  2.713449  0  0  -0.245751  -0.231041  0  2.701849  0
O  O51  1  0.03833351  0.10998925  0.69856035  1  0  -0.318382  0  2.458477  0  0  -0.246156  0  2.706963  0  0  -0.266727  0  2.713426  0  0  -0.245824  -0.231095  0  2.701825  0
O  O52  1  0.65470418  0.45785116  0.78173687  1  0  -0.656613  0  1.97027  0  0  -0.61415  0  2.219609  0  0  -0.645502  0  2.210709  0  0  -0.354422  -0.591566  0  2.224907  0
O  O53  1  0.34529877  0.04215130  0.28174236  1  0  -0.656692  0  1.970666  0  0  -0.614196  0  2.219994  0  0  -0.645546  0  2.211091  0  0  -0.35444  -0.59161  0  2.225292  0
O  O54  1  0.34529753  0.54214854  0.21826288  1  0  -0.656633  0  1.970339  0  0  -0.61418  0  2.219623  0  0  -0.645533  0  2.210728  0  0  -0.35445  -0.591601  0  2.224934  0
O  O55  1  0.65469940  0.95785141  0.71825739  1  0  -0.656674  0  1.970666  0  0  -0.614159  0  2.219978  0  0  -0.645508  0  2.21108  0  0  -0.354449  -0.591584  0  2.225298  0
O  O56  1  0.69024935  0.37658677  0.65783498  1  0  -0.71008  0  2.012727  0  0  -0.658396  0  2.261344  0  0  -0.690505  0  2.25194  0  0  -0.36373  -0.635093  0  2.267052  0
O  O57  1  0.30974941  0.12341443  0.15784031  1  0  -0.710085  0  2.012748  0  0  -0.658367  0  2.261317  0  0  -0.690478  0  2.251913  0  0  -0.363746  -0.635064  0  2.26703  0
O  O58  1  0.30974987  0.62341444  0.34216419  1  0  -0.710023  0  2.012747  0  0  -0.658361  0  2.26135  0  0  -0.690469  0  2.251946  0  0  -0.363727  -0.635058  0  2.267064  0
O  O59  1  0.69024157  0.87658831  0.84216059  1  0  -0.710093  0  2.012656  0  0  -0.658348  0  2.261224  0  0  -0.690459  0  2.251822  0  0  -0.363735  -0.635049  0  2.266939  0
O  O60  1  0.39874897  0.53943969  0.93662835  1  0  -0.699477  0  2.048216  0  0  -0.646847  0  2.30785  0  0  -0.683944  0  2.300286  0  0  -0.381143  -0.619757  0  2.311989  0
O  O61  1  0.60125064  0.96056102  0.43663060  1  0  -0.6993  0  2.048258  0  0  -0.646734  0  2.307845  0  0  -0.683826  0  2.300288  0  0  -0.381033  -0.619643  0  2.311984  0
O  O62  1  0.60125090  0.46055853  0.06337025  1  0  -0.699318  0  2.048313  0  0  -0.646759  0  2.307918  0  0  -0.683856  0  2.300359  0  0  -0.381015  -0.619669  0  2.312059  0
O  O63  1  0.39874635  0.03943721  0.56337144  1  0  -0.699467  0  2.048264  0  0  -0.646855  0  2.30788  0  0  -0.683948  0  2.300319  0  0  -0.381129  -0.619765  0  2.31202  0
O  O64  1  0.06810490  0.44126441  0.93339184  1  0  -0.709642  0  2.058014  0  0  -0.66448  0  2.315486  0  0  -0.700957  0  2.310441  0  0  -0.369322  -0.637887  0  2.317787  0
O  O65  1  0.93189521  0.05873666  0.43339393  1  0  -0.709643  0  2.058153  0  0  -0.664477  0  2.315486  0  0  -0.700945  0  2.310436  0  0  -0.36931  -0.637882  0  2.31779  0
O  O66  1  0.93189353  0.55873382  0.06660676  1  0  -0.709593  0  2.058068  0  0  -0.664444  0  2.315453  0  0  -0.700908  0  2.310388  0  0  -0.36928  -0.63785  0  2.317754  0
O  O67  1  0.06810532  0.94125857  0.56660812  1  0  -0.709677  0  2.058022  0  0  -0.664536  0  2.315468  0  0  -0.700996  0  2.310398  0  0  -0.369363  -0.637945  0  2.31777  0
O  O68  1  0.08194529  0.85829140  0.92952921  1  0  -0.620191  0  2.097338  0  0  -0.581839  0  2.354735  0  0  -0.612384  0  2.348322  0  0  -0.349753  -0.559838  0  2.358283  0
O  O69  1  0.91805657  0.64170773  0.42952837  1  0  -0.620181  0  2.09738  0  0  -0.581838  0  2.354769  0  0  -0.612384  0  2.348365  0  0  -0.349752  -0.559836  0  2.35831  0
O  O70  1  0.91805969  0.14170978  0.07047226  1  0  -0.620166  0  2.097279  0  0  -0.581791  0  2.354617  0  0  -0.612339  0  2.348211  0  0  -0.349739  -0.559789  0  2.358161  0
O  O71  1  0.08194435  0.35828899  0.57047023  1  0  -0.62019  0  2.097256  0  0  -0.581826  0  2.354675  0  0  -0.612372  0  2.348268  0  0  -0.349753  -0.559825  0  2.358216  0
O  O72  1  0.25223819  0.13416030  0.99222356  1  0  -0.636325  0  2.127064  0  0  -0.581388  0  2.362886  0  0  -0.612178  0  2.354305  0  0  -0.339143  -0.55933  0  2.368259  0
O  O73  1  0.74776117  0.36584736  0.49222595  1  0  -0.636335  0  2.126879  0  0  -0.581384  0  2.362652  0  0  -0.612175  0  2.354072  0  0  -0.339148  -0.559329  0  2.368027  0
O  O74  1  0.74776222  0.86584539  0.00777388  1  0  -0.636339  0  2.12688  0  0  -0.581383  0  2.362663  0  0  -0.612173  0  2.354082  0  0  -0.339143  -0.559326  0  2.36804  0
O  O75  1  0.25224093  0.63415384  0.50777437  1  0  -0.636306  0  2.127127  0  0  -0.581311  0  2.362936  0  0  -0.6121  0  2.354354  0  0  -0.339096  -0.559256  0  2.36831  0
O  O76  1  0.61293790  0.20731997  0.92415182  1  0  -0.879438  0  1.817503  0  0  -0.834736  0  2.001497  0  0  -0.860332  0  1.967693  0  0  -0.632395  -0.81593  0  2.025348  0
O  O77  1  0.38706294  0.29267950  0.42415126  1  0  -0.879475  0  1.817483  0  0  -0.834775  0  2.001486  0  0  -0.860373  0  1.967678  0  0  -0.632418  -0.815967  0  2.025342  0
O  O78  1  0.38705949  0.79267975  0.07584792  1  0  -0.879385  0  1.817575  0  0  -0.834691  0  2.001558  0  0  -0.860285  0  1.967758  0  0  -0.63237  -0.815882  0  2.025411  0
O  O79  1  0.61293694  0.70731872  0.57584906  1  0  -0.879433  0  1.817524  0  0  -0.834731  0  2.001521  0  0  -0.860328  0  1.967717  0  0  -0.632393  -0.815921  0  2.025375  0
