# generated using pymatgen
data_MnCuH21C27N5O6
_symmetry_space_group_name_H-M   'P 1'
_cell_length_a   10.16255926
_cell_length_b   10.86424032
_cell_length_c   11.87722981
_cell_angle_alpha   106.50096903
_cell_angle_beta   95.29395521
_cell_angle_gamma   101.32554251
_symmetry_Int_Tables_number   1
_chemical_formula_structural   MnCuH21C27N5O6
_chemical_formula_sum   'Mn2 Cu2 H42 C54 N10 O12'
_cell_volume   1217.47374388
_cell_formula_units_Z   2
loop_
 _symmetry_equiv_pos_site_id
 _symmetry_equiv_pos_as_xyz
  1  'x, y, z'
loop_
 _atom_site_type_symbol
 _atom_site_label
 _atom_site_symmetry_multiplicity
 _atom_site_fract_x
 _atom_site_fract_y
 _atom_site_fract_z
 _atom_site_occupancy
 _atom_site_pbe_bader_charge
 _atom_site_pbe_bader_spin_density
 _atom_site_pbe_cm5_charge
 _atom_site_pbe_ddec_charge
 _atom_site_pbe_ddec_spin_density
 _atom_site_pbe_ddec_sum_bond_order
 _atom_site_pbe_magmom
Mn  Mn0  1  0.31562235  0.88022104  0.42710195  1  1.561853  4.367488  0.634013  1.028754  4.49798  2.362138  4.304
Mn  Mn1  1  0.68437472  0.11976491  0.57290711  1  1.56197  4.366986  0.634044  1.028849  4.497484  2.362525  4.304
Cu  Cu2  1  0.21569073  0.88396776  0.97567748  1  0.901074  -0.413298  0.75879  0.535647  -0.552701  2.491931  -0.411
Cu  Cu3  1  0.78430235  0.11603685  0.02432236  1  0.901013  -0.413072  0.75867  0.535411  -0.552389  2.491907  -0.41
H  H4  1  0.20498432  0.58390651  0.43127516  1  0.47878  0.000123  0.289138  0.294535  -0.000331  1.006136  0.0
H  H5  1  0.79501397  0.41609624  0.56873733  1  0.47878  0.000122  0.289171  0.294585  -0.000331  1.006073  0.0
H  H6  1  0.35753014  0.55561765  0.40941051  1  0.463513  0.000178  0.295758  0.295165  -0.000231  0.971862  0.0
H  H7  1  0.64247144  0.44438600  0.59059746  1  0.4635  0.000178  0.295796  0.295166  -0.00023  0.971779  0.0
H  H8  1  0.50166652  0.34819983  0.98459294  1  0.039045  -0.000418  0.101616  0.099176  -0.000271  1.007097  0.0
H  H9  1  0.49833743  0.65180864  0.01540717  1  0.039646  -0.000417  0.101594  0.0991  -0.000271  1.007106  0.0
H  H10  1  0.65056092  0.47725837  0.17680451  1  0.086518  1.9e-05  0.098482  0.101831  2.4e-05  1.025285  0.0
H  H11  1  0.34943631  0.52275514  0.82319960  1  0.086721  1.9e-05  0.098426  0.101732  2.4e-05  1.025371  0.0
H  H12  1  0.66499019  0.37352317  0.33965644  1  0.074972  -0.000434  0.10353  0.103628  -0.000319  1.012613  0.0
H  H13  1  0.33500316  0.62648636  0.66034211  1  0.075231  -0.000433  0.103548  0.103654  -0.000319  1.012576  0.0
H  H14  1  0.52216129  0.15566942  0.31542495  1  0.145814  0.000623  0.113139  0.134328  -8.7e-05  1.033129  0.0
H  H15  1  0.47783617  0.84434113  0.68457929  1  0.146062  0.000624  0.113156  0.134303  -8.6e-05  1.033172  0.0
H  H16  1  0.35487731  0.17747184  0.86242864  1  0.08647  -0.007422  0.120131  0.084308  -0.004046  0.973001  -0.004
H  H17  1  0.64513039  0.82251580  0.13756499  1  0.086492  -0.007417  0.120127  0.084306  -0.004043  0.972957  -0.004
H  H18  1  0.18179098  0.86912105  0.71408732  1  0.068538  -0.000151  0.110003  0.101208  -0.000293  0.984824  0.0
H  H19  1  0.81822128  0.13087752  0.28591617  1  0.068621  -0.000151  0.110038  0.101144  -0.000293  0.984875  0.0
H  H20  1  0.20978497  0.03732420  0.72020283  1  0.066394  -0.004543  0.107521  0.089887  -0.002759  1.000111  -0.002
H  H21  1  0.79022184  0.96267246  0.27980136  1  0.066274  -0.00454  0.107548  0.089946  -0.002757  1.000042  -0.002
H  H22  1  0.96868478  0.96664712  0.70166569  1  0.101704  7.6e-05  0.105058  0.126973  -0.000261  0.99047  0.0
H  H23  1  0.03132361  0.03335933  0.29833435  1  0.101804  7.6e-05  0.105021  0.126926  -0.000261  0.990555  0.0
H  H24  1  0.02417629  0.05999967  0.85184660  1  0.026756  0.000162  0.088773  0.081069  0.000125  1.013222  0.0
H  H25  1  0.97583818  0.93999987  0.14815734  1  0.026753  0.000162  0.088753  0.081042  0.000125  1.013187  0.0
H  H26  1  0.88632256  0.88476605  0.88742642  1  0.049605  8.6e-05  0.098451  0.070549  0.000172  1.004807  0.0
H  H27  1  0.11367731  0.11523348  0.11256521  1  0.050299  8.6e-05  0.098459  0.070515  0.000172  1.004717  0.0
H  H28  1  0.88188023  0.77583124  0.74377201  1  0.077956  -0.005428  0.102118  0.080982  -0.002862  1.010973  -0.003
H  H29  1  0.11813142  0.22416823  0.25622407  1  0.077653  -0.005424  0.102158  0.080982  -0.00286  1.01091  -0.003
H  H30  1  0.92400904  0.60280003  0.76679991  1  0.110571  -0.006643  0.114818  0.079331  -0.003477  1.027456  -0.004
H  H31  1  0.07599379  0.39720853  0.23320771  1  0.110512  -0.006637  0.114813  0.079391  -0.003474  1.027364  -0.004
H  H32  1  0.28823120  0.54676461  0.11637107  1  0.107522  0.000233  0.107513  0.126302  -0.000145  1.003593  0.0
H  H33  1  0.71176109  0.45323312  0.88363036  1  0.1075  0.000233  0.107488  0.126304  -0.000145  1.003569  0.0
H  H34  1  0.22790936  0.31310506  0.99424422  1  0.075336  -0.000517  0.094106  0.086066  -0.000239  1.044272  0.0
H  H35  1  0.77208717  0.68689754  0.00575544  1  0.075269  -0.000516  0.094217  0.08622  -0.000238  1.044219  0.0
H  H36  1  0.07159784  0.23996803  0.79724718  1  0.046457  0.000104  0.100331  0.10607  -0.000122  1.035304  0.0
H  H37  1  0.92840171  0.76003056  0.20274840  1  0.046507  0.000104  0.100364  0.106111  -0.000122  1.035335  0.0
H  H38  1  0.97190071  0.40415419  0.73512014  1  0.102724  -0.000206  0.105258  0.103172  -0.000468  1.031366  0.0
H  H39  1  0.02809562  0.59584740  0.26487673  1  0.102569  -0.000206  0.105261  0.103147  -0.000469  1.031346  0.0
H  H40  1  0.15013676  0.10778703  0.57513498  1  0.104212  0.00012  0.104539  0.107728  -0.000369  1.056745  0.0
H  H41  1  0.84986145  0.89221066  0.42486698  1  0.104215  0.00012  0.104538  0.107754  -0.000369  1.056744  0.0
H  H42  1  0.01876575  0.40796611  0.45561401  1  0.076115  0.000292  0.100405  0.108688  4.1e-05  1.034143  0.0
H  H43  1  0.98123002  0.59202960  0.54438555  1  0.075944  0.000292  0.100424  0.108793  4.1e-05  1.034127  0.0
H  H44  1  0.43684245  0.37784801  0.46172399  1  0.053539  0.000429  0.101826  0.108098  7.4e-05  1.036359  0.0
H  H45  1  0.56315431  0.62215164  0.53827580  1  0.053485  0.000429  0.101829  0.108156  7.4e-05  1.03628  0.0
C  C46  1  0.32665623  0.94555003  0.20748559  1  1.339044  0.013854  0.231416  0.382391  0.012655  4.118823  0.012
C  C47  1  0.67334106  0.05445553  0.79251319  1  1.338839  0.013862  0.231397  0.382367  0.012663  4.118647  0.012
C  C48  1  0.42565909  0.12407338  0.13617766  1  0.396768  -0.001279  0.105009  0.231357  -0.001381  3.979247  0.0
C  C49  1  0.57434560  0.87593013  0.86382130  1  0.396314  -0.001279  0.104929  0.231196  -0.001381  3.979221  0.0
C  C50  1  0.42390113  0.17931122  0.04016807  1  -0.007539  -0.001446  -0.023291  -0.05413  -0.000783  4.009023  -0.002
C  C51  1  0.57610235  0.82069130  0.95982969  1  -0.00761  -0.001439  -0.023292  -0.054244  -0.000778  4.009081  -0.002
C  C52  1  0.50523173  0.30684685  0.05826514  1  0.000979  0.000522  -0.085147  -0.109665  0.000418  4.00776  0.0
C  C53  1  0.49476675  0.69315971  0.94173653  1  0.000346  0.000519  -0.08507  -0.10943  0.000416  4.007682  0.0
C  C54  1  0.58916041  0.37896676  0.16502660  1  -0.097163  0.001836  -0.10087  -0.104595  0.001491  4.032919  0.001
C  C55  1  0.41083874  0.62104675  0.83498021  1  -0.097  0.001841  -0.100827  -0.104493  0.001495  4.033081  0.001
C  C56  1  0.59642524  0.32120390  0.25609255  1  -0.068702  -0.000571  -0.08067  -0.044942  -0.000373  3.987321  0.0
C  C57  1  0.40356461  0.67880372  0.74390857  1  -0.067732  -0.000574  -0.080708  -0.045025  -0.000375  3.987177  0.0
C  C58  1  0.51626598  0.19693967  0.24243412  1  0.024308  -0.002559  -0.092154  -0.172696  -0.001986  3.915751  -0.003
C  C59  1  0.48373052  0.80306691  0.75756820  1  0.02271  -0.002549  -0.092175  -0.172671  -0.001979  3.915623  -0.003
C  C60  1  0.34286609  0.11755344  0.92331390  1  0.614934  0.003033  0.07765  0.100276  0.002014  3.934739  0.002
C  C61  1  0.65713760  0.88244614  0.07668567  1  0.614946  0.00303  0.077641  0.100297  0.002012  3.934621  0.002
C  C62  1  0.17294402  0.96709739  0.76769380  1  0.299807  -0.001848  -0.068931  -0.040101  -0.001738  3.903088  -0.001
C  C63  1  0.82706918  0.03290120  0.23231232  1  0.299958  -0.001846  -0.069116  -0.040203  -0.001738  3.903117  -0.001
C  C64  1  0.02518380  0.96638678  0.78501871  1  -0.044922  -0.000382  -0.162357  -0.194255  -0.00014  3.869793  0.0
C  C65  1  0.97482212  0.03361377  0.21498047  1  -0.045045  -0.000381  -0.162328  -0.194223  -0.000139  3.869874  0.0
C  C66  1  0.95042070  0.84890601  0.82115619  1  0.264101  -0.00369  -0.066783  -0.01863  -0.003159  3.881222  -0.003
C  C67  1  0.04958500  0.15109353  0.17884104  1  0.263625  -0.003686  -0.066794  -0.01851  -0.003155  3.881053  -0.003
C  C68  1  0.01114861  0.65491153  0.83829686  1  0.585179  -0.003485  0.080257  0.105271  -0.002172  3.907995  -0.001
C  C69  1  0.98885308  0.34509204  0.16170436  1  0.585262  -0.003494  0.080164  0.105084  -0.002179  3.907941  -0.001
C  C70  1  0.07944320  0.56973209  0.88376569  1  -0.043607  -0.003533  -0.019554  -0.046503  -0.002333  3.997709  -0.003
C  C71  1  0.92055388  0.43026849  0.11623016  1  -0.043658  -0.00353  -0.019579  -0.046468  -0.002331  3.997583  -0.003
C  C72  1  0.17162186  0.61175451  0.99263102  1  0.421178  -0.003195  0.108215  0.233709  -0.003029  3.999968  -0.002
C  C73  1  0.82836952  0.38824318  0.00736610  1  0.42066  -0.003195  0.108258  0.233701  -0.003028  3.999876  -0.002
C  C74  1  0.22188680  0.51599710  0.03114838  1  -0.034408  -0.006016  -0.095553  -0.179815  -0.004243  3.943255  -0.005
C  C75  1  0.77810525  0.48400359  0.96885292  1  -0.034275  -0.006012  -0.095536  -0.179785  -0.004239  3.943172  -0.005
C  C76  1  0.18705713  0.38423062  0.96153817  1  -0.044533  0.00107  -0.09126  -0.064799  0.000937  4.031206  0.001
C  C77  1  0.81293740  0.61577202  0.03846300  1  -0.044594  0.001069  -0.091334  -0.064962  0.000937  4.031258  0.001
C  C78  1  0.09985293  0.34277191  0.85268556  1  -0.049507  -0.000932  -0.103143  -0.107746  -0.000663  4.010628  -0.001
C  C79  1  0.90014310  0.65722478  0.14731343  1  -0.049156  -0.000933  -0.103221  -0.107863  -0.000664  4.010757  -0.001
C  C80  1  0.04529481  0.43527223  0.81637132  1  0.008694  0.001248  -0.078427  -0.087672  0.000826  3.963607  0.001
C  C81  1  0.95470196  0.56472742  0.18362847  1  0.008528  0.001247  -0.078406  -0.087576  0.000825  3.963416  0.001
C  C82  1  0.26300557  0.79831085  0.16844944  1  1.365064  0.007508  0.225707  0.369569  0.007322  4.158877  0.007
C  C83  1  0.73699227  0.20168873  0.83154538  1  1.365506  0.00751  0.22562  0.369385  0.007327  4.158727  0.007
C  C84  1  0.30560206  0.23846678  0.52384646  1  0.072961  -0.000361  -0.019644  -0.022039  -0.000779  4.024214  -0.001
C  C85  1  0.69439897  0.76152982  0.47614877  1  0.07271  -0.000364  -0.01962  -0.021945  -0.000782  4.024072  -0.001
C  C86  1  0.17461422  0.19354688  0.54481607  1  -0.065774  0.007869  -0.092704  -0.144438  0.005755  3.971902  0.005
C  C87  1  0.82538604  0.80644679  0.45518088  1  -0.065831  0.007873  -0.092687  -0.144481  0.005758  3.971941  0.005
C  C88  1  0.07252579  0.25622757  0.52125764  1  -0.064119  -0.00244  -0.022509  -0.019785  -0.002028  4.031569  -0.003
C  C89  1  0.92746871  0.74376323  0.47874312  1  -0.063772  -0.002441  -0.022546  -0.019745  -0.002029  4.031643  -0.003
C  C90  1  0.10099964  0.36333449  0.47710662  1  0.00186  0.008006  -0.097956  -0.217651  0.006144  3.918509  0.005
C  C91  1  0.89899755  0.63665928  0.52289681  1  0.001937  0.00801  -0.097891  -0.217728  0.006148  3.918487  0.005
C  C92  1  0.23324666  0.41091420  0.45643990  1  0.36225  -0.001678  0.089696  0.28437  -0.001177  4.124597  -0.001
C  C93  1  0.76675026  0.58908255  0.54356508  1  0.362478  -0.001679  0.089698  0.284424  -0.001178  4.124496  -0.001
C  C94  1  0.33480035  0.34631857  0.48044427  1  -0.044075  0.007888  -0.094808  -0.20765  0.005892  3.906642  0.005
C  C95  1  0.66519645  0.65367711  0.51955285  1  -0.04434  0.007895  -0.094801  -0.207793  0.005898  3.906418  0.005
C  C96  1  0.41321891  0.16855614  0.54575507  1  1.536263  0.029439  0.224713  0.591418  0.029446  4.157983  0.024
C  C97  1  0.58678191  0.83143271  0.45425169  1  1.535777  0.029455  0.224652  0.591377  0.029455  4.158203  0.025
C  C98  1  0.93272315  0.20356311  0.54126885  1  1.503818  0.008621  0.204045  0.551043  0.010188  4.197913  0.006
C  C99  1  0.06726402  0.79642179  0.45872724  1  1.503801  0.008626  0.203952  0.550898  0.010193  4.198233  0.006
N  N100  1  0.34424551  0.99977665  0.12041733  1  -1.248478  -0.076468  -0.387691  -0.424275  -0.052561  3.607093  -0.067
N  N101  1  0.65576459  0.00023276  0.87958359  1  -1.248131  -0.076402  -0.387601  -0.424021  -0.052514  3.606934  -0.067
N  N102  1  0.25776405  0.00364549  0.88386724  1  -1.205275  -0.061227  -0.383589  -0.230145  -0.042025  3.621479  -0.053
N  N103  1  0.74223706  0.99635617  0.11613935  1  -1.205327  -0.061181  -0.383468  -0.230058  -0.041993  3.621279  -0.053
N  N104  1  0.04026099  0.78294419  0.87432212  1  -1.157188  -0.074249  -0.374678  -0.237602  -0.0508  3.548579  -0.063
N  N105  1  0.95974791  0.21705632  0.12567565  1  -1.157114  -0.074178  -0.374542  -0.237513  -0.050751  3.548476  -0.063
N  N106  1  0.21488226  0.74539244  0.05318025  1  -1.267839  -0.074627  -0.389012  -0.420166  -0.050717  3.669617  -0.064
N  N107  1  0.78510156  0.25461019  0.94681149  1  -1.267405  -0.074559  -0.38891  -0.419943  -0.050672  3.669723  -0.064
N  N108  1  0.25847072  0.51242566  0.40687208  1  -1.261527  -0.001188  -0.601361  -0.623123  -0.00095  3.322512  -0.001
N  N109  1  0.74152886  0.48757407  0.59313641  1  -1.261489  -0.001189  -0.601448  -0.623175  -0.000952  3.322459  -0.001
O  O110  1  0.35931714  0.00097954  0.31834789  1  -1.124039  0.028755  -0.262613  -0.444768  0.017858  2.390562  -0.001
O  O111  1  0.64067677  0.99901611  0.68164475  1  -1.12422  0.02876  -0.262717  -0.444877  0.017855  2.390445  -0.001
O  O112  1  0.26512747  0.74235008  0.24864644  1  -1.130542  0.021153  -0.272686  -0.455748  0.013714  2.29912  -0.003
O  O113  1  0.73488255  0.25764521  0.75132824  1  -1.130788  0.021124  -0.272679  -0.455733  0.013695  2.29868  -0.003
O  O114  1  0.37897911  0.05666319  0.56469533  1  -1.200744  0.070235  -0.319379  -0.58346  0.05059  2.312685  0.028
O  O115  1  0.62102344  0.94334441  0.43531455  1  -1.200284  0.070248  -0.319403  -0.583592  0.0506  2.312571  0.028
O  O116  1  0.53595461  0.22333859  0.54449687  1  -1.186804  0.078917  -0.299569  -0.540629  0.055804  2.304234  0.04
O  O117  1  0.46405521  0.77665684  0.45548961  1  -1.186725  0.078888  -0.299463  -0.540396  0.05578  2.304589  0.04
O  O118  1  0.91304681  0.11786846  0.59538766  1  -1.163695  0.050848  -0.29792  -0.536856  0.037595  2.203247  0.031
O  O119  1  0.08695530  0.88211737  0.40461510  1  -1.163616  0.050836  -0.297878  -0.53676  0.037585  2.203328  0.031
O  O120  1  0.83194141  0.24520036  0.50284008  1  -1.1921  0.049479  -0.317743  -0.569033  0.034941  2.213169  0.022
O  O121  1  0.16804447  0.75479150  0.49716014  1  -1.192201  0.049518  -0.317738  -0.569035  0.034955  2.213296  0.022
