# generated using pymatgen
data_LaCuPH10C6NO11
_symmetry_space_group_name_H-M   'P 1'
_cell_length_a   8.34477842
_cell_length_b   9.55292762
_cell_length_c   20.18117372
_cell_angle_alpha   89.99971832
_cell_angle_beta   90.00098968
_cell_angle_gamma   109.33413437
_symmetry_Int_Tables_number   1
_chemical_formula_structural   LaCuPH10C6NO11
_chemical_formula_sum   'La4 Cu4 P4 H40 C24 N4 O44'
_cell_volume   1518.05474628
_cell_formula_units_Z   4
loop_
 _symmetry_equiv_pos_site_id
 _symmetry_equiv_pos_as_xyz
  1  'x, y, z'
loop_
 _atom_site_type_symbol
 _atom_site_label
 _atom_site_symmetry_multiplicity
 _atom_site_fract_x
 _atom_site_fract_y
 _atom_site_fract_z
 _atom_site_occupancy
 _atom_site_pbe_bader_charge
 _atom_site_pbe_bader_spin_density
 _atom_site_pbe_cm5_charge
 _atom_site_pbe_ddec_charge
 _atom_site_pbe_ddec_spin_density
 _atom_site_pbe_ddec_sum_bond_order
 _atom_site_pbe_magmom
La  La0  1  0.38156964  0.38334433  0.64768920  1  2.265396  0.002184  1.383636  1.949051  0.002615  2.302368  0.002
La  La1  1  0.61842327  0.11664994  0.14769367  1  2.265412  0.002184  1.383677  1.949045  0.002614  2.30243  0.002
La  La2  1  0.61842190  0.61665216  0.35230457  1  2.265348  0.002183  1.383677  1.949054  0.002614  2.302466  0.002
La  La3  1  0.38157101  0.88334432  0.85230605  1  2.265327  0.002184  1.38358  1.948883  0.002615  2.3026  0.002
Cu  Cu4  1  0.04175971  0.92890136  0.70368707  1  1.056843  0.568645  0.742538  0.828249  0.725711  2.162685  0.569
Cu  Cu5  1  0.95823923  0.57109588  0.20368415  1  1.056789  0.568644  0.742567  0.828271  0.725714  2.162731  0.569
Cu  Cu6  1  0.95823055  0.07109180  0.29631463  1  1.056794  0.568639  0.742547  0.828272  0.725704  2.162636  0.569
Cu  Cu7  1  0.04176034  0.42890280  0.79631408  1  1.056812  0.568635  0.742536  0.828296  0.725699  2.162609  0.569
P  P8  1  0.20725043  0.67632349  0.69819868  1  3.382462  0.003722  0.325459  1.291644  0.005218  5.415434  0.002
P  P9  1  0.79274264  0.82367154  0.19819746  1  3.381892  0.003725  0.325496  1.291688  0.005218  5.41552  0.002
P  P10  1  0.79275076  0.32367629  0.30180154  1  3.382498  0.003723  0.325481  1.291661  0.005219  5.415521  0.002
P  P11  1  0.20725855  0.17632825  0.80180127  1  3.382395  0.003723  0.325483  1.291742  0.005219  5.415631  0.002
H  H12  1  0.77253305  0.72960947  0.58760399  1  0.097877  0.000394  0.132592  0.142927  6.1e-05  0.952319  0.0
H  H13  1  0.86256107  0.58755592  0.59684279  1  0.129396  0.003247  0.129375  0.151924  0.001701  0.960049  0.002
H  H14  1  0.09956186  0.87891686  0.51842408  1  0.095865  0.005295  0.126366  0.142288  0.002749  0.935685  0.003
H  H15  1  0.93143779  0.93084560  0.55223918  1  0.109195  0.000429  0.124664  0.130461  0.000128  0.990959  0.0
H  H16  1  0.14818426  0.65817617  0.57871783  1  0.124962  0.007241  0.126136  0.160922  0.003648  0.972809  0.005
H  H17  1  0.28821843  0.83349666  0.60514176  1  0.104325  0.00177  0.134851  0.163141  0.000746  0.939559  0.001
H  H18  1  0.99256423  0.24102390  0.66394976  1  0.613618  -0.000207  0.312683  0.389191  -0.000414  0.915171  0.0
H  H19  1  0.02268319  0.40792223  0.65934827  1  0.628162  -8e-05  0.295506  0.382398  -9.5e-05  0.958809  0.0
H  H20  1  0.48046049  0.16565004  0.73362089  1  0.63556  -7e-06  0.304597  0.394213  -1.7e-05  0.942037  0.0
H  H21  1  0.66019899  0.25467092  0.70768537  1  0.638315  0.000103  0.308636  0.407061  0.000184  0.907586  0.0
H  H22  1  0.22746178  0.77038975  0.08760581  1  0.097497  0.000394  0.132551  0.142841  6.1e-05  0.952405  0.0
H  H23  1  0.13743330  0.91244110  0.09684067  1  0.129036  0.003248  0.129367  0.151902  0.001701  0.960056  0.002
H  H24  1  0.90042445  0.62108336  0.01842162  1  0.095873  0.005295  0.126347  0.142221  0.002749  0.935694  0.003
H  H25  1  0.06855051  0.56914357  0.05223935  1  0.109161  0.000429  0.124642  0.130481  0.000128  0.99088  0.0
H  H26  1  0.85181498  0.84182302  0.07871600  1  0.124987  0.007241  0.126133  0.160974  0.003648  0.972772  0.005
H  H27  1  0.71177877  0.66650371  0.10513934  1  0.104269  0.00177  0.134848  0.16315  0.000746  0.939569  0.001
H  H28  1  0.00742834  0.25897707  0.16395005  1  0.613189  -0.000207  0.312699  0.389203  -0.000414  0.915154  0.0
H  H29  1  0.97731193  0.09207650  0.15934742  1  0.62822  -8e-05  0.295505  0.382367  -9.5e-05  0.958846  0.0
H  H30  1  0.51954182  0.33434993  0.23362265  1  0.63554  -7e-06  0.304573  0.394178  -1.7e-05  0.942081  0.0
H  H31  1  0.33980382  0.24533011  0.20768508  1  0.638345  0.000103  0.308634  0.407037  0.000184  0.907624  0.0
H  H32  1  0.22746285  0.27038589  0.41240019  1  0.097814  0.000394  0.132581  0.142915  6.1e-05  0.952317  0.0
H  H33  1  0.13744201  0.41243941  0.40315793  1  0.129455  0.003248  0.129351  0.151895  0.001702  0.960033  0.002
H  H34  1  0.90042744  0.12108630  0.48157961  1  0.095831  0.005295  0.126358  0.142248  0.002749  0.935593  0.003
H  H35  1  0.06854734  0.06914980  0.44776352  1  0.109209  0.000429  0.124652  0.13051  0.000128  0.990933  0.0
H  H36  1  0.85182632  0.34183246  0.42128239  1  0.124911  0.007241  0.126141  0.160956  0.003648  0.972796  0.005
H  H37  1  0.71178384  0.16651534  0.39486143  1  0.104508  0.00177  0.134811  0.163118  0.000746  0.939525  0.001
H  H38  1  0.00743550  0.75898144  0.33604897  1  0.61355  -0.000207  0.312719  0.389298  -0.000414  0.915089  0.0
H  H39  1  0.97731534  0.59208312  0.34065294  1  0.628221  -8e-05  0.295478  0.382337  -9.5e-05  0.958883  0.0
H  H40  1  0.51953874  0.83435086  0.26637438  1  0.635499  -7e-06  0.304561  0.394177  -1.7e-05  0.942079  0.0
H  H41  1  0.33980228  0.74533220  0.29231535  1  0.638321  0.000103  0.308616  0.407007  0.000184  0.907667  0.0
H  H42  1  0.77254899  0.22961000  0.91239738  1  0.098053  0.000394  0.132575  0.142905  6.1e-05  0.952406  0.0
H  H43  1  0.86257148  0.08755867  0.90315856  1  0.129037  0.003248  0.12938  0.15194  0.001701  0.960002  0.002
H  H44  1  0.09958716  0.37891861  0.98157761  1  0.095953  0.005295  0.126333  0.142172  0.002749  0.935727  0.003
H  H45  1  0.93146419  0.43085394  0.94775938  1  0.10895  0.000429  0.124677  0.130524  0.000128  0.990921  0.0
H  H46  1  0.14819177  0.15817564  0.92128323  1  0.124915  0.007241  0.126125  0.160943  0.003647  0.972791  0.005
H  H47  1  0.28822319  0.33349497  0.89485889  1  0.104275  0.00177  0.134822  0.163154  0.000746  0.939522  0.001
H  H48  1  0.99256474  0.74101719  0.83604720  1  0.613304  -0.000207  0.312682  0.389227  -0.000414  0.915156  0.0
H  H49  1  0.02268876  0.90791884  0.84065429  1  0.628244  -8e-05  0.295484  0.382345  -9.5e-05  0.958863  0.0
H  H50  1  0.48046092  0.66564763  0.76637608  1  0.635523  -7e-06  0.304558  0.394171  -1.7e-05  0.942101  0.0
H  H51  1  0.66019574  0.75466857  0.79231366  1  0.638534  0.000103  0.308609  0.407032  0.000184  0.907668  0.0
C  C52  1  0.78139995  0.66328795  0.68757053  1  1.596244  0.001907  0.230043  0.643847  0.001351  4.127073  0.002
C  C53  1  0.85915985  0.69195123  0.61837807  1  0.224457  0.000409  -0.063822  -0.254169  -1.4e-05  3.841126  -0.002
C  C54  1  0.05420638  0.91731438  0.56386375  1  0.227147  0.000798  -0.066954  -0.245142  0.000418  3.875197  -0.002
C  C55  1  0.17569140  0.06770269  0.58553983  1  1.55156  0.001142  0.212526  0.597249  0.000677  4.174681  0.001
C  C56  1  0.16938836  0.74430564  0.61720318  1  -0.298409  0.01066  -0.071078  -0.381101  0.007058  3.821313  0.004
C  C57  1  0.57521879  0.46850028  0.50267097  1  1.580658  0.000581  0.213155  0.483804  0.000447  4.256754  0.0
C  C58  1  0.21859189  0.83670817  0.18756867  1  1.596386  0.001907  0.230044  0.64379  0.001351  4.127002  0.002
C  C59  1  0.14083672  0.80804917  0.11837771  1  0.224901  0.000409  -0.063794  -0.254031  -1.3e-05  3.841129  -0.002
C  C60  1  0.94578385  0.58268481  0.06386170  1  0.227153  0.000797  -0.066861  -0.245115  0.000417  3.874989  -0.002
C  C61  1  0.82429542  0.43229813  0.08553957  1  1.551533  0.001143  0.212534  0.597455  0.000678  4.175089  0.001
C  C62  1  0.83060971  0.75569252  0.11720041  1  -0.297973  0.01066  -0.071059  -0.381153  0.007059  3.821287  0.004
C  C63  1  0.42477569  0.03150144  0.00267327  1  1.580062  0.000581  0.213182  0.48389  0.000447  4.25674  0.0
C  C64  1  0.21859332  0.33669742  0.31243365  1  1.595953  0.001907  0.230095  0.643835  0.001352  4.126731  0.002
C  C65  1  0.14083999  0.30804189  0.38162512  1  0.224697  0.000409  -0.06381  -0.254112  -1.3e-05  3.840975  -0.002
C  C66  1  0.94578088  0.08268657  0.43613944  1  0.227082  0.000798  -0.066812  -0.245101  0.000418  3.874997  -0.002
C  C67  1  0.82429388  0.93229938  0.41445890  1  1.551582  0.001144  0.212502  0.597396  0.000678  4.175151  0.001
C  C68  1  0.83061658  0.25570079  0.38279902  1  -0.298566  0.010661  -0.071037  -0.381158  0.007058  3.821456  0.004
C  C69  1  0.42479048  0.53152058  0.49732925  1  1.601596  0.000573  0.213114  0.483677  0.000447  4.256881  0.0
C  C70  1  0.78140733  0.16329273  0.81243353  1  1.595968  0.001905  0.230074  0.643859  0.00135  4.126728  0.002
C  C71  1  0.85916891  0.19195283  0.88162301  1  0.224985  0.000408  -0.063784  -0.25411  -1.3e-05  3.841171  -0.002
C  C72  1  0.05423178  0.41731825  0.93613753  1  0.227459  0.000798  -0.066856  -0.245036  0.000418  3.875105  -0.002
C  C73  1  0.17572167  0.56769938  0.91445817  1  1.5511  0.001142  0.212274  0.597311  0.000677  4.175022  0.001
C  C74  1  0.16939619  0.24430391  0.88279783  1  -0.29847  0.010662  -0.071047  -0.381151  0.007059  3.821349  0.004
C  C75  1  0.57521083  0.96848507  0.99732844  1  1.601737  0.000573  0.213083  0.483554  0.000447  4.256835  0.0
N  N76  1  0.02894028  0.80786106  0.61791565  1  -0.986267  0.131232  -0.336157  -0.011863  0.085292  3.569852  0.113
N  N77  1  0.97105628  0.69213933  0.11791352  1  -0.986206  0.13124  -0.336222  -0.011952  0.085297  3.569943  0.113
N  N78  1  0.97105732  0.19213874  0.38208705  1  -0.98612  0.131242  -0.336192  -0.01194  0.085298  3.570002  0.113
N  N79  1  0.02894936  0.30786266  0.88208521  1  -0.986224  0.13124  -0.336204  -0.012013  0.085297  3.569938  0.113
O  O80  1  0.84280723  0.76408205  0.73237873  1  -1.125041  0.079393  -0.318494  -0.555691  0.050197  2.348786  0.073
O  O81  1  0.65622004  0.54974587  0.69744130  1  -1.189396  0.020027  -0.349682  -0.561065  0.012411  2.248994  0.016
O  O82  1  0.18790856  0.09151283  0.64936170  1  -1.121834  0.073068  -0.352196  -0.599906  0.046601  2.443839  0.068
O  O83  1  0.25291782  0.16514161  0.54521825  1  -1.167166  0.019443  -0.301348  -0.529336  0.012178  2.123266  0.015
O  O84  1  0.35607825  0.61759583  0.69114122  1  -1.463316  0.000215  -0.432067  -0.798697  -0.00034  2.251187  0.0
O  O85  1  0.04050383  0.54895152  0.71685920  1  -1.398013  0.063727  -0.380091  -0.741414  0.039472  2.337698  0.054
O  O86  1  0.24313966  0.81211443  0.74342843  1  -1.459185  -2e-06  -0.449501  -0.844116  -0.000777  2.330157  0.001
O  O87  1  0.04466917  0.32547558  0.63485185  1  -1.240749  -0.000118  -0.610423  -0.780823  -0.000166  1.986688  0.0
O  O88  1  0.54027196  0.21990378  0.69396279  1  -1.259789  0.000729  -0.631537  -0.80674  0.000452  2.010674  0.001
O  O89  1  0.59613855  0.41426733  0.55789287  1  -1.180469  0.001793  -0.371864  -0.580548  0.001113  2.272507  0.001
O  O90  1  0.66525223  0.47790783  0.45128577  1  -1.182863  0.002261  -0.367517  -0.567664  0.001393  2.270026  0.002
O  O91  1  0.15718746  0.73591971  0.23237568  1  -1.124928  0.079378  -0.318497  -0.555629  0.050187  2.348858  0.073
O  O92  1  0.34377119  0.95025695  0.19744056  1  -1.189292  0.020022  -0.349699  -0.561082  0.012408  2.248897  0.016
O  O93  1  0.81209733  0.40848695  0.14936240  1  -1.121901  0.073076  -0.352255  -0.599982  0.046606  2.443986  0.068
O  O94  1  0.74706528  0.33487580  0.04521965  1  -1.167096  0.019443  -0.301265  -0.529401  0.012179  2.123716  0.015
O  O95  1  0.64391452  0.88239919  0.19113781  1  -1.463375  0.000215  -0.432103  -0.798724  -0.00034  2.251213  0.0
O  O96  1  0.95948575  0.95104800  0.21686035  1  -1.398029  0.063731  -0.380139  -0.741449  0.039475  2.337881  0.054
O  O97  1  0.75685902  0.68788402  0.24342777  1  -1.459016  -3e-06  -0.449521  -0.84419  -0.000777  2.330205  0.001
O  O98  1  0.95532335  0.17452533  0.13485115  1  -1.24034  -0.000118  -0.61044  -0.780811  -0.000166  1.986664  0.0
O  O99  1  0.45972865  0.28009612  0.19396277  1  -1.259791  0.000728  -0.631501  -0.806672  0.000452  2.010651  0.001
O  O100  1  0.40385524  0.08572341  0.05789192  1  -1.180497  0.001792  -0.371809  -0.5805  0.001112  2.272856  0.001
O  O101  1  0.33472579  0.02208937  0.95128379  1  -1.182368  0.002262  -0.36766  -0.567841  0.001394  2.269762  0.002
O  O102  1  0.15718593  0.23591554  0.26762694  1  -1.125128  0.079372  -0.318476  -0.555559  0.050182  2.348782  0.073
O  O103  1  0.34378304  0.45024947  0.30256288  1  -1.189221  0.020029  -0.349791  -0.561213  0.012413  2.248829  0.016
O  O104  1  0.81208939  0.90848475  0.35063951  1  -1.121913  0.073068  -0.352295  -0.599969  0.046601  2.444087  0.068
O  O105  1  0.74706847  0.83486934  0.45478197  1  -1.167133  0.019451  -0.301242  -0.529384  0.012184  2.123542  0.015
O  O106  1  0.64392124  0.38239952  0.30885900  1  -1.463281  0.000215  -0.432074  -0.798663  -0.00034  2.251193  0.0
O  O107  1  0.95949350  0.45105383  0.28313855  1  -1.398064  0.063733  -0.380138  -0.741405  0.039475  2.337664  0.054
O  O108  1  0.75686802  0.18788978  0.25656981  1  -1.459194  -2e-06  -0.449519  -0.84416  -0.000777  2.330213  0.001
O  O109  1  0.95532978  0.67453088  0.36514837  1  -1.240713  -0.000118  -0.610432  -0.780895  -0.000166  1.986611  0.0
O  O110  1  0.45972881  0.78009490  0.30603446  1  -1.259716  0.000728  -0.631467  -0.806636  0.000452  2.010677  0.001
O  O111  1  0.40386573  0.58572800  0.44210090  1  -1.180436  0.001793  -0.37175  -0.580393  0.001113  2.272645  0.001
O  O112  1  0.33474805  0.52212084  0.54871346  1  -1.182936  0.002261  -0.367663  -0.567785  0.001393  2.269866  0.002
O  O113  1  0.84280972  0.26407898  0.76762355  1  -1.1251  0.079391  -0.31848  -0.555645  0.050195  2.34877  0.073
O  O114  1  0.65621958  0.04974065  0.80256015  1  -1.189295  0.020029  -0.349723  -0.561117  0.012413  2.248678  0.016
O  O115  1  0.18790711  0.59151505  0.85063782  1  -1.121912  0.073069  -0.352224  -0.599839  0.046601  2.443894  0.068
O  O116  1  0.25296692  0.66513610  0.95477908  1  -1.166762  0.019448  -0.301051  -0.529403  0.012181  2.123403  0.015
O  O117  1  0.35608737  0.11759615  0.80885993  1  -1.46337  0.000215  -0.432068  -0.798699  -0.00034  2.251082  0.0
O  O118  1  0.04051663  0.04895178  0.78313888  1  -1.398013  0.063728  -0.380176  -0.741485  0.039473  2.337973  0.054
O  O119  1  0.24314047  0.31211133  0.75657097  1  -1.458974  -3e-06  -0.44948  -0.844149  -0.000777  2.330282  0.001
O  O120  1  0.04466965  0.82546560  0.86514808  1  -1.240492  -0.000118  -0.61038  -0.780792  -0.000166  1.986681  0.0
O  O121  1  0.54027254  0.71990367  0.80603596  1  -1.259921  0.000729  -0.631471  -0.806683  0.000452  2.010643  0.001
O  O122  1  0.59614429  0.91425639  0.94210879  1  -1.180554  0.001793  -0.371737  -0.580288  0.001113  2.272583  0.001
O  O123  1  0.66524490  0.97790275  0.04871841  1  -1.182909  0.002262  -0.36759  -0.567688  0.001393  2.269924  0.002
